MODEL 1
REMARK VINA RESULT:    -8.157      0.000      0.000
REMARK INTER + INTRA:         -13.292
REMARK INTER:                 -11.971
REMARK INTRA:                  -1.320
REMARK UNBOUND:                -1.320
REMARK  Name = 
REMARK  9 active torsions:
REMARK  status: ('A' for Active; 'I' for Inactive)
REMARK    1  A    between atoms: C_1  and  O_2
REMARK    2  A    between atoms: O_2  and  C_3
REMARK    3  A    between atoms: C_10  and  C_11
REMARK    4  A    between atoms: N_13  and  C_14
REMARK    5  A    between atoms: C_14  and  C_15
REMARK    6  A    between atoms: C_18  and  C_19
REMARK    7  A    between atoms: C_19  and  N_20
REMARK    8  A    between atoms: N_20  and  C_21
REMARK    9  A    between atoms: C_21  and  C_22
REMARK                            x       y       z     vdW  Elec       q    Type
REMARK                         _______ _______ _______ _____ _____    ______ ____
ROOT
ATOM      1  C   UNL     1      47.857   7.093  13.101  0.00  0.00    +0.000 C 
ENDROOT
BRANCH   1   2
ATOM      2  C   UNL     1      46.795   6.185  12.532  0.00  0.00    +0.000 A 
ATOM      3  C   UNL     1      46.282   6.399  11.246  0.00  0.00    +0.000 A 
ATOM      4  C   UNL     1      45.281   5.567  10.730  0.00  0.00    +0.000 A 
ATOM      5  C   UNL     1      44.769   4.502  11.487  0.00  0.00    +0.000 A 
ATOM      6  C   UNL     1      45.272   4.302  12.780  0.00  0.00    +0.000 A 
ATOM      7  C   UNL     1      46.269   5.137  13.298  0.00  0.00    +0.000 A 
BRANCH   5   8
ATOM      8  C   UNL     1      43.681   3.606  10.931  0.00  0.00    +0.000 C 
BRANCH   8   9
ATOM      9  N   UNL     1      43.907   3.304   9.517  0.00  0.00    +0.000 NA
ATOM     10  H   UNL     1      44.460   4.056   9.106  0.00  0.00    +0.000 HD
BRANCH   9  11
ATOM     11  C   UNL     1      44.619   2.037   9.341  0.00  0.00    +0.000 C 
BRANCH  11  12
ATOM     12  C   UNL     1      45.707   2.162   8.306  0.00  0.00    +0.000 A 
ATOM     13  C   UNL     1      45.951   3.368   7.639  0.00  0.00    +0.000 A 
ATOM     14  C   UNL     1      46.977   3.447   6.700  0.00  0.00    +0.000 A 
ATOM     15  C   UNL     1      47.724   2.309   6.448  0.00  0.00    +0.000 A 
ATOM     16  N   UNL     1      47.509   1.122   7.054  0.00  0.00    +0.000 NA
ATOM     17  C   UNL     1      46.509   1.077   7.965  0.00  0.00    +0.000 A 
ENDBRANCH  11  12
ENDBRANCH   9  11
ENDBRANCH   8   9
ENDBRANCH   5   8
ENDBRANCH   1   2
BRANCH   1  20
ATOM     18  C   UNL     1      48.907   7.018  15.328  0.00  0.00    +0.000 C 
ATOM     19  O   UNL     1      50.024   6.871  14.831  0.00  0.00    +0.000 OA
ATOM     20  N   UNL     1      47.794   7.128  14.542  0.00  0.00    +0.000 N 
ATOM     21  H   UNL     1      46.878   7.199  14.965  0.00  0.00    +0.000 HD
BRANCH  18  29
ATOM     22  C   UNL     1      48.779   4.625  17.802  0.00  0.00    +0.000 A 
ATOM     23  N   UNL     1      48.698   3.916  18.945  0.00  0.00    +0.000 NA
ATOM     24  C   UNL     1      48.499   4.583  20.086  0.00  0.00    +0.000 A 
ATOM     25  N   UNL     1      48.365   5.898  20.231  0.00  0.00    +0.000 NA
ATOM     26  C   UNL     1      48.461   6.568  19.068  0.00  0.00    +0.000 A 
ATOM     27  S   UNL     1      48.314   8.258  19.065  0.00  0.00    +0.000 S 
ATOM     28  C   UNL     1      48.530   8.322  17.379  0.00  0.00    +0.000 A 
ATOM     29  C   UNL     1      48.720   7.078  16.788  0.00  0.00    +0.000 A 
ATOM     30  C   UNL     1      48.674   6.028  17.803  0.00  0.00    +0.000 A 
BRANCH  22  32
ATOM     31  C   UNL     1      47.847   3.273  16.142  0.00  0.00    +0.000 C 
ATOM     32  O   UNL     1      49.012   3.936  16.631  0.00  0.00    +0.000 OA
ENDBRANCH  22  32
ENDBRANCH  18  29
ENDBRANCH   1  20
TORSDOF 8
ENDMDL
MODEL 2
REMARK VINA RESULT:    -7.651      1.645      2.810
REMARK INTER + INTRA:         -12.549
REMARK INTER:                 -11.340
REMARK INTRA:                  -1.210
REMARK UNBOUND:                -1.320
REMARK  Name = 
REMARK  9 active torsions:
REMARK  status: ('A' for Active; 'I' for Inactive)
REMARK    1  A    between atoms: C_1  and  O_2
REMARK    2  A    between atoms: O_2  and  C_3
REMARK    3  A    between atoms: C_10  and  C_11
REMARK    4  A    between atoms: N_13  and  C_14
REMARK    5  A    between atoms: C_14  and  C_15
REMARK    6  A    between atoms: C_18  and  C_19
REMARK    7  A    between atoms: C_19  and  N_20
REMARK    8  A    between atoms: N_20  and  C_21
REMARK    9  A    between atoms: C_21  and  C_22
REMARK                            x       y       z     vdW  Elec       q    Type
REMARK                         _______ _______ _______ _____ _____    ______ ____
ROOT
ATOM      1  C   UNL     1      48.332   7.084  13.931  0.00  0.00    +0.000 C 
ENDROOT
BRANCH   1   2
ATOM      2  C   UNL     1      47.312   6.278  13.168  0.00  0.00    +0.000 A 
ATOM      3  C   UNL     1      46.751   5.120  13.723  0.00  0.00    +0.000 A 
ATOM      4  C   UNL     1      45.819   4.362  13.002  0.00  0.00    +0.000 A 
ATOM      5  C   UNL     1      45.428   4.742  11.710  0.00  0.00    +0.000 A 
ATOM      6  C   UNL     1      46.005   5.891  11.150  0.00  0.00    +0.000 A 
ATOM      7  C   UNL     1      46.940   6.646  11.868  0.00  0.00    +0.000 A 
BRANCH   5   8
ATOM      8  C   UNL     1      44.426   3.918  10.927  0.00  0.00    +0.000 C 
BRANCH   8   9
ATOM      9  N   UNL     1      44.962   2.599  10.592  0.00  0.00    +0.000 NA
ATOM     10  H   UNL     1      44.622   1.925  11.278  0.00  0.00    +0.000 HD
BRANCH   9  11
ATOM     11  C   UNL     1      44.549   2.170   9.255  0.00  0.00    +0.000 C 
BRANCH  11  12
ATOM     12  C   UNL     1      45.702   2.221   8.287  0.00  0.00    +0.000 A 
ATOM     13  C   UNL     1      46.073   3.409   7.647  0.00  0.00    +0.000 A 
ATOM     14  C   UNL     1      47.155   3.418   6.770  0.00  0.00    +0.000 A 
ATOM     15  C   UNL     1      47.830   2.230   6.550  0.00  0.00    +0.000 A 
ATOM     16  N   UNL     1      47.494   1.058   7.130  0.00  0.00    +0.000 NA
ATOM     17  C   UNL     1      46.442   1.081   7.982  0.00  0.00    +0.000 A 
ENDBRANCH  11  12
ENDBRANCH   9  11
ENDBRANCH   8   9
ENDBRANCH   5   8
ENDBRANCH   1   2
BRANCH   1  20
ATOM     18  C   UNL     1      48.989   6.567  16.248  0.00  0.00    +0.000 C 
ATOM     19  O   UNL     1      50.083   6.141  15.877  0.00  0.00    +0.000 OA
ATOM     20  N   UNL     1      48.074   7.041  15.350  0.00  0.00    +0.000 N 
ATOM     21  H   UNL     1      47.161   7.343  15.665  0.00  0.00    +0.000 HD
BRANCH  18  29
ATOM     22  C   UNL     1      47.803   9.014  18.361  0.00  0.00    +0.000 A 
ATOM     23  N   UNL     1      47.336   9.759  19.383  0.00  0.00    +0.000 NA
ATOM     24  C   UNL     1      47.188   9.170  20.574  0.00  0.00    +0.000 A 
ATOM     25  N   UNL     1      47.457   7.904  20.880  0.00  0.00    +0.000 NA
ATOM     26  C   UNL     1      47.913   7.196  19.831  0.00  0.00    +0.000 A 
ATOM     27  S   UNL     1      48.308   5.559  20.039  0.00  0.00    +0.000 S 
ATOM     28  C   UNL     1      48.758   5.410  18.406  0.00  0.00    +0.000 A 
ATOM     29  C   UNL     1      48.618   6.583  17.673  0.00  0.00    +0.000 A 
ATOM     30  C   UNL     1      48.114   7.654  18.532  0.00  0.00    +0.000 A 
BRANCH  22  32
ATOM     31  C   UNL     1      48.502  10.921  17.210  0.00  0.00    +0.000 C 
ATOM     32  O   UNL     1      47.928   9.618  17.129  0.00  0.00    +0.000 OA
ENDBRANCH  22  32
ENDBRANCH  18  29
ENDBRANCH   1  20
TORSDOF 8
ENDMDL
MODEL 3
REMARK VINA RESULT:    -7.408      1.521      2.317
REMARK INTER + INTRA:         -12.193
REMARK INTER:                 -11.214
REMARK INTRA:                  -0.979
REMARK UNBOUND:                -1.320
REMARK  Name = 
REMARK  9 active torsions:
REMARK  status: ('A' for Active; 'I' for Inactive)
REMARK    1  A    between atoms: C_1  and  O_2
REMARK    2  A    between atoms: O_2  and  C_3
REMARK    3  A    between atoms: C_10  and  C_11
REMARK    4  A    between atoms: N_13  and  C_14
REMARK    5  A    between atoms: C_14  and  C_15
REMARK    6  A    between atoms: C_18  and  C_19
REMARK    7  A    between atoms: C_19  and  N_20
REMARK    8  A    between atoms: N_20  and  C_21
REMARK    9  A    between atoms: C_21  and  C_22
REMARK                            x       y       z     vdW  Elec       q    Type
REMARK                         _______ _______ _______ _____ _____    ______ ____
ROOT
ATOM      1  C   UNL     1      47.308   4.195  14.754  0.00  0.00    +0.000 C 
ENDROOT
BRANCH   1   2
ATOM      2  C   UNL     1      46.376   4.402  13.587  0.00  0.00    +0.000 A 
ATOM      3  C   UNL     1      46.032   5.693  13.163  0.00  0.00    +0.000 A 
ATOM      4  C   UNL     1      45.149   5.880  12.092  0.00  0.00    +0.000 A 
ATOM      5  C   UNL     1      44.589   4.783  11.421  0.00  0.00    +0.000 A 
ATOM      6  C   UNL     1      44.922   3.493  11.859  0.00  0.00    +0.000 A 
ATOM      7  C   UNL     1      45.800   3.306  12.932  0.00  0.00    +0.000 A 
BRANCH   5   8
ATOM      8  C   UNL     1      43.629   4.986  10.266  0.00  0.00    +0.000 C 
BRANCH   8   9
ATOM      9  N   UNL     1      43.998   4.166   9.112  0.00  0.00    +0.000 NA
ATOM     10  H   UNL     1      43.335   4.347   8.358  0.00  0.00    +0.000 HD
BRANCH   9  11
ATOM     11  C   UNL     1      45.351   4.470   8.643  0.00  0.00    +0.000 C 
BRANCH  11  12
ATOM     12  C   UNL     1      46.018   3.245   8.073  0.00  0.00    +0.000 A 
ATOM     13  C   UNL     1      46.920   3.328   7.007  0.00  0.00    +0.000 A 
ATOM     14  C   UNL     1      47.527   2.173   6.519  0.00  0.00    +0.000 A 
ATOM     15  C   UNL     1      47.205   0.963   7.109  0.00  0.00    +0.000 A 
ATOM     16  N   UNL     1      46.325   0.836   8.126  0.00  0.00    +0.000 NA
ATOM     17  C   UNL     1      45.755   1.975   8.582  0.00  0.00    +0.000 A 
ENDBRANCH  11  12
ENDBRANCH   9  11
ENDBRANCH   8   9
ENDBRANCH   5   8
ENDBRANCH   1   2
BRANCH   1  20
ATOM     18  C   UNL     1      48.514   5.585  16.392  0.00  0.00    +0.000 C 
ATOM     19  O   UNL     1      49.313   4.677  16.623  0.00  0.00    +0.000 OA
ATOM     20  N   UNL     1      47.499   5.421  15.492  0.00  0.00    +0.000 N 
ATOM     21  H   UNL     1      46.821   6.158  15.349  0.00  0.00    +0.000 HD
BRANCH  18  29
ATOM     22  C   UNL     1      47.978   6.601  19.639  0.00  0.00    +0.000 A 
ATOM     23  N   UNL     1      47.850   7.257  20.810  0.00  0.00    +0.000 NA
ATOM     24  C   UNL     1      48.098   8.569  20.825  0.00  0.00    +0.000 A 
ATOM     25  N   UNL     1      48.464   9.327  19.795  0.00  0.00    +0.000 NA
ATOM     26  C   UNL     1      48.588   8.632  18.650  0.00  0.00    +0.000 A 
ATOM     27  S   UNL     1      49.049   9.441  17.231  0.00  0.00    +0.000 S 
ATOM     28  C   UNL     1      48.980   8.000  16.331  0.00  0.00    +0.000 A 
ATOM     29  C   UNL     1      48.614   6.885  17.077  0.00  0.00    +0.000 A 
ATOM     30  C   UNL     1      48.376   7.270  18.468  0.00  0.00    +0.000 A 
BRANCH  22  32
ATOM     31  C   UNL     1      48.847   4.494  20.147  0.00  0.00    +0.000 C 
ATOM     32  O   UNL     1      47.747   5.242  19.633  0.00  0.00    +0.000 OA
ENDBRANCH  22  32
ENDBRANCH  18  29
ENDBRANCH   1  20
TORSDOF 8
ENDMDL
MODEL 4
REMARK VINA RESULT:    -6.931      2.595      3.308
REMARK INTER + INTRA:         -11.493
REMARK INTER:                 -10.433
REMARK INTRA:                  -1.060
REMARK UNBOUND:                -1.320
REMARK  Name = 
REMARK  9 active torsions:
REMARK  status: ('A' for Active; 'I' for Inactive)
REMARK    1  A    between atoms: C_1  and  O_2
REMARK    2  A    between atoms: O_2  and  C_3
REMARK    3  A    between atoms: C_10  and  C_11
REMARK    4  A    between atoms: N_13  and  C_14
REMARK    5  A    between atoms: C_14  and  C_15
REMARK    6  A    between atoms: C_18  and  C_19
REMARK    7  A    between atoms: C_19  and  N_20
REMARK    8  A    between atoms: N_20  and  C_21
REMARK    9  A    between atoms: C_21  and  C_22
REMARK                            x       y       z     vdW  Elec       q    Type
REMARK                         _______ _______ _______ _____ _____    ______ ____
ROOT
ATOM      1  C   UNL     1      48.303   7.496  13.540  0.00  0.00    +0.000 C 
ENDROOT
BRANCH   1   2
ATOM      2  C   UNL     1      47.276   6.555  12.960  0.00  0.00    +0.000 A 
ATOM      3  C   UNL     1      46.871   5.413  13.663  0.00  0.00    +0.000 A 
ATOM      4  C   UNL     1      45.933   4.531  13.111  0.00  0.00    +0.000 A 
ATOM      5  C   UNL     1      45.381   4.769  11.843  0.00  0.00    +0.000 A 
ATOM      6  C   UNL     1      45.803   5.903  11.135  0.00  0.00    +0.000 A 
ATOM      7  C   UNL     1      46.743   6.782  11.684  0.00  0.00    +0.000 A 
BRANCH   5   8
ATOM      8  C   UNL     1      44.372   3.810  11.243  0.00  0.00    +0.000 C 
BRANCH   8   9
ATOM      9  N   UNL     1      45.030   2.664  10.617  0.00  0.00    +0.000 NA
ATOM     10  H   UNL     1      44.856   1.836  11.186  0.00  0.00    +0.000 HD
BRANCH   9  11
ATOM     11  C   UNL     1      44.529   2.425   9.262  0.00  0.00    +0.000 C 
BRANCH  11  12
ATOM     12  C   UNL     1      45.659   2.333   8.271  0.00  0.00    +0.000 A 
ATOM     13  C   UNL     1      46.065   3.437   7.514  0.00  0.00    +0.000 A 
ATOM     14  C   UNL     1      47.125   3.315   6.618  0.00  0.00    +0.000 A 
ATOM     15  C   UNL     1      47.744   2.082   6.500  0.00  0.00    +0.000 A 
ATOM     16  N   UNL     1      47.373   0.987   7.197  0.00  0.00    +0.000 NA
ATOM     17  C   UNL     1      46.343   1.138   8.063  0.00  0.00    +0.000 A 
ENDBRANCH  11  12
ENDBRANCH   9  11
ENDBRANCH   8   9
ENDBRANCH   5   8
ENDBRANCH   1   2
BRANCH   1  20
ATOM     18  C   UNL     1      49.225   7.064  15.783  0.00  0.00    +0.000 C 
ATOM     19  O   UNL     1      48.496   7.920  16.283  0.00  0.00    +0.000 OA
ATOM     20  N   UNL     1      49.192   6.803  14.442  0.00  0.00    +0.000 N 
ATOM     21  H   UNL     1      49.832   6.132  14.038  0.00  0.00    +0.000 HD
BRANCH  18  29
ATOM     22  C   UNL     1      52.661   6.846  15.886  0.00  0.00    +0.000 A 
ATOM     23  N   UNL     1      53.957   6.577  16.143  0.00  0.00    +0.000 NA
ATOM     24  C   UNL     1      54.236   5.691  17.103  0.00  0.00    +0.000 A 
ATOM     25  N   UNL     1      53.365   5.023  17.853  0.00  0.00    +0.000 NA
ATOM     26  C   UNL     1      52.085   5.327  17.570  0.00  0.00    +0.000 A 
ATOM     27  S   UNL     1      50.838   4.566  18.433  0.00  0.00    +0.000 S 
ATOM     28  C   UNL     1      49.651   5.414  17.557  0.00  0.00    +0.000 A 
ATOM     29  C   UNL     1      50.168   6.286  16.605  0.00  0.00    +0.000 A 
ATOM     30  C   UNL     1      51.629   6.227  16.613  0.00  0.00    +0.000 A 
BRANCH  22  32
ATOM     31  C   UNL     1      53.513   8.103  14.112  0.00  0.00    +0.000 C 
ATOM     32  O   UNL     1      52.378   7.781  14.913  0.00  0.00    +0.000 OA
ENDBRANCH  22  32
ENDBRANCH  18  29
ENDBRANCH   1  20
TORSDOF 8
ENDMDL
MODEL 5
REMARK VINA RESULT:    -6.827      3.342      8.184
REMARK INTER + INTRA:         -11.340
REMARK INTER:                  -9.663
REMARK INTRA:                  -1.677
REMARK UNBOUND:                -1.320
REMARK  Name = 
REMARK  9 active torsions:
REMARK  status: ('A' for Active; 'I' for Inactive)
REMARK    1  A    between atoms: C_1  and  O_2
REMARK    2  A    between atoms: O_2  and  C_3
REMARK    3  A    between atoms: C_10  and  C_11
REMARK    4  A    between atoms: N_13  and  C_14
REMARK    5  A    between atoms: C_14  and  C_15
REMARK    6  A    between atoms: C_18  and  C_19
REMARK    7  A    between atoms: C_19  and  N_20
REMARK    8  A    between atoms: N_20  and  C_21
REMARK    9  A    between atoms: C_21  and  C_22
REMARK                            x       y       z     vdW  Elec       q    Type
REMARK                         _______ _______ _______ _____ _____    ______ ____
ROOT
ATOM      1  C   UNL     1      48.376   8.036  11.801  0.00  0.00    +0.000 C 
ENDROOT
BRANCH   1   2
ATOM      2  C   UNL     1      48.492   7.978  13.304  0.00  0.00    +0.000 A 
ATOM      3  C   UNL     1      47.871   8.942  14.109  0.00  0.00    +0.000 A 
ATOM      4  C   UNL     1      47.999   8.897  15.503  0.00  0.00    +0.000 A 
ATOM      5  C   UNL     1      48.753   7.890  16.124  0.00  0.00    +0.000 A 
ATOM      6  C   UNL     1      49.388   6.938  15.314  0.00  0.00    +0.000 A 
ATOM      7  C   UNL     1      49.264   6.985  13.921  0.00  0.00    +0.000 A 
BRANCH   5   8
ATOM      8  C   UNL     1      48.897   7.845  17.632  0.00  0.00    +0.000 C 
BRANCH   8   9
ATOM      9  N   UNL     1      47.724   7.244  18.265  0.00  0.00    +0.000 NA
ATOM     10  H   UNL     1      47.084   6.929  17.535  0.00  0.00    +0.000 HD
BRANCH   9  11
ATOM     11  C   UNL     1      48.087   6.103  19.106  0.00  0.00    +0.000 C 
BRANCH  11  12
ATOM     12  C   UNL     1      48.279   4.857  18.282  0.00  0.00    +0.000 A 
ATOM     13  C   UNL     1      49.524   4.227  18.180  0.00  0.00    +0.000 A 
ATOM     14  C   UNL     1      49.657   3.067  17.419  0.00  0.00    +0.000 A 
ATOM     15  C   UNL     1      48.536   2.576  16.772  0.00  0.00    +0.000 A 
ATOM     16  N   UNL     1      47.321   3.162  16.828  0.00  0.00    +0.000 NA
ATOM     17  C   UNL     1      47.221   4.284  17.579  0.00  0.00    +0.000 A 
ENDBRANCH  11  12
ENDBRANCH   9  11
ENDBRANCH   8   9
ENDBRANCH   5   8
ENDBRANCH   1   2
BRANCH   1  20
ATOM     18  C   UNL     1      46.268   6.908  11.207  0.00  0.00    +0.000 C 
ATOM     19  O   UNL     1      45.607   7.878  11.577  0.00  0.00    +0.000 OA
ATOM     20  N   UNL     1      47.632   6.908  11.293  0.00  0.00    +0.000 N 
ATOM     21  H   UNL     1      48.159   6.085  11.031  0.00  0.00    +0.000 HD
BRANCH  18  29
ATOM     22  C   UNL     1      44.457   4.343  12.623  0.00  0.00    +0.000 A 
ATOM     23  N   UNL     1      43.726   3.246  12.905  0.00  0.00    +0.000 NA
ATOM     24  C   UNL     1      43.401   2.431  11.897  0.00  0.00    +0.000 A 
ATOM     25  N   UNL     1      43.724   2.576  10.615  0.00  0.00    +0.000 NA
ATOM     26  C   UNL     1      44.445   3.687  10.377  0.00  0.00    +0.000 A 
ATOM     27  S   UNL     1      44.944   4.032   8.792  0.00  0.00    +0.000 S 
ATOM     28  C   UNL     1      45.723   5.457   9.298  0.00  0.00    +0.000 A 
ATOM     29  C   UNL     1      45.620   5.703  10.662  0.00  0.00    +0.000 A 
ATOM     30  C   UNL     1      44.856   4.636  11.307  0.00  0.00    +0.000 A 
BRANCH  22  32
ATOM     31  C   UNL     1      46.104   5.030  14.129  0.00  0.00    +0.000 C 
ATOM     32  O   UNL     1      44.766   5.195  13.662  0.00  0.00    +0.000 OA
ENDBRANCH  22  32
ENDBRANCH  18  29
ENDBRANCH   1  20
TORSDOF 8
ENDMDL
MODEL 6
REMARK VINA RESULT:    -6.804      4.637      9.328
REMARK INTER + INTRA:         -11.306
REMARK INTER:                 -10.305
REMARK INTRA:                  -1.001
REMARK UNBOUND:                -1.320
REMARK  Name = 
REMARK  9 active torsions:
REMARK  status: ('A' for Active; 'I' for Inactive)
REMARK    1  A    between atoms: C_1  and  O_2
REMARK    2  A    between atoms: O_2  and  C_3
REMARK    3  A    between atoms: C_10  and  C_11
REMARK    4  A    between atoms: N_13  and  C_14
REMARK    5  A    between atoms: C_14  and  C_15
REMARK    6  A    between atoms: C_18  and  C_19
REMARK    7  A    between atoms: C_19  and  N_20
REMARK    8  A    between atoms: N_20  and  C_21
REMARK    9  A    between atoms: C_21  and  C_22
REMARK                            x       y       z     vdW  Elec       q    Type
REMARK                         _______ _______ _______ _____ _____    ______ ____
ROOT
ATOM      1  C   UNL     1      47.277   3.262  16.798  0.00  0.00    +0.000 C 
ENDROOT
BRANCH   1   2
ATOM      2  C   UNL     1      48.743   3.312  17.148  0.00  0.00    +0.000 A 
ATOM      3  C   UNL     1      49.557   2.183  16.992  0.00  0.00    +0.000 A 
ATOM      4  C   UNL     1      50.914   2.228  17.339  0.00  0.00    +0.000 A 
ATOM      5  C   UNL     1      51.487   3.401  17.852  0.00  0.00    +0.000 A 
ATOM      6  C   UNL     1      50.664   4.523  18.024  0.00  0.00    +0.000 A 
ATOM      7  C   UNL     1      49.308   4.478  17.682  0.00  0.00    +0.000 A 
BRANCH   5   8
ATOM      8  C   UNL     1      52.952   3.447  18.234  0.00  0.00    +0.000 C 
BRANCH   8   9
ATOM      9  N   UNL     1      53.286   2.402  19.202  0.00  0.00    +0.000 NA
ATOM     10  H   UNL     1      52.665   1.607  19.052  0.00  0.00    +0.000 HD
BRANCH   9  11
ATOM     11  C   UNL     1      54.674   1.958  19.062  0.00  0.00    +0.000 C 
BRANCH  11  12
ATOM     12  C   UNL     1      54.757   0.667  18.290  0.00  0.00    +0.000 A 
ATOM     13  C   UNL     1      54.528   0.619  16.911  0.00  0.00    +0.000 A 
ATOM     14  C   UNL     1      54.630  -0.593  16.231  0.00  0.00    +0.000 A 
ATOM     15  C   UNL     1      54.950  -1.727  16.957  0.00  0.00    +0.000 A 
ATOM     16  N   UNL     1      55.160  -1.729  18.291  0.00  0.00    +0.000 NA
ATOM     17  C   UNL     1      55.059  -0.536  18.924  0.00  0.00    +0.000 A 
ENDBRANCH  11  12
ENDBRANCH   9  11
ENDBRANCH   8   9
ENDBRANCH   5   8
ENDBRANCH   1   2
BRANCH   1  20
ATOM     18  C   UNL     1      46.921   4.158  14.531  0.00  0.00    +0.000 C 
ATOM     19  O   UNL     1      47.237   3.083  14.022  0.00  0.00    +0.000 OA
ATOM     20  N   UNL     1      46.922   4.325  15.888  0.00  0.00    +0.000 N 
ATOM     21  H   UNL     1      46.708   5.228  16.290  0.00  0.00    +0.000 HD
BRANCH  18  29
ATOM     22  C   UNL     1      44.194   4.831  12.537  0.00  0.00    +0.000 A 
ATOM     23  N   UNL     1      43.259   5.349  11.716  0.00  0.00    +0.000 NA
ATOM     24  C   UNL     1      43.469   6.568  11.212  0.00  0.00    +0.000 A 
ATOM     25  N   UNL     1      44.522   7.352  11.427  0.00  0.00    +0.000 NA
ATOM     26  C   UNL     1      45.426   6.801  12.257  0.00  0.00    +0.000 A 
ATOM     27  S   UNL     1      46.836   7.663  12.644  0.00  0.00    +0.000 S 
ATOM     28  C   UNL     1      47.392   6.401  13.639  0.00  0.00    +0.000 A 
ATOM     29  C   UNL     1      46.530   5.312  13.704  0.00  0.00    +0.000 A 
ATOM     30  C   UNL     1      45.354   5.554  12.870  0.00  0.00    +0.000 A 
BRANCH  22  32
ATOM     31  C   UNL     1      43.492   2.646  12.110  0.00  0.00    +0.000 C 
ATOM     32  O   UNL     1      43.960   3.585  13.077  0.00  0.00    +0.000 OA
ENDBRANCH  22  32
ENDBRANCH  18  29
ENDBRANCH   1  20
TORSDOF 8
ENDMDL
MODEL 7
REMARK VINA RESULT:    -6.721      2.055      2.459
REMARK INTER + INTRA:         -11.184
REMARK INTER:                 -10.285
REMARK INTRA:                  -0.899
REMARK UNBOUND:                -1.320
REMARK  Name = 
REMARK  9 active torsions:
REMARK  status: ('A' for Active; 'I' for Inactive)
REMARK    1  A    between atoms: C_1  and  O_2
REMARK    2  A    between atoms: O_2  and  C_3
REMARK    3  A    between atoms: C_10  and  C_11
REMARK    4  A    between atoms: N_13  and  C_14
REMARK    5  A    between atoms: C_14  and  C_15
REMARK    6  A    between atoms: C_18  and  C_19
REMARK    7  A    between atoms: C_19  and  N_20
REMARK    8  A    between atoms: N_20  and  C_21
REMARK    9  A    between atoms: C_21  and  C_22
REMARK                            x       y       z     vdW  Elec       q    Type
REMARK                         _______ _______ _______ _____ _____    ______ ____
ROOT
ATOM      1  C   UNL     1      47.860   8.546  14.286  0.00  0.00    +0.000 C 
ENDROOT
BRANCH   1   2
ATOM      2  C   UNL     1      47.098   7.609  13.383  0.00  0.00    +0.000 A 
ATOM      3  C   UNL     1      46.132   8.097  12.494  0.00  0.00    +0.000 A 
ATOM      4  C   UNL     1      45.411   7.221  11.672  0.00  0.00    +0.000 A 
ATOM      5  C   UNL     1      45.638   5.838  11.722  0.00  0.00    +0.000 A 
ATOM      6  C   UNL     1      46.592   5.351  12.626  0.00  0.00    +0.000 A 
ATOM      7  C   UNL     1      47.309   6.226  13.450  0.00  0.00    +0.000 A 
BRANCH   5   8
ATOM      8  C   UNL     1      44.853   4.890  10.838  0.00  0.00    +0.000 C 
BRANCH   8   9
ATOM      9  N   UNL     1      45.178   5.082   9.425  0.00  0.00    +0.000 NA
ATOM     10  H   UNL     1      46.193   5.076   9.319  0.00  0.00    +0.000 HD
BRANCH   9  11
ATOM     11  C   UNL     1      44.605   4.026   8.589  0.00  0.00    +0.000 C 
BRANCH  11  12
ATOM     12  C   UNL     1      45.678   3.121   8.042  0.00  0.00    +0.000 A 
ATOM     13  C   UNL     1      45.750   1.769   8.395  0.00  0.00    +0.000 A 
ATOM     14  C   UNL     1      46.749   0.962   7.856  0.00  0.00    +0.000 A 
ATOM     15  C   UNL     1      47.657   1.536   6.983  0.00  0.00    +0.000 A 
ATOM     16  N   UNL     1      47.635   2.840   6.631  0.00  0.00    +0.000 NA
ATOM     17  C   UNL     1      46.651   3.598   7.167  0.00  0.00    +0.000 A 
ENDBRANCH  11  12
ENDBRANCH   9  11
ENDBRANCH   8   9
ENDBRANCH   5   8
ENDBRANCH   1   2
BRANCH   1  20
ATOM     18  C   UNL     1      50.151   7.793  14.791  0.00  0.00    +0.000 C 
ATOM     19  O   UNL     1      50.594   8.371  13.798  0.00  0.00    +0.000 OA
ATOM     20  N   UNL     1      48.818   7.828  15.093  0.00  0.00    +0.000 N 
ATOM     21  H   UNL     1      48.461   7.308  15.884  0.00  0.00    +0.000 HD
BRANCH  18  29
ATOM     22  C   UNL     1      49.608   5.270  17.071  0.00  0.00    +0.000 A 
ATOM     23  N   UNL     1      49.682   4.296  18.000  0.00  0.00    +0.000 NA
ATOM     24  C   UNL     1      50.879   4.016  18.524  0.00  0.00    +0.000 A 
ATOM     25  N   UNL     1      52.037   4.602  18.232  0.00  0.00    +0.000 NA
ATOM     26  C   UNL     1      51.919   5.561  17.296  0.00  0.00    +0.000 A 
ATOM     27  S   UNL     1      53.300   6.415  16.801  0.00  0.00    +0.000 S 
ATOM     28  C   UNL     1      52.388   7.349  15.710  0.00  0.00    +0.000 A 
ATOM     29  C   UNL     1      51.034   7.036  15.694  0.00  0.00    +0.000 A 
ATOM     30  C   UNL     1      50.756   5.965  16.650  0.00  0.00    +0.000 A 
BRANCH  22  32
ATOM     31  C   UNL     1      47.495   4.416  16.564  0.00  0.00    +0.000 C 
ATOM     32  O   UNL     1      48.376   5.537  16.514  0.00  0.00    +0.000 OA
ENDBRANCH  22  32
ENDBRANCH  18  29
ENDBRANCH   1  20
TORSDOF 8
ENDMDL
MODEL 8
REMARK VINA RESULT:    -6.600      3.524      4.394
REMARK INTER + INTRA:         -11.007
REMARK INTER:                  -9.729
REMARK INTRA:                  -1.278
REMARK UNBOUND:                -1.320
REMARK  Name = 
REMARK  9 active torsions:
REMARK  status: ('A' for Active; 'I' for Inactive)
REMARK    1  A    between atoms: C_1  and  O_2
REMARK    2  A    between atoms: O_2  and  C_3
REMARK    3  A    between atoms: C_10  and  C_11
REMARK    4  A    between atoms: N_13  and  C_14
REMARK    5  A    between atoms: C_14  and  C_15
REMARK    6  A    between atoms: C_18  and  C_19
REMARK    7  A    between atoms: C_19  and  N_20
REMARK    8  A    between atoms: N_20  and  C_21
REMARK    9  A    between atoms: C_21  and  C_22
REMARK                            x       y       z     vdW  Elec       q    Type
REMARK                         _______ _______ _______ _____ _____    ______ ____
ROOT
ATOM      1  C   UNL     1      46.738   8.336  13.273  0.00  0.00    +0.000 C 
ENDROOT
BRANCH   1   2
ATOM      2  C   UNL     1      46.041   7.141  12.671  0.00  0.00    +0.000 A 
ATOM      3  C   UNL     1      44.914   7.305  11.854  0.00  0.00    +0.000 A 
ATOM      4  C   UNL     1      44.257   6.191  11.315  0.00  0.00    +0.000 A 
ATOM      5  C   UNL     1      44.710   4.891  11.580  0.00  0.00    +0.000 A 
ATOM      6  C   UNL     1      45.826   4.731  12.413  0.00  0.00    +0.000 A 
ATOM      7  C   UNL     1      46.480   5.842  12.956  0.00  0.00    +0.000 A 
BRANCH   5   8
ATOM      8  C   UNL     1      43.994   3.686  11.002  0.00  0.00    +0.000 C 
BRANCH   8   9
ATOM      9  N   UNL     1      44.940   2.651  10.585  0.00  0.00    +0.000 NA
ATOM     10  H   UNL     1      44.934   1.904  11.279  0.00  0.00    +0.000 HD
BRANCH   9  11
ATOM     11  C   UNL     1      44.590   2.092   9.278  0.00  0.00    +0.000 C 
BRANCH  11  12
ATOM     12  C   UNL     1      45.742   2.196   8.314  0.00  0.00    +0.000 A 
ATOM     13  C   UNL     1      46.080   3.408   7.701  0.00  0.00    +0.000 A 
ATOM     14  C   UNL     1      47.162   3.466   6.826  0.00  0.00    +0.000 A 
ATOM     15  C   UNL     1      47.872   2.303   6.582  0.00  0.00    +0.000 A 
ATOM     16  N   UNL     1      47.568   1.110   7.137  0.00  0.00    +0.000 NA
ATOM     17  C   UNL     1      46.515   1.085   7.986  0.00  0.00    +0.000 A 
ENDBRANCH  11  12
ENDBRANCH   9  11
ENDBRANCH   8   9
ENDBRANCH   5   8
ENDBRANCH   1   2
BRANCH   1  20
ATOM     18  C   UNL     1      48.931   8.971  12.349  0.00  0.00    +0.000 C 
ATOM     19  O   UNL     1      48.414   9.815  11.617  0.00  0.00    +0.000 OA
ATOM     20  N   UNL     1      48.172   8.201  13.185  0.00  0.00    +0.000 N 
ATOM     21  H   UNL     1      48.605   7.477  13.744  0.00  0.00    +0.000 HD
BRANCH  18  29
ATOM     22  C   UNL     1      51.249   8.500  14.852  0.00  0.00    +0.000 A 
ATOM     23  N   UNL     1      52.343   8.290  15.612  0.00  0.00    +0.000 NA
ATOM     24  C   UNL     1      53.519   8.146  14.996  0.00  0.00    +0.000 A 
ATOM     25  N   UNL     1      53.747   8.190  13.686  0.00  0.00    +0.000 NA
ATOM     26  C   UNL     1      52.629   8.393  12.965  0.00  0.00    +0.000 A 
ATOM     27  S   UNL     1      52.733   8.476  11.273  0.00  0.00    +0.000 S 
ATOM     28  C   UNL     1      51.057   8.728  11.135  0.00  0.00    +0.000 A 
ATOM     29  C   UNL     1      50.387   8.749  12.353  0.00  0.00    +0.000 A 
ATOM     30  C   UNL     1      51.335   8.552  13.450  0.00  0.00    +0.000 A 
BRANCH  22  32
ATOM     31  C   UNL     1      49.779   9.949  15.943  0.00  0.00    +0.000 C 
ATOM     32  O   UNL     1      50.034   8.620  15.491  0.00  0.00    +0.000 OA
ENDBRANCH  22  32
ENDBRANCH  18  29
ENDBRANCH   1  20
TORSDOF 8
ENDMDL
MODEL 9
REMARK VINA RESULT:    -6.318      1.554      2.086
REMARK INTER + INTRA:         -10.594
REMARK INTER:                  -9.415
REMARK INTRA:                  -1.179
REMARK UNBOUND:                -1.320
REMARK  Name = 
REMARK  9 active torsions:
REMARK  status: ('A' for Active; 'I' for Inactive)
REMARK    1  A    between atoms: C_1  and  O_2
REMARK    2  A    between atoms: O_2  and  C_3
REMARK    3  A    between atoms: C_10  and  C_11
REMARK    4  A    between atoms: N_13  and  C_14
REMARK    5  A    between atoms: C_14  and  C_15
REMARK    6  A    between atoms: C_18  and  C_19
REMARK    7  A    between atoms: C_19  and  N_20
REMARK    8  A    between atoms: N_20  and  C_21
REMARK    9  A    between atoms: C_21  and  C_22
REMARK                            x       y       z     vdW  Elec       q    Type
REMARK                         _______ _______ _______ _____ _____    ______ ____
ROOT
ATOM      1  C   UNL     1      47.848   8.773  14.203  0.00  0.00    +0.000 C 
ENDROOT
BRANCH   1   2
ATOM      2  C   UNL     1      47.237   7.517  13.631  0.00  0.00    +0.000 A 
ATOM      3  C   UNL     1      46.102   7.580  12.812  0.00  0.00    +0.000 A 
ATOM      4  C   UNL     1      45.526   6.410  12.301  0.00  0.00    +0.000 A 
ATOM      5  C   UNL     1      46.069   5.151  12.599  0.00  0.00    +0.000 A 
ATOM      6  C   UNL     1      47.193   5.092  13.434  0.00  0.00    +0.000 A 
ATOM      7  C   UNL     1      47.767   6.260  13.949  0.00  0.00    +0.000 A 
BRANCH   5   8
ATOM      8  C   UNL     1      45.441   3.885  12.052  0.00  0.00    +0.000 C 
BRANCH   8   9
ATOM      9  N   UNL     1      44.194   4.170  11.342  0.00  0.00    +0.000 NA
ATOM     10  H   UNL     1      44.280   5.075  10.879  0.00  0.00    +0.000 HD
BRANCH   9  11
ATOM     11  C   UNL     1      43.897   3.147  10.337  0.00  0.00    +0.000 C 
BRANCH  11  12
ATOM     12  C   UNL     1      44.929   3.147   9.239  0.00  0.00    +0.000 A 
ATOM     13  C   UNL     1      45.544   1.966   8.809  0.00  0.00    +0.000 A 
ATOM     14  C   UNL     1      46.482   2.006   7.780  0.00  0.00    +0.000 A 
ATOM     15  C   UNL     1      46.784   3.234   7.216  0.00  0.00    +0.000 A 
ATOM     16  N   UNL     1      46.229   4.398   7.614  0.00  0.00    +0.000 NA
ATOM     17  C   UNL     1      45.318   4.328   8.612  0.00  0.00    +0.000 A 
ENDBRANCH  11  12
ENDBRANCH   9  11
ENDBRANCH   8   9
ENDBRANCH   5   8
ENDBRANCH   1   2
BRANCH   1  20
ATOM     18  C   UNL     1      49.068   8.850  16.341  0.00  0.00    +0.000 C 
ATOM     19  O   UNL     1      50.141   9.013  15.759  0.00  0.00    +0.000 OA
ATOM     20  N   UNL     1      47.900   8.718  15.644  0.00  0.00    +0.000 N 
ATOM     21  H   UNL     1      47.033   8.535  16.133  0.00  0.00    +0.000 HD
BRANCH  18  29
ATOM     22  C   UNL     1      48.147   6.387  18.565  0.00  0.00    +0.000 A 
ATOM     23  N   UNL     1      47.856   5.621  19.635  0.00  0.00    +0.000 NA
ATOM     24  C   UNL     1      47.992   6.159  20.850  0.00  0.00    +0.000 A 
ATOM     25  N   UNL     1      48.389   7.395  21.137  0.00  0.00    +0.000 NA
ATOM     26  C   UNL     1      48.677   8.123  20.043  0.00  0.00    +0.000 A 
ATOM     27  S   UNL     1      49.201   9.727  20.223  0.00  0.00    +0.000 S 
ATOM     28  C   UNL     1      49.336   9.921  18.539  0.00  0.00    +0.000 A 
ATOM     29  C   UNL     1      48.995   8.787  17.810  0.00  0.00    +0.000 A 
ATOM     30  C   UNL     1      48.597   7.711  18.717  0.00  0.00    +0.000 A 
BRANCH  22  32
ATOM     31  C   UNL     1      48.183   4.401  17.338  0.00  0.00    +0.000 C 
ATOM     32  O   UNL     1      48.031   5.819  17.315  0.00  0.00    +0.000 OA
ENDBRANCH  22  32
ENDBRANCH  18  29
ENDBRANCH   1  20
TORSDOF 8
ENDMDL
