MODEL 1
REMARK VINA RESULT:    -8.863      0.000      0.000
REMARK INTER + INTRA:         -11.547
REMARK INTER:                 -11.195
REMARK INTRA:                  -0.352
REMARK UNBOUND:                -0.352
REMARK  Name = 
REMARK  6 active torsions:
REMARK  status: ('A' for Active; 'I' for Inactive)
REMARK    1  A    between atoms: C_1  and  C_2
REMARK    2  A    between atoms: C_4  and  C_5
REMARK    3  A    between atoms: C_5  and  N_6
REMARK    4  A    between atoms: N_6  and  C_7
REMARK    5  A    between atoms: C_10  and  C_11
REMARK    6  A    between atoms: C_18  and  N_19
REMARK                            x       y       z     vdW  Elec       q    Type
REMARK                         _______ _______ _______ _____ _____    ______ ____
ROOT
ATOM      1  N   UNL     1      43.861   5.019   9.883  0.00  0.00    +0.000 N 
ATOM      2  H   UNL     1      44.190   5.961   9.685  0.00  0.00    +0.000 HD
ENDROOT
BRANCH   1   3
ATOM      3  C   UNL     1      44.679   4.133   9.175  0.00  0.00    +0.000 A 
ATOM      4  N   UNL     1      45.550   4.702   8.322  0.00  0.00    +0.000 NA
ATOM      5  C   UNL     1      46.390   3.891   7.618  0.00  0.00    +0.000 A 
ATOM      6  C   UNL     1      46.426   2.506   7.750  0.00  0.00    +0.000 A 
ATOM      7  C   UNL     1      45.551   1.927   8.655  0.00  0.00    +0.000 A 
ATOM      8  C   UNL     1      44.688   2.744   9.376  0.00  0.00    +0.000 A 
ATOM      9  F   UNL     1      43.874   2.158  10.266  0.00  0.00    +0.000 F 
BRANCH   6  10
ATOM     10  C   UNL     1      47.399   1.734   6.943  0.00  0.00    +0.000 C 
ATOM     11  N   UNL     1      48.503   2.381   6.459  0.00  0.00    +0.000 N 
ATOM     12  O   UNL     1      47.223   0.547   6.705  0.00  0.00    +0.000 OA
ATOM     13  H   UNL     1      48.732   3.353   6.596  0.00  0.00    +0.000 HD
ATOM     14  H   UNL     1      49.142   1.829   5.900  0.00  0.00    +0.000 HD
ENDBRANCH   6  10
ENDBRANCH   1   3
BRANCH   1  15
ATOM     15  C   UNL     1      43.785   4.810  11.326  0.00  0.00    +0.000 C 
BRANCH  15  19
ATOM     16  C   UNL     1      48.054   7.358  12.217  0.00  0.00    +0.000 C 
ATOM     17  C   UNL     1      47.144   6.190  12.452  0.00  0.00    +0.000 A 
ATOM     18  C   UNL     1      45.936   6.090  11.771  0.00  0.00    +0.000 A 
ATOM     19  C   UNL     1      45.131   4.969  11.981  0.00  0.00    +0.000 A 
ATOM     20  C   UNL     1      45.565   4.011  12.904  0.00  0.00    +0.000 A 
ATOM     21  C   UNL     1      46.772   4.196  13.558  0.00  0.00    +0.000 A 
ATOM     22  N   UNL     1      47.563   5.257  13.343  0.00  0.00    +0.000 NA
BRANCH  21  23
ATOM     23  N   UNL     1      47.240   3.231  14.448  0.00  0.00    +0.000 N 
ATOM     24  H   UNL     1      46.771   3.281  15.344  0.00  0.00    +0.000 HD
ATOM     25  H   UNL     1      48.244   3.375  14.531  0.00  0.00    +0.000 HD
ENDBRANCH  21  23
ENDBRANCH  15  19
ENDBRANCH   1  15
TORSDOF 5
ENDMDL
MODEL 2
REMARK VINA RESULT:    -8.383      1.816      2.371
REMARK INTER + INTRA:         -10.940
REMARK INTER:                 -10.486
REMARK INTRA:                  -0.454
REMARK UNBOUND:                -0.352
REMARK  Name = 
REMARK  6 active torsions:
REMARK  status: ('A' for Active; 'I' for Inactive)
REMARK    1  A    between atoms: C_1  and  C_2
REMARK    2  A    between atoms: C_4  and  C_5
REMARK    3  A    between atoms: C_5  and  N_6
REMARK    4  A    between atoms: N_6  and  C_7
REMARK    5  A    between atoms: C_10  and  C_11
REMARK    6  A    between atoms: C_18  and  N_19
REMARK                            x       y       z     vdW  Elec       q    Type
REMARK                         _______ _______ _______ _____ _____    ______ ____
ROOT
ATOM      1  N   UNL     1      44.051   5.087   9.881  0.00  0.00    +0.000 N 
ATOM      2  H   UNL     1      44.162   6.008   9.463  0.00  0.00    +0.000 HD
ENDROOT
BRANCH   1   3
ATOM      3  C   UNL     1      44.832   4.195   9.139  0.00  0.00    +0.000 A 
ATOM      4  N   UNL     1      45.726   4.760   8.306  0.00  0.00    +0.000 NA
ATOM      5  C   UNL     1      46.532   3.942   7.572  0.00  0.00    +0.000 A 
ATOM      6  C   UNL     1      46.514   2.553   7.653  0.00  0.00    +0.000 A 
ATOM      7  C   UNL     1      45.616   1.977   8.538  0.00  0.00    +0.000 A 
ATOM      8  C   UNL     1      44.787   2.801   9.289  0.00  0.00    +0.000 A 
ATOM      9  F   UNL     1      43.950   2.215  10.159  0.00  0.00    +0.000 F 
BRANCH   6  10
ATOM     10  C   UNL     1      47.455   1.773   6.818  0.00  0.00    +0.000 C 
ATOM     11  N   UNL     1      48.566   2.402   6.327  0.00  0.00    +0.000 N 
ATOM     12  O   UNL     1      47.248   0.594   6.563  0.00  0.00    +0.000 OA
ATOM     13  H   UNL     1      48.820   3.366   6.476  0.00  0.00    +0.000 HD
ATOM     14  H   UNL     1      49.183   1.846   5.748  0.00  0.00    +0.000 HD
ENDBRANCH   6  10
ENDBRANCH   1   3
BRANCH   1  15
ATOM     15  C   UNL     1      44.330   5.150  11.311  0.00  0.00    +0.000 C 
BRANCH  15  19
ATOM     16  C   UNL     1      48.770   7.488  11.889  0.00  0.00    +0.000 C 
ATOM     17  C   UNL     1      47.270   7.488  11.894  0.00  0.00    +0.000 A 
ATOM     18  C   UNL     1      46.565   6.326  11.607  0.00  0.00    +0.000 A 
ATOM     19  C   UNL     1      45.170   6.350  11.661  0.00  0.00    +0.000 A 
ATOM     20  C   UNL     1      44.544   7.563  11.966  0.00  0.00    +0.000 A 
ATOM     21  C   UNL     1      45.319   8.683  12.218  0.00  0.00    +0.000 A 
ATOM     22  N   UNL     1      46.660   8.663  12.193  0.00  0.00    +0.000 NA
BRANCH  21  23
ATOM     23  N   UNL     1      44.714   9.889  12.566  0.00  0.00    +0.000 N 
ATOM     24  H   UNL     1      45.107  10.282  13.412  0.00  0.00    +0.000 HD
ATOM     25  H   UNL     1      43.719   9.700  12.656  0.00  0.00    +0.000 HD
ENDBRANCH  21  23
ENDBRANCH  15  19
ENDBRANCH   1  15
TORSDOF 5
ENDMDL
MODEL 3
REMARK VINA RESULT:    -8.034      1.185      2.044
REMARK INTER + INTRA:         -10.499
REMARK INTER:                 -10.255
REMARK INTRA:                  -0.244
REMARK UNBOUND:                -0.352
REMARK  Name = 
REMARK  6 active torsions:
REMARK  status: ('A' for Active; 'I' for Inactive)
REMARK    1  A    between atoms: C_1  and  C_2
REMARK    2  A    between atoms: C_4  and  C_5
REMARK    3  A    between atoms: C_5  and  N_6
REMARK    4  A    between atoms: N_6  and  C_7
REMARK    5  A    between atoms: C_10  and  C_11
REMARK    6  A    between atoms: C_18  and  N_19
REMARK                            x       y       z     vdW  Elec       q    Type
REMARK                         _______ _______ _______ _____ _____    ______ ____
ROOT
ATOM      1  N   UNL     1      44.112   5.196   9.796  0.00  0.00    +0.000 N 
ATOM      2  H   UNL     1      44.644   6.033   9.567  0.00  0.00    +0.000 HD
ENDROOT
BRANCH   1   3
ATOM      3  C   UNL     1      44.772   4.109   9.214  0.00  0.00    +0.000 A 
ATOM      4  N   UNL     1      45.719   4.419   8.310  0.00  0.00    +0.000 NA
ATOM      5  C   UNL     1      46.412   3.403   7.724  0.00  0.00    +0.000 A 
ATOM      6  C   UNL     1      46.225   2.057   8.026  0.00  0.00    +0.000 A 
ATOM      7  C   UNL     1      45.273   1.744   8.983  0.00  0.00    +0.000 A 
ATOM      8  C   UNL     1      44.558   2.772   9.585  0.00  0.00    +0.000 A 
ATOM      9  F   UNL     1      43.665   2.440  10.529  0.00  0.00    +0.000 F 
BRANCH   6  10
ATOM     10  C   UNL     1      47.056   1.045   7.335  0.00  0.00    +0.000 C 
ATOM     11  N   UNL     1      46.818  -0.278   7.590  0.00  0.00    +0.000 N 
ATOM     12  O   UNL     1      47.940   1.376   6.557  0.00  0.00    +0.000 OA
ATOM     13  H   UNL     1      46.119  -0.648   8.215  0.00  0.00    +0.000 HD
ATOM     14  H   UNL     1      47.411  -0.945   7.112  0.00  0.00    +0.000 HD
ENDBRANCH   6  10
ENDBRANCH   1   3
BRANCH   1  15
ATOM     15  C   UNL     1      43.897   5.120  11.237  0.00  0.00    +0.000 C 
BRANCH  15  19
ATOM     16  C   UNL     1      47.103   4.389  15.072  0.00  0.00    +0.000 C 
ATOM     17  C   UNL     1      46.711   5.068  13.794  0.00  0.00    +0.000 A 
ATOM     18  C   UNL     1      45.509   4.756  13.170  0.00  0.00    +0.000 A 
ATOM     19  C   UNL     1      45.154   5.437  12.004  0.00  0.00    +0.000 A 
ATOM     20  C   UNL     1      46.052   6.380  11.494  0.00  0.00    +0.000 A 
ATOM     21  C   UNL     1      47.241   6.618  12.164  0.00  0.00    +0.000 A 
ATOM     22  N   UNL     1      47.578   5.987  13.299  0.00  0.00    +0.000 NA
BRANCH  21  23
ATOM     23  N   UNL     1      48.128   7.586  11.695  0.00  0.00    +0.000 N 
ATOM     24  H   UNL     1      48.080   8.440  12.236  0.00  0.00    +0.000 HD
ATOM     25  H   UNL     1      47.901   7.737  10.715  0.00  0.00    +0.000 HD
ENDBRANCH  21  23
ENDBRANCH  15  19
ENDBRANCH   1  15
TORSDOF 5
ENDMDL
MODEL 4
REMARK VINA RESULT:    -6.542      3.806      5.303
REMARK INTER + INTRA:          -8.615
REMARK INTER:                  -8.277
REMARK INTRA:                  -0.338
REMARK UNBOUND:                -0.352
REMARK  Name = 
REMARK  6 active torsions:
REMARK  status: ('A' for Active; 'I' for Inactive)
REMARK    1  A    between atoms: C_1  and  C_2
REMARK    2  A    between atoms: C_4  and  C_5
REMARK    3  A    between atoms: C_5  and  N_6
REMARK    4  A    between atoms: N_6  and  C_7
REMARK    5  A    between atoms: C_10  and  C_11
REMARK    6  A    between atoms: C_18  and  N_19
REMARK                            x       y       z     vdW  Elec       q    Type
REMARK                         _______ _______ _______ _____ _____    ______ ____
ROOT
ATOM      1  N   UNL     1      46.985   5.301  14.539  0.00  0.00    +0.000 N 
ATOM      2  H   UNL     1      47.888   5.707  14.305  0.00  0.00    +0.000 HD
ENDROOT
BRANCH   1   3
ATOM      3  C   UNL     1      46.355   4.959  13.338  0.00  0.00    +0.000 A 
ATOM      4  N   UNL     1      45.890   3.698  13.263  0.00  0.00    +0.000 NA
ATOM      5  C   UNL     1      45.248   3.312  12.125  0.00  0.00    +0.000 A 
ATOM      6  C   UNL     1      45.011   4.153  11.041  0.00  0.00    +0.000 A 
ATOM      7  C   UNL     1      45.461   5.460  11.136  0.00  0.00    +0.000 A 
ATOM      8  C   UNL     1      46.120   5.863  12.291  0.00  0.00    +0.000 A 
ATOM      9  F   UNL     1      46.517   7.143  12.366  0.00  0.00    +0.000 F 
BRANCH   6  10
ATOM     10  C   UNL     1      44.283   3.620   9.867  0.00  0.00    +0.000 C 
ATOM     11  N   UNL     1      44.066   4.451   8.802  0.00  0.00    +0.000 N 
ATOM     12  O   UNL     1      43.876   2.467   9.844  0.00  0.00    +0.000 OA
ATOM     13  H   UNL     1      44.356   5.414   8.729  0.00  0.00    +0.000 HD
ATOM     14  H   UNL     1      43.553   4.062   8.021  0.00  0.00    +0.000 HD
ENDBRANCH   6  10
ENDBRANCH   1   3
BRANCH   1  15
ATOM     15  C   UNL     1      47.159   4.219  15.503  0.00  0.00    +0.000 C 
BRANCH  15  19
ATOM     16  C   UNL     1      50.233   7.442  17.885  0.00  0.00    +0.000 C 
ATOM     17  C   UNL     1      49.373   6.214  17.863  0.00  0.00    +0.000 A 
ATOM     18  C   UNL     1      48.710   5.838  16.701  0.00  0.00    +0.000 A 
ATOM     19  C   UNL     1      47.951   4.667  16.703  0.00  0.00    +0.000 A 
ATOM     20  C   UNL     1      47.862   3.942  17.896  0.00  0.00    +0.000 A 
ATOM     21  C   UNL     1      48.536   4.396  19.018  0.00  0.00    +0.000 A 
ATOM     22  N   UNL     1      49.288   5.507  19.018  0.00  0.00    +0.000 NA
BRANCH  21  23
ATOM     23  N   UNL     1      48.494   3.664  20.203  0.00  0.00    +0.000 N 
ATOM     24  H   UNL     1      47.614   3.778  20.690  0.00  0.00    +0.000 HD
ATOM     25  H   UNL     1      49.286   3.971  20.763  0.00  0.00    +0.000 HD
ENDBRANCH  21  23
ENDBRANCH  15  19
ENDBRANCH   1  15
TORSDOF 5
ENDMDL
MODEL 5
REMARK VINA RESULT:    -6.504      3.854      5.633
REMARK INTER + INTRA:          -8.567
REMARK INTER:                  -8.211
REMARK INTRA:                  -0.357
REMARK UNBOUND:                -0.352
REMARK  Name = 
REMARK  6 active torsions:
REMARK  status: ('A' for Active; 'I' for Inactive)
REMARK    1  A    between atoms: C_1  and  C_2
REMARK    2  A    between atoms: C_4  and  C_5
REMARK    3  A    between atoms: C_5  and  N_6
REMARK    4  A    between atoms: N_6  and  C_7
REMARK    5  A    between atoms: C_10  and  C_11
REMARK    6  A    between atoms: C_18  and  N_19
REMARK                            x       y       z     vdW  Elec       q    Type
REMARK                         _______ _______ _______ _____ _____    ______ ____
ROOT
ATOM      1  N   UNL     1      47.112   5.142  15.054  0.00  0.00    +0.000 N 
ATOM      2  H   UNL     1      48.057   5.433  14.812  0.00  0.00    +0.000 HD
ENDROOT
BRANCH   1   3
ATOM      3  C   UNL     1      46.432   4.894  13.857  0.00  0.00    +0.000 A 
ATOM      4  N   UNL     1      46.117   3.606  13.625  0.00  0.00    +0.000 NA
ATOM      5  C   UNL     1      45.434   3.303  12.485  0.00  0.00    +0.000 A 
ATOM      6  C   UNL     1      45.011   4.249  11.556  0.00  0.00    +0.000 A 
ATOM      7  C   UNL     1      45.308   5.577  11.816  0.00  0.00    +0.000 A 
ATOM      8  C   UNL     1      46.007   5.897  12.974  0.00  0.00    +0.000 A 
ATOM      9  F   UNL     1      46.252   7.194  13.214  0.00  0.00    +0.000 F 
BRANCH   6  10
ATOM     10  C   UNL     1      44.258   3.796  10.364  0.00  0.00    +0.000 C 
ATOM     11  N   UNL     1      44.050   4.687   9.347  0.00  0.00    +0.000 N 
ATOM     12  O   UNL     1      43.824   2.655  10.285  0.00  0.00    +0.000 OA
ATOM     13  H   UNL     1      44.362   5.645   9.321  0.00  0.00    +0.000 HD
ATOM     14  H   UNL     1      43.520   4.352   8.552  0.00  0.00    +0.000 HD
ENDBRANCH   6  10
ENDBRANCH   1   3
BRANCH   1  15
ATOM     15  C   UNL     1      47.158   4.039  16.008  0.00  0.00    +0.000 C 
BRANCH  15  19
ATOM     16  C   UNL     1      51.228   5.949  18.311  0.00  0.00    +0.000 C 
ATOM     17  C   UNL     1      50.439   4.791  17.775  0.00  0.00    +0.000 A 
ATOM     18  C   UNL     1      49.209   5.000  17.162  0.00  0.00    +0.000 A 
ATOM     19  C   UNL     1      48.519   3.906  16.638  0.00  0.00    +0.000 A 
ATOM     20  C   UNL     1      49.086   2.636  16.790  0.00  0.00    +0.000 A 
ATOM     21  C   UNL     1      50.306   2.510  17.432  0.00  0.00    +0.000 A 
ATOM     22  N   UNL     1      50.988   3.559  17.917  0.00  0.00    +0.000 NA
BRANCH  21  23
ATOM     23  N   UNL     1      50.907   1.258  17.555  0.00  0.00    +0.000 N 
ATOM     24  H   UNL     1      50.370   0.635  18.145  0.00  0.00    +0.000 HD
ATOM     25  H   UNL     1      51.844   1.419  17.916  0.00  0.00    +0.000 HD
ENDBRANCH  21  23
ENDBRANCH  15  19
ENDBRANCH   1  15
TORSDOF 5
ENDMDL
MODEL 6
REMARK VINA RESULT:    -6.426      3.865      7.006
REMARK INTER + INTRA:          -8.468
REMARK INTER:                  -7.811
REMARK INTRA:                  -0.657
REMARK UNBOUND:                -0.352
REMARK  Name = 
REMARK  6 active torsions:
REMARK  status: ('A' for Active; 'I' for Inactive)
REMARK    1  A    between atoms: C_1  and  C_2
REMARK    2  A    between atoms: C_4  and  C_5
REMARK    3  A    between atoms: C_5  and  N_6
REMARK    4  A    between atoms: N_6  and  C_7
REMARK    5  A    between atoms: C_10  and  C_11
REMARK    6  A    between atoms: C_18  and  N_19
REMARK                            x       y       z     vdW  Elec       q    Type
REMARK                         _______ _______ _______ _____ _____    ______ ____
ROOT
ATOM      1  N   UNL     1      47.768   6.187  12.544  0.00  0.00    +0.000 N 
ATOM      2  H   UNL     1      48.659   6.650  12.381  0.00  0.00    +0.000 HD
ENDROOT
BRANCH   1   3
ATOM      3  C   UNL     1      47.799   5.664  13.840  0.00  0.00    +0.000 A 
ATOM      4  N   UNL     1      48.550   6.347  14.724  0.00  0.00    +0.000 NA
ATOM      5  C   UNL     1      48.603   5.899  16.011  0.00  0.00    +0.000 A 
ATOM      6  C   UNL     1      47.900   4.793  16.479  0.00  0.00    +0.000 A 
ATOM      7  C   UNL     1      47.100   4.113  15.574  0.00  0.00    +0.000 A 
ATOM      8  C   UNL     1      47.042   4.559  14.259  0.00  0.00    +0.000 A 
ATOM      9  F   UNL     1      46.236   3.899  13.414  0.00  0.00    +0.000 F 
BRANCH   6  10
ATOM     10  C   UNL     1      48.023   4.417  17.906  0.00  0.00    +0.000 C 
ATOM     11  N   UNL     1      47.696   3.141  18.275  0.00  0.00    +0.000 N 
ATOM     12  O   UNL     1      48.404   5.224  18.742  0.00  0.00    +0.000 OA
ATOM     13  H   UNL     1      47.369   2.409  17.663  0.00  0.00    +0.000 HD
ATOM     14  H   UNL     1      47.778   2.918  19.259  0.00  0.00    +0.000 HD
ENDBRANCH   6  10
ENDBRANCH   1   3
BRANCH   1  15
ATOM     15  C   UNL     1      46.669   7.099  12.245  0.00  0.00    +0.000 C 
BRANCH  15  19
ATOM     16  C   UNL     1      44.904   4.029   8.643  0.00  0.00    +0.000 C 
ATOM     17  C   UNL     1      44.701   4.907   9.841  0.00  0.00    +0.000 A 
ATOM     18  C   UNL     1      45.779   5.558  10.429  0.00  0.00    +0.000 A 
ATOM     19  C   UNL     1      45.550   6.401  11.518  0.00  0.00    +0.000 A 
ATOM     20  C   UNL     1      44.240   6.521  11.992  0.00  0.00    +0.000 A 
ATOM     21  C   UNL     1      43.223   5.822  11.364  0.00  0.00    +0.000 A 
ATOM     22  N   UNL     1      43.431   5.029  10.301  0.00  0.00    +0.000 NA
BRANCH  21  23
ATOM     23  N   UNL     1      41.905   5.963  11.795  0.00  0.00    +0.000 N 
ATOM     24  H   UNL     1      41.852   6.256  12.763  0.00  0.00    +0.000 HD
ATOM     25  H   UNL     1      41.450   5.067  11.638  0.00  0.00    +0.000 HD
ENDBRANCH  21  23
ENDBRANCH  15  19
ENDBRANCH   1  15
TORSDOF 5
ENDMDL
MODEL 7
REMARK VINA RESULT:    -6.250      4.959      8.300
REMARK INTER + INTRA:          -8.246
REMARK INTER:                  -7.922
REMARK INTRA:                  -0.325
REMARK UNBOUND:                -0.352
REMARK  Name = 
REMARK  6 active torsions:
REMARK  status: ('A' for Active; 'I' for Inactive)
REMARK    1  A    between atoms: C_1  and  C_2
REMARK    2  A    between atoms: C_4  and  C_5
REMARK    3  A    between atoms: C_5  and  N_6
REMARK    4  A    between atoms: N_6  and  C_7
REMARK    5  A    between atoms: C_10  and  C_11
REMARK    6  A    between atoms: C_18  and  N_19
REMARK                            x       y       z     vdW  Elec       q    Type
REMARK                         _______ _______ _______ _____ _____    ______ ____
ROOT
ATOM      1  N   UNL     1      46.734   4.364  15.269  0.00  0.00    +0.000 N 
ATOM      2  H   UNL     1      46.576   3.387  15.030  0.00  0.00    +0.000 HD
ENDROOT
BRANCH   1   3
ATOM      3  C   UNL     1      47.690   4.395  16.289  0.00  0.00    +0.000 A 
ATOM      4  N   UNL     1      48.620   5.362  16.185  0.00  0.00    +0.000 NA
ATOM      5  C   UNL     1      49.567   5.457  17.161  0.00  0.00    +0.000 A 
ATOM      6  C   UNL     1      49.614   4.634  18.282  0.00  0.00    +0.000 A 
ATOM      7  C   UNL     1      48.635   3.661  18.403  0.00  0.00    +0.000 A 
ATOM      8  C   UNL     1      47.666   3.553  17.412  0.00  0.00    +0.000 A 
ATOM      9  F   UNL     1      46.713   2.622  17.572  0.00  0.00    +0.000 F 
BRANCH   6  10
ATOM     10  C   UNL     1      50.682   4.849  19.285  0.00  0.00    +0.000 C 
ATOM     11  N   UNL     1      50.431   4.515  20.587  0.00  0.00    +0.000 N 
ATOM     12  O   UNL     1      51.765   5.320  18.965  0.00  0.00    +0.000 OA
ATOM     13  H   UNL     1      49.573   4.128  20.948  0.00  0.00    +0.000 HD
ATOM     14  H   UNL     1      51.176   4.687  21.251  0.00  0.00    +0.000 HD
ENDBRANCH   6  10
ENDBRANCH   1   3
BRANCH   1  15
ATOM     15  C   UNL     1      47.052   5.127  14.067  0.00  0.00    +0.000 C 
BRANCH  15  19
ATOM     16  C   UNL     1      43.408   2.853  11.411  0.00  0.00    +0.000 C 
ATOM     17  C   UNL     1      44.132   4.084  11.867  0.00  0.00    +0.000 A 
ATOM     18  C   UNL     1      45.220   3.983  12.726  0.00  0.00    +0.000 A 
ATOM     19  C   UNL     1      45.899   5.144  13.099  0.00  0.00    +0.000 A 
ATOM     20  C   UNL     1      45.423   6.368  12.617  0.00  0.00    +0.000 A 
ATOM     21  C   UNL     1      44.319   6.386  11.781  0.00  0.00    +0.000 A 
ATOM     22  N   UNL     1      43.676   5.272  11.398  0.00  0.00    +0.000 NA
BRANCH  21  23
ATOM     23  N   UNL     1      43.857   7.591  11.256  0.00  0.00    +0.000 N 
ATOM     24  H   UNL     1      43.757   7.554  10.250  0.00  0.00    +0.000 HD
ATOM     25  H   UNL     1      44.515   8.308  11.552  0.00  0.00    +0.000 HD
ENDBRANCH  21  23
ENDBRANCH  15  19
ENDBRANCH   1  15
TORSDOF 5
ENDMDL
MODEL 8
REMARK VINA RESULT:    -6.074      5.299      7.773
REMARK INTER + INTRA:          -8.024
REMARK INTER:                  -7.627
REMARK INTRA:                  -0.398
REMARK UNBOUND:                -0.352
REMARK  Name = 
REMARK  6 active torsions:
REMARK  status: ('A' for Active; 'I' for Inactive)
REMARK    1  A    between atoms: C_1  and  C_2
REMARK    2  A    between atoms: C_4  and  C_5
REMARK    3  A    between atoms: C_5  and  N_6
REMARK    4  A    between atoms: N_6  and  C_7
REMARK    5  A    between atoms: C_10  and  C_11
REMARK    6  A    between atoms: C_18  and  N_19
REMARK                            x       y       z     vdW  Elec       q    Type
REMARK                         _______ _______ _______ _____ _____    ______ ____
ROOT
ATOM      1  N   UNL     1      47.200   4.672  15.986  0.00  0.00    +0.000 N 
ATOM      2  H   UNL     1      46.473   4.607  16.695  0.00  0.00    +0.000 HD
ENDROOT
BRANCH   1   3
ATOM      3  C   UNL     1      48.330   4.016  16.484  0.00  0.00    +0.000 A 
ATOM      4  N   UNL     1      48.465   2.729  16.116  0.00  0.00    +0.000 NA
ATOM      5  C   UNL     1      49.559   2.042  16.553  0.00  0.00    +0.000 A 
ATOM      6  C   UNL     1      50.568   2.600  17.332  0.00  0.00    +0.000 A 
ATOM      7  C   UNL     1      50.442   3.936  17.680  0.00  0.00    +0.000 A 
ATOM      8  C   UNL     1      49.329   4.644  17.243  0.00  0.00    +0.000 A 
ATOM      9  F   UNL     1      49.251   5.943  17.570  0.00  0.00    +0.000 F 
BRANCH   6  10
ATOM     10  C   UNL     1      51.718   1.755  17.728  0.00  0.00    +0.000 C 
ATOM     11  N   UNL     1      51.488   0.442  18.032  0.00  0.00    +0.000 N 
ATOM     12  O   UNL     1      52.850   2.216  17.788  0.00  0.00    +0.000 OA
ATOM     13  H   UNL     1      50.595  -0.026  18.017  0.00  0.00    +0.000 HD
ATOM     14  H   UNL     1      52.292  -0.106  18.312  0.00  0.00    +0.000 HD
ENDBRANCH   6  10
ENDBRANCH   1   3
BRANCH   1  15
ATOM     15  C   UNL     1      46.691   4.191  14.705  0.00  0.00    +0.000 C 
BRANCH  15  19
ATOM     16  C   UNL     1      48.642   7.723  11.667  0.00  0.00    +0.000 C 
ATOM     17  C   UNL     1      47.476   6.959  12.220  0.00  0.00    +0.000 A 
ATOM     18  C   UNL     1      47.672   5.972  13.179  0.00  0.00    +0.000 A 
ATOM     19  C   UNL     1      46.562   5.308  13.705  0.00  0.00    +0.000 A 
ATOM     20  C   UNL     1      45.298   5.644  13.207  0.00  0.00    +0.000 A 
ATOM     21  C   UNL     1      45.190   6.625  12.235  0.00  0.00    +0.000 A 
ATOM     22  N   UNL     1      46.249   7.285  11.743  0.00  0.00    +0.000 NA
BRANCH  21  23
ATOM     23  N   UNL     1      43.935   7.003  11.759  0.00  0.00    +0.000 N 
ATOM     24  H   UNL     1      43.986   7.818  11.161  0.00  0.00    +0.000 HD
ATOM     25  H   UNL     1      43.350   7.161  12.576  0.00  0.00    +0.000 HD
ENDBRANCH  21  23
ENDBRANCH  15  19
ENDBRANCH   1  15
TORSDOF 5
ENDMDL
MODEL 9
REMARK VINA RESULT:    -6.038      2.681      4.390
REMARK INTER + INTRA:          -7.978
REMARK INTER:                  -7.297
REMARK INTRA:                  -0.682
REMARK UNBOUND:                -0.352
REMARK  Name = 
REMARK  6 active torsions:
REMARK  status: ('A' for Active; 'I' for Inactive)
REMARK    1  A    between atoms: C_1  and  C_2
REMARK    2  A    between atoms: C_4  and  C_5
REMARK    3  A    between atoms: C_5  and  N_6
REMARK    4  A    between atoms: N_6  and  C_7
REMARK    5  A    between atoms: C_10  and  C_11
REMARK    6  A    between atoms: C_18  and  N_19
REMARK                            x       y       z     vdW  Elec       q    Type
REMARK                         _______ _______ _______ _____ _____    ______ ____
ROOT
ATOM      1  N   UNL     1      45.981   5.878  13.649  0.00  0.00    +0.000 N 
ATOM      2  H   UNL     1      45.605   6.820  13.574  0.00  0.00    +0.000 HD
ENDROOT
BRANCH   1   3
ATOM      3  C   UNL     1      45.677   5.210  12.458  0.00  0.00    +0.000 A 
ATOM      4  N   UNL     1      45.399   3.899  12.582  0.00  0.00    +0.000 NA
ATOM      5  C   UNL     1      45.074   3.198  11.459  0.00  0.00    +0.000 A 
ATOM      6  C   UNL     1      44.978   3.761  10.190  0.00  0.00    +0.000 A 
ATOM      7  C   UNL     1      45.232   5.119  10.073  0.00  0.00    +0.000 A 
ATOM      8  C   UNL     1      45.567   5.842  11.211  0.00  0.00    +0.000 A 
ATOM      9  F   UNL     1      45.777   7.160  11.070  0.00  0.00    +0.000 F 
BRANCH   6  10
ATOM     10  C   UNL     1      44.596   2.898   9.049  0.00  0.00    +0.000 C 
ATOM     11  N   UNL     1      44.294   3.491   7.855  0.00  0.00    +0.000 N 
ATOM     12  O   UNL     1      44.544   1.681   9.167  0.00  0.00    +0.000 OA
ATOM     13  H   UNL     1      44.303   4.481   7.662  0.00  0.00    +0.000 HD
ATOM     14  H   UNL     1      44.024   2.875   7.098  0.00  0.00    +0.000 HD
ENDBRANCH   6  10
ENDBRANCH   1   3
BRANCH   1  15
ATOM     15  C   UNL     1      47.393   5.932  14.012  0.00  0.00    +0.000 C 
BRANCH  15  19
ATOM     16  C   UNL     1      50.985   8.046  11.158  0.00  0.00    +0.000 C 
ATOM     17  C   UNL     1      49.752   8.138  12.006  0.00  0.00    +0.000 A 
ATOM     18  C   UNL     1      49.204   6.997  12.580  0.00  0.00    +0.000 A 
ATOM     19  C   UNL     1      48.079   7.123  13.398  0.00  0.00    +0.000 A 
ATOM     20  C   UNL     1      47.531   8.398  13.571  0.00  0.00    +0.000 A 
ATOM     21  C   UNL     1      48.125   9.483  12.947  0.00  0.00    +0.000 A 
ATOM     22  N   UNL     1      49.220   9.374  12.180  0.00  0.00    +0.000 NA
BRANCH  21  23
ATOM     23  N   UNL     1      47.618  10.767  13.143  0.00  0.00    +0.000 N 
ATOM     24  H   UNL     1      46.803  10.945  12.571  0.00  0.00    +0.000 HD
ATOM     25  H   UNL     1      48.378  11.412  12.942  0.00  0.00    +0.000 HD
ENDBRANCH  21  23
ENDBRANCH  15  19
ENDBRANCH   1  15
TORSDOF 5
ENDMDL
