MODEL 1
REMARK VINA RESULT:    -7.589      0.000      0.000
REMARK INTER + INTRA:         -10.248
REMARK INTER:                  -9.586
REMARK INTRA:                  -0.663
REMARK UNBOUND:                -0.663
REMARK  Name = 
REMARK  5 active torsions:
REMARK  status: ('A' for Active; 'I' for Inactive)
REMARK    1  A    between atoms: N_1  and  C_2
REMARK    2  A    between atoms: C_2  and  C_3
REMARK    3  A    between atoms: C_3  and  C_4
REMARK    4  A    between atoms: C_7  and  C_8
REMARK    5  A    between atoms: C_8  and  N_9
REMARK                            x       y       z     vdW  Elec       q    Type
REMARK                         _______ _______ _______ _____ _____    ______ ____
ROOT
ATOM      1  C   UNL     1      45.950   2.692   8.266  0.00  0.00    +0.000 A 
ATOM      2  C   UNL     1      45.974   4.091   8.258  0.00  0.00    +0.000 A 
ATOM      3  C   UNL     1      45.154   4.827   9.121  0.00  0.00    +0.000 A 
ATOM      4  C   UNL     1      44.276   4.183  10.004  0.00  0.00    +0.000 A 
ATOM      5  C   UNL     1      44.248   2.783  10.012  0.00  0.00    +0.000 A 
ATOM      6  C   UNL     1      45.072   2.049   9.154  0.00  0.00    +0.000 A 
ENDROOT
BRANCH   1   7
ATOM      7  C   UNL     1      46.740   1.842   7.291  0.00  0.00    +0.000 C 
BRANCH   7   8
ATOM      8  C   UNL     1      48.041   2.454   6.757  0.00  0.00    +0.000 C 
BRANCH   8   9
ATOM      9  N   UNL     1      48.476   1.771   5.533  0.00  0.00    +0.000 NA
ATOM     10  H   UNL     1      47.823   1.988   4.780  0.00  0.00    +0.000 HD
ATOM     11  H   UNL     1      48.424   0.765   5.671  0.00  0.00    +0.000 HD
ENDBRANCH   8   9
ENDBRANCH   7   8
ENDBRANCH   1   7
BRANCH   4  12
ATOM     12  C   UNL     1      43.286   4.971  10.839  0.00  0.00    +0.000 C 
BRANCH  12  13
ATOM     13  N   UNL     1      43.993   5.974  11.630  0.00  0.00    +0.000 N 
ATOM     14  N   UNL     1      43.904   7.280  11.279  0.00  0.00    +0.000 NA
ATOM     15  C   UNL     1      45.027   7.802  11.780  0.00  0.00    +0.000 A 
ATOM     16  C   UNL     1      45.779   6.867  12.525  0.00  0.00    +0.000 A 
ATOM     17  C   UNL     1      47.023   6.856  13.178  0.00  0.00    +0.000 A 
ATOM     18  C   UNL     1      47.408   5.705  13.877  0.00  0.00    +0.000 A 
ATOM     19  C   UNL     1      46.560   4.601  13.960  0.00  0.00    +0.000 A 
ATOM     20  C   UNL     1      45.336   4.579  13.285  0.00  0.00    +0.000 A 
ATOM     21  C   UNL     1      44.995   5.718  12.541  0.00  0.00    +0.000 A 
ENDBRANCH  12  13
ENDBRANCH   4  12
TORSDOF 5
ENDMDL
MODEL 2
REMARK VINA RESULT:    -7.001      1.389      2.507
REMARK INTER + INTRA:          -9.506
REMARK INTER:                  -8.983
REMARK INTRA:                  -0.522
REMARK UNBOUND:                -0.663
REMARK  Name = 
REMARK  5 active torsions:
REMARK  status: ('A' for Active; 'I' for Inactive)
REMARK    1  A    between atoms: N_1  and  C_2
REMARK    2  A    between atoms: C_2  and  C_3
REMARK    3  A    between atoms: C_3  and  C_4
REMARK    4  A    between atoms: C_7  and  C_8
REMARK    5  A    between atoms: C_8  and  N_9
REMARK                            x       y       z     vdW  Elec       q    Type
REMARK                         _______ _______ _______ _____ _____    ______ ____
ROOT
ATOM      1  C   UNL     1      45.701   2.990   7.907  0.00  0.00    +0.000 A 
ATOM      2  C   UNL     1      45.023   2.325   8.935  0.00  0.00    +0.000 A 
ATOM      3  C   UNL     1      44.655   3.001  10.105  0.00  0.00    +0.000 A 
ATOM      4  C   UNL     1      44.969   4.356  10.283  0.00  0.00    +0.000 A 
ATOM      5  C   UNL     1      45.650   5.022   9.256  0.00  0.00    +0.000 A 
ATOM      6  C   UNL     1      46.012   4.347   8.087  0.00  0.00    +0.000 A 
ENDROOT
BRANCH   1   7
ATOM      7  C   UNL     1      46.211   2.292   6.662  0.00  0.00    +0.000 C 
BRANCH   7   8
ATOM      8  C   UNL     1      47.544   2.801   6.097  0.00  0.00    +0.000 C 
BRANCH   8   9
ATOM      9  N   UNL     1      48.455   1.684   5.821  0.00  0.00    +0.000 NA
ATOM     10  H   UNL     1      48.105   1.159   5.020  0.00  0.00    +0.000 HD
ATOM     11  H   UNL     1      48.446   1.039   6.607  0.00  0.00    +0.000 HD
ENDBRANCH   8   9
ENDBRANCH   7   8
ENDBRANCH   1   7
BRANCH   4  12
ATOM     12  C   UNL     1      44.700   5.055  11.600  0.00  0.00    +0.000 C 
BRANCH  12  13
ATOM     13  N   UNL     1      45.861   4.924  12.476  0.00  0.00    +0.000 N 
ATOM     14  N   UNL     1      45.850   3.987  13.456  0.00  0.00    +0.000 NA
ATOM     15  C   UNL     1      46.706   4.483  14.353  0.00  0.00    +0.000 A 
ATOM     16  C   UNL     1      47.331   5.671  13.914  0.00  0.00    +0.000 A 
ATOM     17  C   UNL     1      48.220   6.613  14.460  0.00  0.00    +0.000 A 
ATOM     18  C   UNL     1      48.664   7.668  13.655  0.00  0.00    +0.000 A 
ATOM     19  C   UNL     1      48.267   7.768  12.322  0.00  0.00    +0.000 A 
ATOM     20  C   UNL     1      47.354   6.863  11.771  0.00  0.00    +0.000 A 
ATOM     21  C   UNL     1      46.874   5.848  12.611  0.00  0.00    +0.000 A 
ENDBRANCH  12  13
ENDBRANCH   4  12
TORSDOF 5
ENDMDL
MODEL 3
REMARK VINA RESULT:    -6.710      2.202      6.392
REMARK INTER + INTRA:          -9.138
REMARK INTER:                  -8.851
REMARK INTRA:                  -0.287
REMARK UNBOUND:                -0.663
REMARK  Name = 
REMARK  5 active torsions:
REMARK  status: ('A' for Active; 'I' for Inactive)
REMARK    1  A    between atoms: N_1  and  C_2
REMARK    2  A    between atoms: C_2  and  C_3
REMARK    3  A    between atoms: C_3  and  C_4
REMARK    4  A    between atoms: C_7  and  C_8
REMARK    5  A    between atoms: C_8  and  N_9
REMARK                            x       y       z     vdW  Elec       q    Type
REMARK                         _______ _______ _______ _____ _____    ______ ____
ROOT
ATOM      1  C   UNL     1      46.740   4.820  13.600  0.00  0.00    +0.000 A 
ATOM      2  C   UNL     1      46.014   3.693  13.200  0.00  0.00    +0.000 A 
ATOM      3  C   UNL     1      45.342   3.671  11.972  0.00  0.00    +0.000 A 
ATOM      4  C   UNL     1      45.367   4.782  11.117  0.00  0.00    +0.000 A 
ATOM      5  C   UNL     1      46.092   5.912  11.516  0.00  0.00    +0.000 A 
ATOM      6  C   UNL     1      46.766   5.931  12.740  0.00  0.00    +0.000 A 
ENDROOT
BRANCH   1   7
ATOM      7  C   UNL     1      47.405   4.942  14.956  0.00  0.00    +0.000 C 
BRANCH   7   8
ATOM      8  C   UNL     1      47.535   3.646  15.767  0.00  0.00    +0.000 C 
BRANCH   8   9
ATOM      9  N   UNL     1      46.716   3.706  16.983  0.00  0.00    +0.000 NA
ATOM     10  H   UNL     1      47.007   2.963  17.618  0.00  0.00    +0.000 HD
ATOM     11  H   UNL     1      45.746   3.512  16.746  0.00  0.00    +0.000 HD
ENDBRANCH   8   9
ENDBRANCH   7   8
ENDBRANCH   1   7
BRANCH   4  12
ATOM     12  C   UNL     1      44.530   4.819   9.854  0.00  0.00    +0.000 C 
BRANCH  12  13
ATOM     13  N   UNL     1      44.632   3.541   9.156  0.00  0.00    +0.000 N 
ATOM     14  N   UNL     1      43.905   2.484   9.596  0.00  0.00    +0.000 NA
ATOM     15  C   UNL     1      44.611   1.435   9.164  0.00  0.00    +0.000 A 
ATOM     16  C   UNL     1      45.721   1.811   8.375  0.00  0.00    +0.000 A 
ATOM     17  C   UNL     1      46.796   1.150   7.756  0.00  0.00    +0.000 A 
ATOM     18  C   UNL     1      47.695   1.899   6.988  0.00  0.00    +0.000 A 
ATOM     19  C   UNL     1      47.512   3.269   6.804  0.00  0.00    +0.000 A 
ATOM     20  C   UNL     1      46.471   3.950   7.442  0.00  0.00    +0.000 A 
ATOM     21  C   UNL     1      45.616   3.194   8.256  0.00  0.00    +0.000 A 
ENDBRANCH  12  13
ENDBRANCH   4  12
TORSDOF 5
ENDMDL
MODEL 4
REMARK VINA RESULT:    -6.543      2.088      6.186
REMARK INTER + INTRA:          -8.928
REMARK INTER:                  -8.221
REMARK INTRA:                  -0.707
REMARK UNBOUND:                -0.663
REMARK  Name = 
REMARK  5 active torsions:
REMARK  status: ('A' for Active; 'I' for Inactive)
REMARK    1  A    between atoms: N_1  and  C_2
REMARK    2  A    between atoms: C_2  and  C_3
REMARK    3  A    between atoms: C_3  and  C_4
REMARK    4  A    between atoms: C_7  and  C_8
REMARK    5  A    between atoms: C_8  and  N_9
REMARK                            x       y       z     vdW  Elec       q    Type
REMARK                         _______ _______ _______ _____ _____    ______ ____
ROOT
ATOM      1  C   UNL     1      47.553   6.267  13.020  0.00  0.00    +0.000 A 
ATOM      2  C   UNL     1      46.628   5.338  13.510  0.00  0.00    +0.000 A 
ATOM      3  C   UNL     1      45.491   4.998  12.766  0.00  0.00    +0.000 A 
ATOM      4  C   UNL     1      45.243   5.590  11.520  0.00  0.00    +0.000 A 
ATOM      5  C   UNL     1      46.166   6.521  11.029  0.00  0.00    +0.000 A 
ATOM      6  C   UNL     1      47.303   6.855  11.770  0.00  0.00    +0.000 A 
ENDROOT
BRANCH   1   7
ATOM      7  C   UNL     1      48.748   6.748  13.818  0.00  0.00    +0.000 C 
BRANCH   7   8
ATOM      8  C   UNL     1      48.439   7.557  15.084  0.00  0.00    +0.000 C 
BRANCH   8   9
ATOM      9  N   UNL     1      47.550   8.684  14.780  0.00  0.00    +0.000 NA
ATOM     10  H   UNL     1      46.604   8.333  14.636  0.00  0.00    +0.000 HD
ATOM     11  H   UNL     1      47.832   9.107  13.899  0.00  0.00    +0.000 HD
ENDBRANCH   8   9
ENDBRANCH   7   8
ENDBRANCH   1   7
BRANCH   4  12
ATOM     12  C   UNL     1      43.948   5.334  10.775  0.00  0.00    +0.000 C 
BRANCH  12  13
ATOM     13  N   UNL     1      43.985   4.011  10.158  0.00  0.00    +0.000 N 
ATOM     14  N   UNL     1      43.429   2.959  10.807  0.00  0.00    +0.000 NA
ATOM     15  C   UNL     1      44.097   1.914  10.310  0.00  0.00    +0.000 A 
ATOM     16  C   UNL     1      44.999   2.279   9.286  0.00  0.00    +0.000 A 
ATOM     17  C   UNL     1      45.965   1.623   8.504  0.00  0.00    +0.000 A 
ATOM     18  C   UNL     1      46.642   2.351   7.519  0.00  0.00    +0.000 A 
ATOM     19  C   UNL     1      46.341   3.692   7.285  0.00  0.00    +0.000 A 
ATOM     20  C   UNL     1      45.411   4.371   8.078  0.00  0.00    +0.000 A 
ATOM     21  C   UNL     1      44.786   3.641   9.099  0.00  0.00    +0.000 A 
ENDBRANCH  12  13
ENDBRANCH   4  12
TORSDOF 5
ENDMDL
MODEL 5
REMARK VINA RESULT:    -5.765      1.713      2.608
REMARK INTER + INTRA:          -7.944
REMARK INTER:                  -7.698
REMARK INTRA:                  -0.246
REMARK UNBOUND:                -0.663
REMARK  Name = 
REMARK  5 active torsions:
REMARK  status: ('A' for Active; 'I' for Inactive)
REMARK    1  A    between atoms: N_1  and  C_2
REMARK    2  A    between atoms: C_2  and  C_3
REMARK    3  A    between atoms: C_3  and  C_4
REMARK    4  A    between atoms: C_7  and  C_8
REMARK    5  A    between atoms: C_8  and  N_9
REMARK                            x       y       z     vdW  Elec       q    Type
REMARK                         _______ _______ _______ _____ _____    ______ ____
ROOT
ATOM      1  C   UNL     1      45.027   3.978   8.977  0.00  0.00    +0.000 A 
ATOM      2  C   UNL     1      44.190   3.471   9.978  0.00  0.00    +0.000 A 
ATOM      3  C   UNL     1      44.090   4.108  11.221  0.00  0.00    +0.000 A 
ATOM      4  C   UNL     1      44.837   5.262  11.500  0.00  0.00    +0.000 A 
ATOM      5  C   UNL     1      45.677   5.769  10.501  0.00  0.00    +0.000 A 
ATOM      6  C   UNL     1      45.771   5.135   9.259  0.00  0.00    +0.000 A 
ENDROOT
BRANCH   1   7
ATOM      7  C   UNL     1      45.252   3.281   7.651  0.00  0.00    +0.000 C 
BRANCH   7   8
ATOM      8  C   UNL     1      46.706   3.191   7.169  0.00  0.00    +0.000 C 
BRANCH   8   9
ATOM      9  N   UNL     1      46.888   3.933   5.916  0.00  0.00    +0.000 NA
ATOM     10  H   UNL     1      47.646   4.604   6.033  0.00  0.00    +0.000 HD
ATOM     11  H   UNL     1      46.052   4.480   5.723  0.00  0.00    +0.000 HD
ENDBRANCH   8   9
ENDBRANCH   7   8
ENDBRANCH   1   7
BRANCH   4  12
ATOM     12  C   UNL     1      44.842   5.875  12.886  0.00  0.00    +0.000 C 
BRANCH  12  13
ATOM     13  N   UNL     1      45.540   7.157  12.858  0.00  0.00    +0.000 N 
ATOM     14  N   UNL     1      44.858   8.277  12.515  0.00  0.00    +0.000 NA
ATOM     15  C   UNL     1      45.817   9.081  12.048  0.00  0.00    +0.000 A 
ATOM     16  C   UNL     1      47.109   8.524  12.181  0.00  0.00    +0.000 A 
ATOM     17  C   UNL     1      48.413   8.886  11.804  0.00  0.00    +0.000 A 
ATOM     18  C   UNL     1      49.478   8.058  12.179  0.00  0.00    +0.000 A 
ATOM     19  C   UNL     1      49.260   6.914  12.946  0.00  0.00    +0.000 A 
ATOM     20  C   UNL     1      47.966   6.517  13.297  0.00  0.00    +0.000 A 
ATOM     21  C   UNL     1      46.908   7.327  12.861  0.00  0.00    +0.000 A 
ENDBRANCH  12  13
ENDBRANCH   4  12
TORSDOF 5
ENDMDL
MODEL 6
REMARK VINA RESULT:    -5.479      2.244      3.574
REMARK INTER + INTRA:          -7.583
REMARK INTER:                  -7.056
REMARK INTRA:                  -0.527
REMARK UNBOUND:                -0.663
REMARK  Name = 
REMARK  5 active torsions:
REMARK  status: ('A' for Active; 'I' for Inactive)
REMARK    1  A    between atoms: N_1  and  C_2
REMARK    2  A    between atoms: C_2  and  C_3
REMARK    3  A    between atoms: C_3  and  C_4
REMARK    4  A    between atoms: C_7  and  C_8
REMARK    5  A    between atoms: C_8  and  N_9
REMARK                            x       y       z     vdW  Elec       q    Type
REMARK                         _______ _______ _______ _____ _____    ______ ____
ROOT
ATOM      1  C   UNL     1      44.838   3.215   9.850  0.00  0.00    +0.000 A 
ATOM      2  C   UNL     1      44.559   2.907  11.186  0.00  0.00    +0.000 A 
ATOM      3  C   UNL     1      44.695   3.875  12.189  0.00  0.00    +0.000 A 
ATOM      4  C   UNL     1      45.128   5.173  11.882  0.00  0.00    +0.000 A 
ATOM      5  C   UNL     1      45.411   5.482  10.546  0.00  0.00    +0.000 A 
ATOM      6  C   UNL     1      45.269   4.516   9.546  0.00  0.00    +0.000 A 
ENDROOT
BRANCH   1   7
ATOM      7  C   UNL     1      44.805   2.187   8.737  0.00  0.00    +0.000 C 
BRANCH   7   8
ATOM      8  C   UNL     1      46.126   1.947   7.994  0.00  0.00    +0.000 C 
BRANCH   8   9
ATOM      9  N   UNL     1      46.492   0.527   8.025  0.00  0.00    +0.000 NA
ATOM     10  H   UNL     1      47.250   0.363   7.363  0.00  0.00    +0.000 HD
ATOM     11  H   UNL     1      45.706  -0.032   7.700  0.00  0.00    +0.000 HD
ENDBRANCH   8   9
ENDBRANCH   7   8
ENDBRANCH   1   7
BRANCH   4  12
ATOM     12  C   UNL     1      45.412   6.182  12.977  0.00  0.00    +0.000 C 
BRANCH  12  13
ATOM     13  N   UNL     1      46.778   6.682  12.846  0.00  0.00    +0.000 N 
ATOM     14  N   UNL     1      47.810   5.913  13.271  0.00  0.00    +0.000 NA
ATOM     15  C   UNL     1      48.762   6.810  13.538  0.00  0.00    +0.000 A 
ATOM     16  C   UNL     1      48.383   8.128  13.197  0.00  0.00    +0.000 A 
ATOM     17  C   UNL     1      48.941   9.411  13.328  0.00  0.00    +0.000 A 
ATOM     18  C   UNL     1      48.249  10.505  12.795  0.00  0.00    +0.000 A 
ATOM     19  C   UNL     1      47.046  10.328  12.112  0.00  0.00    +0.000 A 
ATOM     20  C   UNL     1      46.457   9.065  12.005  0.00  0.00    +0.000 A 
ATOM     21  C   UNL     1      47.135   7.990  12.597  0.00  0.00    +0.000 A 
ENDBRANCH  12  13
ENDBRANCH   4  12
TORSDOF 5
ENDMDL
MODEL 7
REMARK VINA RESULT:    -5.417      4.965      7.698
REMARK INTER + INTRA:          -7.505
REMARK INTER:                  -7.341
REMARK INTRA:                  -0.163
REMARK UNBOUND:                -0.663
REMARK  Name = 
REMARK  5 active torsions:
REMARK  status: ('A' for Active; 'I' for Inactive)
REMARK    1  A    between atoms: N_1  and  C_2
REMARK    2  A    between atoms: C_2  and  C_3
REMARK    3  A    between atoms: C_3  and  C_4
REMARK    4  A    between atoms: C_7  and  C_8
REMARK    5  A    between atoms: C_8  and  N_9
REMARK                            x       y       z     vdW  Elec       q    Type
REMARK                         _______ _______ _______ _____ _____    ______ ____
ROOT
ATOM      1  C   UNL     1      50.902   2.885  17.640  0.00  0.00    +0.000 A 
ATOM      2  C   UNL     1      50.596   4.248  17.725  0.00  0.00    +0.000 A 
ATOM      3  C   UNL     1      49.370   4.737  17.258  0.00  0.00    +0.000 A 
ATOM      4  C   UNL     1      48.424   3.878  16.681  0.00  0.00    +0.000 A 
ATOM      5  C   UNL     1      48.730   2.514  16.593  0.00  0.00    +0.000 A 
ATOM      6  C   UNL     1      49.952   2.026  17.064  0.00  0.00    +0.000 A 
ENDROOT
BRANCH   1   7
ATOM      7  C   UNL     1      52.247   2.310  18.038  0.00  0.00    +0.000 C 
BRANCH   7   8
ATOM      8  C   UNL     1      52.652   0.997  17.356  0.00  0.00    +0.000 C 
BRANCH   8   9
ATOM      9  N   UNL     1      52.684  -0.106  18.323  0.00  0.00    +0.000 NA
ATOM     10  H   UNL     1      53.455  -0.731  18.091  0.00  0.00    +0.000 HD
ATOM     11  H   UNL     1      51.835  -0.659  18.232  0.00  0.00    +0.000 HD
ENDBRANCH   8   9
ENDBRANCH   7   8
ENDBRANCH   1   7
BRANCH   4  12
ATOM     12  C   UNL     1      47.158   4.419  16.046  0.00  0.00    +0.000 C 
BRANCH  12  13
ATOM     13  N   UNL     1      47.466   4.992  14.739  0.00  0.00    +0.000 N 
ATOM     14  N   UNL     1      48.299   6.058  14.661  0.00  0.00    +0.000 NA
ATOM     15  C   UNL     1      47.929   6.645  13.520  0.00  0.00    +0.000 A 
ATOM     16  C   UNL     1      46.939   5.913  12.825  0.00  0.00    +0.000 A 
ATOM     17  C   UNL     1      46.169   6.097  11.665  0.00  0.00    +0.000 A 
ATOM     18  C   UNL     1      45.298   5.076  11.264  0.00  0.00    +0.000 A 
ATOM     19  C   UNL     1      45.221   3.881  11.977  0.00  0.00    +0.000 A 
ATOM     20  C   UNL     1      45.950   3.695  13.155  0.00  0.00    +0.000 A 
ATOM     21  C   UNL     1      46.771   4.751  13.573  0.00  0.00    +0.000 A 
ENDBRANCH  12  13
ENDBRANCH   4  12
TORSDOF 5
ENDMDL
MODEL 8
REMARK VINA RESULT:    -5.335      2.168      6.476
REMARK INTER + INTRA:          -7.401
REMARK INTER:                  -7.570
REMARK INTRA:                   0.169
REMARK UNBOUND:                -0.663
REMARK  Name = 
REMARK  5 active torsions:
REMARK  status: ('A' for Active; 'I' for Inactive)
REMARK    1  A    between atoms: N_1  and  C_2
REMARK    2  A    between atoms: C_2  and  C_3
REMARK    3  A    between atoms: C_3  and  C_4
REMARK    4  A    between atoms: C_7  and  C_8
REMARK    5  A    between atoms: C_8  and  N_9
REMARK                            x       y       z     vdW  Elec       q    Type
REMARK                         _______ _______ _______ _____ _____    ______ ____
ROOT
ATOM      1  C   UNL     1      47.855   5.599  15.242  0.00  0.00    +0.000 A 
ATOM      2  C   UNL     1      48.062   6.858  14.668  0.00  0.00    +0.000 A 
ATOM      3  C   UNL     1      47.480   7.189  13.438  0.00  0.00    +0.000 A 
ATOM      4  C   UNL     1      46.687   6.264  12.744  0.00  0.00    +0.000 A 
ATOM      5  C   UNL     1      46.482   5.003  13.317  0.00  0.00    +0.000 A 
ATOM      6  C   UNL     1      47.059   4.675  14.547  0.00  0.00    +0.000 A 
ENDROOT
BRANCH   1   7
ATOM      7  C   UNL     1      48.535   5.147  16.519  0.00  0.00    +0.000 C 
BRANCH   7   8
ATOM      8  C   UNL     1      47.939   3.911  17.206  0.00  0.00    +0.000 C 
BRANCH   8   9
ATOM      9  N   UNL     1      46.870   4.295  18.135  0.00  0.00    +0.000 NA
ATOM     10  H   UNL     1      46.272   3.487  18.308  0.00  0.00    +0.000 HD
ATOM     11  H   UNL     1      46.278   4.996  17.698  0.00  0.00    +0.000 HD
ENDBRANCH   8   9
ENDBRANCH   7   8
ENDBRANCH   1   7
BRANCH   4  12
ATOM     12  C   UNL     1      46.171   6.564  11.351  0.00  0.00    +0.000 C 
BRANCH  12  13
ATOM     13  N   UNL     1      45.080   5.652  11.021  0.00  0.00    +0.000 N 
ATOM     14  N   UNL     1      44.087   5.451  11.921  0.00  0.00    +0.000 NA
ATOM     15  C   UNL     1      43.628   4.240  11.595  0.00  0.00    +0.000 A 
ATOM     16  C   UNL     1      44.249   3.713  10.441  0.00  0.00    +0.000 A 
ATOM     17  C   UNL     1      44.207   2.502   9.729  0.00  0.00    +0.000 A 
ATOM     18  C   UNL     1      44.963   2.381   8.557  0.00  0.00    +0.000 A 
ATOM     19  C   UNL     1      45.717   3.452   8.078  0.00  0.00    +0.000 A 
ATOM     20  C   UNL     1      45.802   4.651   8.792  0.00  0.00    +0.000 A 
ATOM     21  C   UNL     1      45.085   4.732   9.994  0.00  0.00    +0.000 A 
ENDBRANCH  12  13
ENDBRANCH   4  12
TORSDOF 5
ENDMDL
MODEL 9
REMARK VINA RESULT:    -5.210      2.714      5.872
REMARK INTER + INTRA:          -7.243
REMARK INTER:                  -6.774
REMARK INTRA:                  -0.469
REMARK UNBOUND:                -0.663
REMARK  Name = 
REMARK  5 active torsions:
REMARK  status: ('A' for Active; 'I' for Inactive)
REMARK    1  A    between atoms: N_1  and  C_2
REMARK    2  A    between atoms: C_2  and  C_3
REMARK    3  A    between atoms: C_3  and  C_4
REMARK    4  A    between atoms: C_7  and  C_8
REMARK    5  A    between atoms: C_8  and  N_9
REMARK                            x       y       z     vdW  Elec       q    Type
REMARK                         _______ _______ _______ _____ _____    ______ ____
ROOT
ATOM      1  C   UNL     1      48.011   7.863  12.827  0.00  0.00    +0.000 A 
ATOM      2  C   UNL     1      46.921   8.588  13.322  0.00  0.00    +0.000 A 
ATOM      3  C   UNL     1      45.621   8.322  12.877  0.00  0.00    +0.000 A 
ATOM      4  C   UNL     1      45.378   7.332  11.914  0.00  0.00    +0.000 A 
ATOM      5  C   UNL     1      46.467   6.607  11.416  0.00  0.00    +0.000 A 
ATOM      6  C   UNL     1      47.765   6.871  11.865  0.00  0.00    +0.000 A 
ENDROOT
BRANCH   1   7
ATOM      7  C   UNL     1      49.449   8.170  13.195  0.00  0.00    +0.000 C 
BRANCH   7   8
ATOM      8  C   UNL     1      49.980   7.504  14.471  0.00  0.00    +0.000 C 
BRANCH   8   9
ATOM      9  N   UNL     1      49.047   6.480  14.953  0.00  0.00    +0.000 NA
ATOM     10  H   UNL     1      48.418   6.218  14.195  0.00  0.00    +0.000 HD
ATOM     11  H   UNL     1      48.460   6.876  15.683  0.00  0.00    +0.000 HD
ENDBRANCH   8   9
ENDBRANCH   7   8
ENDBRANCH   1   7
BRANCH   4  12
ATOM     12  C   UNL     1      43.995   7.134  11.326  0.00  0.00    +0.000 C 
BRANCH  12  13
ATOM     13  N   UNL     1      43.582   5.743  11.491  0.00  0.00    +0.000 N 
ATOM     14  N   UNL     1      43.174   5.312  12.709  0.00  0.00    +0.000 NA
ATOM     15  C   UNL     1      43.421   4.000  12.661  0.00  0.00    +0.000 A 
ATOM     16  C   UNL     1      43.889   3.578  11.396  0.00  0.00    +0.000 A 
ATOM     17  C   UNL     1      44.355   2.377  10.835  0.00  0.00    +0.000 A 
ATOM     18  C   UNL     1      44.691   2.353   9.477  0.00  0.00    +0.000 A 
ATOM     19  C   UNL     1      44.531   3.486   8.679  0.00  0.00    +0.000 A 
ATOM     20  C   UNL     1      44.106   4.699   9.227  0.00  0.00    +0.000 A 
ATOM     21  C   UNL     1      43.832   4.720  10.602  0.00  0.00    +0.000 A 
ENDBRANCH  12  13
ENDBRANCH   4  12
TORSDOF 5
ENDMDL
