MODEL 1
REMARK VINA RESULT:    -8.642      0.000      0.000
REMARK INTER + INTRA:         -11.992
REMARK INTER:                 -11.167
REMARK INTRA:                  -0.825
REMARK UNBOUND:                -0.825
REMARK  Name = 
REMARK  8 active torsions:
REMARK  status: ('A' for Active; 'I' for Inactive)
REMARK    1  A    between atoms: C_1  and  N_2
REMARK    2  A    between atoms: C_5  and  C_6
REMARK    3  A    between atoms: C_10  and  C_11
REMARK    4  A    between atoms: C_11  and  C_12
REMARK    5  A    between atoms: C_11  and  C_13
REMARK    6  A    between atoms: C_11  and  C_14
REMARK    7  A    between atoms: C_14  and  N_15
REMARK    8  A    between atoms: C_19  and  C_20
REMARK                            x       y       z     vdW  Elec       q    Type
REMARK                         _______ _______ _______ _____ _____    ______ ____
ROOT
ATOM      1  C   UNL     1      43.698   5.800  11.583  0.00  0.00    +0.000 C 
ATOM      2  C   UNL     1      42.740   5.187  12.625  0.00  0.00    +0.000 C 
ATOM      3  C   UNL     1      43.349   7.289  11.358  0.00  0.00    +0.000 C 
ENDROOT
BRANCH   1   8
ATOM      4  C   UNL     1      47.471   6.644  12.139  0.00  0.00    +0.000 A 
ATOM      5  C   UNL     1      47.755   5.774  13.197  0.00  0.00    +0.000 A 
ATOM      6  C   UNL     1      46.800   4.869  13.668  0.00  0.00    +0.000 A 
ATOM      7  C   UNL     1      45.519   4.845  13.120  0.00  0.00    +0.000 A 
ATOM      8  C   UNL     1      45.162   5.733  12.096  0.00  0.00    +0.000 A 
ATOM      9  C   UNL     1      46.165   6.604  11.617  0.00  0.00    +0.000 A 
BRANCH   4  14
ATOM     10  C   UNL     1      49.254   9.443  15.416  0.00  0.00    +0.000 C 
ATOM     11  N   UNL     1      49.393   9.274  13.964  0.00  0.00    +0.000 NA
ATOM     12  C   UNL     1      49.952   7.944  13.682  0.00  0.00    +0.000 C 
ATOM     13  C   UNL     1      49.907   7.570  12.200  0.00  0.00    +0.000 C 
ATOM     14  C   UNL     1      48.478   7.682  11.625  0.00  0.00    +0.000 C 
ATOM     15  C   UNL     1      48.071   9.149  11.837  0.00  0.00    +0.000 C 
ATOM     16  C   UNL     1      48.094   9.521  13.321  0.00  0.00    +0.000 C 
ENDBRANCH   4  14
ENDBRANCH   1   8
BRANCH   1  17
ATOM     17  C   UNL     1      43.541   5.031  10.239  0.00  0.00    +0.000 C 
BRANCH  17  18
ATOM     18  N   UNL     1      43.893   3.606  10.281  0.00  0.00    +0.000 N 
ATOM     19  C   UNL     1      44.833   3.292   9.274  0.00  0.00    +0.000 A 
ATOM     20  C   UNL     1      45.259   1.976   9.140  0.00  0.00    +0.000 A 
ATOM     21  C   UNL     1      46.187   1.656   8.145  0.00  0.00    +0.000 A 
ATOM     22  C   UNL     1      46.675   2.656   7.300  0.00  0.00    +0.000 A 
ATOM     23  C   UNL     1      46.204   3.938   7.511  0.00  0.00    +0.000 A 
ATOM     24  N   UNL     1      45.310   4.269   8.474  0.00  0.00    +0.000 NA
ATOM     25  H   UNL     1      43.084   3.005  10.143  0.00  0.00    +0.000 HD
BRANCH  22  26
ATOM     26  C   UNL     1      47.648   2.315   6.238  0.00  0.00    +0.000 C 
ATOM     27  N   UNL     1      47.721   3.106   5.126  0.00  0.00    +0.000 N 
ATOM     28  O   UNL     1      48.379   1.338   6.343  0.00  0.00    +0.000 OA
ATOM     29  H   UNL     1      47.167   3.919   4.932  0.00  0.00    +0.000 HD
ATOM     30  H   UNL     1      48.395   2.830   4.424  0.00  0.00    +0.000 HD
ENDBRANCH  22  26
ENDBRANCH  17  18
ENDBRANCH   1  17
TORSDOF 5
ENDMDL
MODEL 2
REMARK VINA RESULT:    -8.131      1.146      2.333
REMARK INTER + INTRA:         -11.332
REMARK INTER:                 -10.477
REMARK INTRA:                  -0.856
REMARK UNBOUND:                -0.825
REMARK  Name = 
REMARK  8 active torsions:
REMARK  status: ('A' for Active; 'I' for Inactive)
REMARK    1  A    between atoms: C_1  and  N_2
REMARK    2  A    between atoms: C_5  and  C_6
REMARK    3  A    between atoms: C_10  and  C_11
REMARK    4  A    between atoms: C_11  and  C_12
REMARK    5  A    between atoms: C_11  and  C_13
REMARK    6  A    between atoms: C_11  and  C_14
REMARK    7  A    between atoms: C_14  and  N_15
REMARK    8  A    between atoms: C_19  and  C_20
REMARK                            x       y       z     vdW  Elec       q    Type
REMARK                         _______ _______ _______ _____ _____    ______ ____
ROOT
ATOM      1  C   UNL     1      44.233   5.200  12.198  0.00  0.00    +0.000 C 
ATOM      2  C   UNL     1      45.318   4.272  12.782  0.00  0.00    +0.000 C 
ATOM      3  C   UNL     1      42.956   5.130  13.066  0.00  0.00    +0.000 C 
ENDROOT
BRANCH   1   8
ATOM      4  C   UNL     1      46.307   8.408  13.012  0.00  0.00    +0.000 A 
ATOM      5  C   UNL     1      45.783   9.280  12.050  0.00  0.00    +0.000 A 
ATOM      6  C   UNL     1      44.728   8.893  11.220  0.00  0.00    +0.000 A 
ATOM      7  C   UNL     1      44.201   7.605  11.300  0.00  0.00    +0.000 A 
ATOM      8  C   UNL     1      44.726   6.672  12.206  0.00  0.00    +0.000 A 
ATOM      9  C   UNL     1      45.762   7.112  13.058  0.00  0.00    +0.000 A 
BRANCH   4  14
ATOM     10  C   UNL     1      50.508   7.639  11.137  0.00  0.00    +0.000 C 
ATOM     11  N   UNL     1      49.983   8.159  12.407  0.00  0.00    +0.000 NA
ATOM     12  C   UNL     1      49.225   9.392  12.148  0.00  0.00    +0.000 C 
ATOM     13  C   UNL     1      48.431   9.879  13.361  0.00  0.00    +0.000 C 
ATOM     14  C   UNL     1      47.494   8.781  13.910  0.00  0.00    +0.000 C 
ATOM     15  C   UNL     1      48.420   7.614  14.289  0.00  0.00    +0.000 C 
ATOM     16  C   UNL     1      49.201   7.109  13.074  0.00  0.00    +0.000 C 
ENDBRANCH   4  14
ENDBRANCH   1   8
BRANCH   1  17
ATOM     17  C   UNL     1      43.893   4.732  10.754  0.00  0.00    +0.000 C 
BRANCH  17  18
ATOM     18  N   UNL     1      44.053   3.294  10.500  0.00  0.00    +0.000 N 
ATOM     19  C   UNL     1      44.942   3.070   9.425  0.00  0.00    +0.000 A 
ATOM     20  C   UNL     1      45.190   1.764   9.019  0.00  0.00    +0.000 A 
ATOM     21  C   UNL     1      46.066   1.534   7.955  0.00  0.00    +0.000 A 
ATOM     22  C   UNL     1      46.681   2.613   7.314  0.00  0.00    +0.000 A 
ATOM     23  C   UNL     1      46.385   3.876   7.789  0.00  0.00    +0.000 A 
ATOM     24  N   UNL     1      45.544   4.118   8.823  0.00  0.00    +0.000 NA
ATOM     25  H   UNL     1      43.172   2.843  10.267  0.00  0.00    +0.000 HD
BRANCH  22  26
ATOM     26  C   UNL     1      47.599   2.369   6.178  0.00  0.00    +0.000 C 
ATOM     27  N   UNL     1      47.563   3.212   5.103  0.00  0.00    +0.000 N 
ATOM     28  O   UNL     1      48.381   1.426   6.190  0.00  0.00    +0.000 OA
ATOM     29  H   UNL     1      46.960   4.005   4.984  0.00  0.00    +0.000 HD
ATOM     30  H   UNL     1      48.204   3.003   4.349  0.00  0.00    +0.000 HD
ENDBRANCH  22  26
ENDBRANCH  17  18
ENDBRANCH   1  17
TORSDOF 5
ENDMDL
MODEL 3
REMARK VINA RESULT:    -6.787      3.381      7.741
REMARK INTER + INTRA:          -9.596
REMARK INTER:                  -8.460
REMARK INTRA:                  -1.136
REMARK UNBOUND:                -0.825
REMARK  Name = 
REMARK  8 active torsions:
REMARK  status: ('A' for Active; 'I' for Inactive)
REMARK    1  A    between atoms: C_1  and  N_2
REMARK    2  A    between atoms: C_5  and  C_6
REMARK    3  A    between atoms: C_10  and  C_11
REMARK    4  A    between atoms: C_11  and  C_12
REMARK    5  A    between atoms: C_11  and  C_13
REMARK    6  A    between atoms: C_11  and  C_14
REMARK    7  A    between atoms: C_14  and  N_15
REMARK    8  A    between atoms: C_19  and  C_20
REMARK                            x       y       z     vdW  Elec       q    Type
REMARK                         _______ _______ _______ _____ _____    ______ ____
ROOT
ATOM      1  C   UNL     1      48.518   8.859  12.729  0.00  0.00    +0.000 C 
ATOM      2  C   UNL     1      49.277   9.452  11.523  0.00  0.00    +0.000 C 
ATOM      3  C   UNL     1      48.538   9.859  13.907  0.00  0.00    +0.000 C 
ENDROOT
BRANCH   1   8
ATOM      4  C   UNL     1      45.011   7.166  12.435  0.00  0.00    +0.000 A 
ATOM      5  C   UNL     1      44.279   8.229  11.893  0.00  0.00    +0.000 A 
ATOM      6  C   UNL     1      44.899   9.429  11.539  0.00  0.00    +0.000 A 
ATOM      7  C   UNL     1      46.263   9.613  11.763  0.00  0.00    +0.000 A 
ATOM      8  C   UNL     1      47.034   8.603  12.354  0.00  0.00    +0.000 A 
ATOM      9  C   UNL     1      46.381   7.388  12.659  0.00  0.00    +0.000 A 
BRANCH   4  14
ATOM     10  C   UNL     1      44.586   3.957   9.077  0.00  0.00    +0.000 C 
ATOM     11  N   UNL     1      44.250   4.063  10.503  0.00  0.00    +0.000 NA
ATOM     12  C   UNL     1      45.486   4.221  11.282  0.00  0.00    +0.000 C 
ATOM     13  C   UNL     1      45.237   4.588  12.745  0.00  0.00    +0.000 C 
ATOM     14  C   UNL     1      44.357   5.850  12.877  0.00  0.00    +0.000 C 
ATOM     15  C   UNL     1      43.041   5.501  12.163  0.00  0.00    +0.000 C 
ATOM     16  C   UNL     1      43.284   5.155  10.693  0.00  0.00    +0.000 C 
ENDBRANCH   4  14
ENDBRANCH   1   8
BRANCH   1  17
ATOM     17  C   UNL     1      49.219   7.541  13.168  0.00  0.00    +0.000 C 
BRANCH  17  18
ATOM     18  N   UNL     1      49.781   7.545  14.525  0.00  0.00    +0.000 N 
ATOM     19  C   UNL     1      49.195   6.530  15.313  0.00  0.00    +0.000 A 
ATOM     20  C   UNL     1      49.582   6.403  16.643  0.00  0.00    +0.000 A 
ATOM     21  C   UNL     1      49.006   5.403  17.430  0.00  0.00    +0.000 A 
ATOM     22  C   UNL     1      48.053   4.544  16.877  0.00  0.00    +0.000 A 
ATOM     23  C   UNL     1      47.735   4.735  15.546  0.00  0.00    +0.000 A 
ATOM     24  N   UNL     1      48.287   5.694  14.765  0.00  0.00    +0.000 NA
ATOM     25  H   UNL     1      49.629   8.430  15.003  0.00  0.00    +0.000 HD
BRANCH  22  26
ATOM     26  C   UNL     1      47.433   3.493  17.715  0.00  0.00    +0.000 C 
ATOM     27  N   UNL     1      48.022   3.158  18.903  0.00  0.00    +0.000 N 
ATOM     28  O   UNL     1      46.410   2.922  17.357  0.00  0.00    +0.000 OA
ATOM     29  H   UNL     1      48.860   3.552  19.287  0.00  0.00    +0.000 HD
ATOM     30  H   UNL     1      47.566   2.431  19.438  0.00  0.00    +0.000 HD
ENDBRANCH  22  26
ENDBRANCH  17  18
ENDBRANCH   1  17
TORSDOF 5
ENDMDL
MODEL 4
REMARK VINA RESULT:    -6.747      4.848      6.834
REMARK INTER + INTRA:          -9.544
REMARK INTER:                  -8.782
REMARK INTRA:                  -0.762
REMARK UNBOUND:                -0.825
REMARK  Name = 
REMARK  8 active torsions:
REMARK  status: ('A' for Active; 'I' for Inactive)
REMARK    1  A    between atoms: C_1  and  N_2
REMARK    2  A    between atoms: C_5  and  C_6
REMARK    3  A    between atoms: C_10  and  C_11
REMARK    4  A    between atoms: C_11  and  C_12
REMARK    5  A    between atoms: C_11  and  C_13
REMARK    6  A    between atoms: C_11  and  C_14
REMARK    7  A    between atoms: C_14  and  N_15
REMARK    8  A    between atoms: C_19  and  C_20
REMARK                            x       y       z     vdW  Elec       q    Type
REMARK                         _______ _______ _______ _____ _____    ______ ____
ROOT
ATOM      1  C   UNL     1      48.127   3.814  17.107  0.00  0.00    +0.000 C 
ATOM      2  C   UNL     1      47.202   2.854  17.883  0.00  0.00    +0.000 C 
ATOM      3  C   UNL     1      47.965   5.253  17.646  0.00  0.00    +0.000 C 
ENDROOT
BRANCH   1   8
ATOM      4  C   UNL     1      51.898   3.921  18.119  0.00  0.00    +0.000 A 
ATOM      5  C   UNL     1      52.245   2.585  17.882  0.00  0.00    +0.000 A 
ATOM      6  C   UNL     1      51.331   1.688  17.325  0.00  0.00    +0.000 A 
ATOM      7  C   UNL     1      50.030   2.093  17.033  0.00  0.00    +0.000 A 
ATOM      8  C   UNL     1      49.611   3.403  17.302  0.00  0.00    +0.000 A 
ATOM      9  C   UNL     1      50.574   4.294  17.826  0.00  0.00    +0.000 A 
BRANCH   4  14
ATOM     10  C   UNL     1      54.618   6.260  15.139  0.00  0.00    +0.000 C 
ATOM     11  N   UNL     1      54.420   6.212  16.593  0.00  0.00    +0.000 NA
ATOM     12  C   UNL     1      53.052   6.647  16.910  0.00  0.00    +0.000 C 
ATOM     13  C   UNL     1      52.661   6.401  18.368  0.00  0.00    +0.000 C 
ATOM     14  C   UNL     1      52.859   4.924  18.771  0.00  0.00    +0.000 C 
ATOM     15  C   UNL     1      54.353   4.640  18.545  0.00  0.00    +0.000 C 
ATOM     16  C   UNL     1      54.743   4.865  17.083  0.00  0.00    +0.000 C 
ENDBRANCH   4  14
ENDBRANCH   1   8
BRANCH   1  17
ATOM     17  C   UNL     1      47.733   3.787  15.602  0.00  0.00    +0.000 C 
BRANCH  17  18
ATOM     18  N   UNL     1      47.090   5.006  15.093  0.00  0.00    +0.000 N 
ATOM     19  C   UNL     1      46.337   4.728  13.931  0.00  0.00    +0.000 A 
ATOM     20  C   UNL     1      45.682   5.773  13.289  0.00  0.00    +0.000 A 
ATOM     21  C   UNL     1      44.937   5.507  12.137  0.00  0.00    +0.000 A 
ATOM     22  C   UNL     1      44.856   4.202  11.645  0.00  0.00    +0.000 A 
ATOM     23  C   UNL     1      45.529   3.224  12.352  0.00  0.00    +0.000 A 
ATOM     24  N   UNL     1      46.252   3.461  13.474  0.00  0.00    +0.000 NA
ATOM     25  H   UNL     1      47.766   5.727  14.855  0.00  0.00    +0.000 HD
BRANCH  22  26
ATOM     26  C   UNL     1      44.077   3.923  10.418  0.00  0.00    +0.000 C 
ATOM     27  N   UNL     1      44.122   4.818   9.386  0.00  0.00    +0.000 N 
ATOM     28  O   UNL     1      43.394   2.911  10.320  0.00  0.00    +0.000 OA
ATOM     29  H   UNL     1      44.636   5.679   9.361  0.00  0.00    +0.000 HD
ATOM     30  H   UNL     1      43.569   4.589   8.571  0.00  0.00    +0.000 HD
ENDBRANCH  22  26
ENDBRANCH  17  18
ENDBRANCH   1  17
TORSDOF 5
ENDMDL
MODEL 5
REMARK VINA RESULT:    -6.626      3.854      6.110
REMARK INTER + INTRA:          -9.387
REMARK INTER:                  -8.522
REMARK INTRA:                  -0.865
REMARK UNBOUND:                -0.825
REMARK  Name = 
REMARK  8 active torsions:
REMARK  status: ('A' for Active; 'I' for Inactive)
REMARK    1  A    between atoms: C_1  and  N_2
REMARK    2  A    between atoms: C_5  and  C_6
REMARK    3  A    between atoms: C_10  and  C_11
REMARK    4  A    between atoms: C_11  and  C_12
REMARK    5  A    between atoms: C_11  and  C_13
REMARK    6  A    between atoms: C_11  and  C_14
REMARK    7  A    between atoms: C_14  and  N_15
REMARK    8  A    between atoms: C_19  and  C_20
REMARK                            x       y       z     vdW  Elec       q    Type
REMARK                         _______ _______ _______ _____ _____    ______ ____
ROOT
ATOM      1  C   UNL     1      48.924   7.941  13.910  0.00  0.00    +0.000 C 
ATOM      2  C   UNL     1      48.869   9.459  14.178  0.00  0.00    +0.000 C 
ATOM      3  C   UNL     1      49.785   7.657  12.659  0.00  0.00    +0.000 C 
ENDROOT
BRANCH   1   8
ATOM      4  C   UNL     1      49.478   5.511  16.917  0.00  0.00    +0.000 A 
ATOM      5  C   UNL     1      50.848   5.706  17.131  0.00  0.00    +0.000 A 
ATOM      6  C   UNL     1      51.566   6.655  16.401  0.00  0.00    +0.000 A 
ATOM      7  C   UNL     1      50.941   7.403  15.405  0.00  0.00    +0.000 A 
ATOM      8  C   UNL     1      49.584   7.209  15.110  0.00  0.00    +0.000 A 
ATOM      9  C   UNL     1      48.880   6.271  15.896  0.00  0.00    +0.000 A 
BRANCH   4  14
ATOM     10  C   UNL     1      47.742   6.891  21.020  0.00  0.00    +0.000 C 
ATOM     11  N   UNL     1      47.729   5.665  20.212  0.00  0.00    +0.000 NA
ATOM     12  C   UNL     1      47.038   5.929  18.942  0.00  0.00    +0.000 C 
ATOM     13  C   UNL     1      47.184   4.795  17.927  0.00  0.00    +0.000 C 
ATOM     14  C   UNL     1      48.665   4.446  17.667  0.00  0.00    +0.000 C 
ATOM     15  C   UNL     1      49.230   4.037  19.037  0.00  0.00    +0.000 C 
ATOM     16  C   UNL     1      49.106   5.177  20.050  0.00  0.00    +0.000 C 
ENDBRANCH   4  14
ENDBRANCH   1   8
BRANCH   1  17
ATOM     17  C   UNL     1      47.480   7.419  13.663  0.00  0.00    +0.000 C 
BRANCH  17  18
ATOM     18  N   UNL     1      47.009   7.493  12.274  0.00  0.00    +0.000 N 
ATOM     19  C   UNL     1      46.274   6.335  11.932  0.00  0.00    +0.000 A 
ATOM     20  C   UNL     1      45.776   6.213  10.640  0.00  0.00    +0.000 A 
ATOM     21  C   UNL     1      45.050   5.072  10.292  0.00  0.00    +0.000 A 
ATOM     22  C   UNL     1      44.832   4.069  11.241  0.00  0.00    +0.000 A 
ATOM     23  C   UNL     1      45.354   4.278  12.503  0.00  0.00    +0.000 A 
ATOM     24  N   UNL     1      46.055   5.381  12.861  0.00  0.00    +0.000 NA
ATOM     25  H   UNL     1      47.775   7.575  11.611  0.00  0.00    +0.000 HD
BRANCH  22  26
ATOM     26  C   UNL     1      44.073   2.854  10.869  0.00  0.00    +0.000 C 
ATOM     27  N   UNL     1      44.545   2.060   9.860  0.00  0.00    +0.000 N 
ATOM     28  O   UNL     1      43.035   2.556  11.446  0.00  0.00    +0.000 OA
ATOM     29  H   UNL     1      45.374   2.212   9.316  0.00  0.00    +0.000 HD
ATOM     30  H   UNL     1      43.991   1.244   9.637  0.00  0.00    +0.000 HD
ENDBRANCH  22  26
ENDBRANCH  17  18
ENDBRANCH   1  17
TORSDOF 5
ENDMDL
MODEL 6
REMARK VINA RESULT:    -6.364      3.536      6.068
REMARK INTER + INTRA:          -9.049
REMARK INTER:                  -8.205
REMARK INTRA:                  -0.844
REMARK UNBOUND:                -0.825
REMARK  Name = 
REMARK  8 active torsions:
REMARK  status: ('A' for Active; 'I' for Inactive)
REMARK    1  A    between atoms: C_1  and  N_2
REMARK    2  A    between atoms: C_5  and  C_6
REMARK    3  A    between atoms: C_10  and  C_11
REMARK    4  A    between atoms: C_11  and  C_12
REMARK    5  A    between atoms: C_11  and  C_13
REMARK    6  A    between atoms: C_11  and  C_14
REMARK    7  A    between atoms: C_14  and  N_15
REMARK    8  A    between atoms: C_19  and  C_20
REMARK                            x       y       z     vdW  Elec       q    Type
REMARK                         _______ _______ _______ _____ _____    ______ ____
ROOT
ATOM      1  C   UNL     1      48.939   7.952  13.600  0.00  0.00    +0.000 C 
ATOM      2  C   UNL     1      48.750   9.481  13.524  0.00  0.00    +0.000 C 
ATOM      3  C   UNL     1      49.672   7.447  12.337  0.00  0.00    +0.000 C 
ENDROOT
BRANCH   1   8
ATOM      4  C   UNL     1      50.029   6.578  17.090  0.00  0.00    +0.000 A 
ATOM      5  C   UNL     1      51.419   6.683  16.963  0.00  0.00    +0.000 A 
ATOM      6  C   UNL     1      52.001   7.263  15.834  0.00  0.00    +0.000 A 
ATOM      7  C   UNL     1      51.206   7.712  14.780  0.00  0.00    +0.000 A 
ATOM      8  C   UNL     1      49.811   7.580  14.829  0.00  0.00    +0.000 A 
ATOM      9  C   UNL     1      49.256   7.028  16.005  0.00  0.00    +0.000 A 
BRANCH   4  14
ATOM     10  C   UNL     1      48.646   2.182  16.372  0.00  0.00    +0.000 C 
ATOM     11  N   UNL     1      48.611   3.147  17.479  0.00  0.00    +0.000 NA
ATOM     12  C   UNL     1      49.986   3.479  17.876  0.00  0.00    +0.000 C 
ATOM     13  C   UNL     1      50.068   4.655  18.850  0.00  0.00    +0.000 C 
ATOM     14  C   UNL     1      49.355   5.907  18.295  0.00  0.00    +0.000 C 
ATOM     15  C   UNL     1      47.896   5.475  18.071  0.00  0.00    +0.000 C 
ATOM     16  C   UNL     1      47.809   4.312  17.081  0.00  0.00    +0.000 C 
ENDBRANCH   4  14
ENDBRANCH   1   8
BRANCH   1  17
ATOM     17  C   UNL     1      47.540   7.275  13.682  0.00  0.00    +0.000 C 
BRANCH  17  18
ATOM     18  N   UNL     1      46.649   7.523  12.542  0.00  0.00    +0.000 N 
ATOM     19  C   UNL     1      45.978   6.339  12.162  0.00  0.00    +0.000 A 
ATOM     20  C   UNL     1      45.114   6.375  11.074  0.00  0.00    +0.000 A 
ATOM     21  C   UNL     1      44.448   5.208  10.691  0.00  0.00    +0.000 A 
ATOM     22  C   UNL     1      44.655   4.023  11.401  0.00  0.00    +0.000 A 
ATOM     23  C   UNL     1      45.524   4.080  12.474  0.00  0.00    +0.000 A 
ATOM     24  N   UNL     1      46.173   5.203  12.865  0.00  0.00    +0.000 NA
ATOM     25  H   UNL     1      47.152   7.864  11.726  0.00  0.00    +0.000 HD
BRANCH  22  26
ATOM     26  C   UNL     1      43.960   2.784  10.986  0.00  0.00    +0.000 C 
ATOM     27  N   UNL     1      44.432   2.086   9.910  0.00  0.00    +0.000 N 
ATOM     28  O   UNL     1      42.972   2.383  11.589  0.00  0.00    +0.000 OA
ATOM     29  H   UNL     1      45.222   2.325   9.341  0.00  0.00    +0.000 HD
ATOM     30  H   UNL     1      43.921   1.249   9.660  0.00  0.00    +0.000 HD
ENDBRANCH  22  26
ENDBRANCH  17  18
ENDBRANCH   1  17
TORSDOF 5
ENDMDL
MODEL 7
REMARK VINA RESULT:    -6.364      3.528      6.171
REMARK INTER + INTRA:          -9.049
REMARK INTER:                  -8.227
REMARK INTRA:                  -0.822
REMARK UNBOUND:                -0.825
REMARK  Name = 
REMARK  8 active torsions:
REMARK  status: ('A' for Active; 'I' for Inactive)
REMARK    1  A    between atoms: C_1  and  N_2
REMARK    2  A    between atoms: C_5  and  C_6
REMARK    3  A    between atoms: C_10  and  C_11
REMARK    4  A    between atoms: C_11  and  C_12
REMARK    5  A    between atoms: C_11  and  C_13
REMARK    6  A    between atoms: C_11  and  C_14
REMARK    7  A    between atoms: C_14  and  N_15
REMARK    8  A    between atoms: C_19  and  C_20
REMARK                            x       y       z     vdW  Elec       q    Type
REMARK                         _______ _______ _______ _____ _____    ______ ____
ROOT
ATOM      1  C   UNL     1      48.880   8.553  14.252  0.00  0.00    +0.000 C 
ATOM      2  C   UNL     1      48.958  10.056  13.912  0.00  0.00    +0.000 C 
ATOM      3  C   UNL     1      50.178   7.843  13.806  0.00  0.00    +0.000 C 
ENDROOT
BRANCH   1   8
ATOM      4  C   UNL     1      49.413   7.202  17.878  0.00  0.00    +0.000 A 
ATOM      5  C   UNL     1      48.681   8.155  18.597  0.00  0.00    +0.000 A 
ATOM      6  C   UNL     1      47.955   9.154  17.943  0.00  0.00    +0.000 A 
ATOM      7  C   UNL     1      47.980   9.252  16.553  0.00  0.00    +0.000 A 
ATOM      8  C   UNL     1      48.742   8.359  15.786  0.00  0.00    +0.000 A 
ATOM      9  C   UNL     1      49.428   7.337  16.478  0.00  0.00    +0.000 A 
BRANCH   4  14
ATOM     10  C   UNL     1      47.583   2.913  17.760  0.00  0.00    +0.000 C 
ATOM     11  N   UNL     1      48.796   3.544  18.296  0.00  0.00    +0.000 NA
ATOM     12  C   UNL     1      49.593   4.085  17.186  0.00  0.00    +0.000 C 
ATOM     13  C   UNL     1      50.748   4.975  17.647  0.00  0.00    +0.000 C 
ATOM     14  C   UNL     1      50.259   6.119  18.561  0.00  0.00    +0.000 C 
ATOM     15  C   UNL     1      49.587   5.422  19.756  0.00  0.00    +0.000 C 
ATOM     16  C   UNL     1      48.418   4.547  19.301  0.00  0.00    +0.000 C 
ENDBRANCH   4  14
ENDBRANCH   1   8
BRANCH   1  17
ATOM     17  C   UNL     1      47.671   7.927  13.498  0.00  0.00    +0.000 C 
BRANCH  17  18
ATOM     18  N   UNL     1      47.210   6.630  14.009  0.00  0.00    +0.000 N 
ATOM     19  C   UNL     1      46.475   5.935  13.022  0.00  0.00    +0.000 A 
ATOM     20  C   UNL     1      45.930   4.696  13.338  0.00  0.00    +0.000 A 
ATOM     21  C   UNL     1      45.200   4.004  12.369  0.00  0.00    +0.000 A 
ATOM     22  C   UNL     1      45.027   4.558  11.098  0.00  0.00    +0.000 A 
ATOM     23  C   UNL     1      45.612   5.789  10.868  0.00  0.00    +0.000 A 
ATOM     24  N   UNL     1      46.329   6.473  11.792  0.00  0.00    +0.000 NA
ATOM     25  H   UNL     1      46.611   6.727  14.824  0.00  0.00    +0.000 HD
BRANCH  22  26
ATOM     26  C   UNL     1      44.243   3.830  10.076  0.00  0.00    +0.000 C 
ATOM     27  N   UNL     1      44.103   4.378   8.832  0.00  0.00    +0.000 N 
ATOM     28  O   UNL     1      43.719   2.753  10.332  0.00  0.00    +0.000 OA
ATOM     29  H   UNL     1      44.479   5.254   8.517  0.00  0.00    +0.000 HD
ATOM     30  H   UNL     1      43.554   3.848   8.168  0.00  0.00    +0.000 HD
ENDBRANCH  22  26
ENDBRANCH  17  18
ENDBRANCH   1  17
TORSDOF 5
ENDMDL
MODEL 8
REMARK VINA RESULT:    -6.321      4.131      8.604
REMARK INTER + INTRA:          -8.994
REMARK INTER:                  -8.351
REMARK INTRA:                  -0.642
REMARK UNBOUND:                -0.825
REMARK  Name = 
REMARK  8 active torsions:
REMARK  status: ('A' for Active; 'I' for Inactive)
REMARK    1  A    between atoms: C_1  and  N_2
REMARK    2  A    between atoms: C_5  and  C_6
REMARK    3  A    between atoms: C_10  and  C_11
REMARK    4  A    between atoms: C_11  and  C_12
REMARK    5  A    between atoms: C_11  and  C_13
REMARK    6  A    between atoms: C_11  and  C_14
REMARK    7  A    between atoms: C_14  and  N_15
REMARK    8  A    between atoms: C_19  and  C_20
REMARK                            x       y       z     vdW  Elec       q    Type
REMARK                         _______ _______ _______ _____ _____    ______ ____
ROOT
ATOM      1  C   UNL     1      48.067   7.577  13.047  0.00  0.00    +0.000 C 
ATOM      2  C   UNL     1      49.318   7.331  12.178  0.00  0.00    +0.000 C 
ATOM      3  C   UNL     1      47.222   8.721  12.442  0.00  0.00    +0.000 C 
ENDROOT
BRANCH   1   8
ATOM      4  C   UNL     1      45.209   5.033  12.264  0.00  0.00    +0.000 A 
ATOM      5  C   UNL     1      45.694   3.913  12.949  0.00  0.00    +0.000 A 
ATOM      6  C   UNL     1      46.856   3.983  13.721  0.00  0.00    +0.000 A 
ATOM      7  C   UNL     1      47.588   5.168  13.791  0.00  0.00    +0.000 A 
ATOM      8  C   UNL     1      47.179   6.304  13.080  0.00  0.00    +0.000 A 
ATOM      9  C   UNL     1      45.977   6.208  12.344  0.00  0.00    +0.000 A 
BRANCH   4  14
ATOM     10  C   UNL     1      45.374   1.873   8.838  0.00  0.00    +0.000 C 
ATOM     11  N   UNL     1      44.419   2.880   9.318  0.00  0.00    +0.000 NA
ATOM     12  C   UNL     1      43.994   2.534  10.682  0.00  0.00    +0.000 C 
ATOM     13  C   UNL     1      43.195   3.643  11.366  0.00  0.00    +0.000 C 
ATOM     14  C   UNL     1      43.962   4.982  11.370  0.00  0.00    +0.000 C 
ATOM     15  C   UNL     1      44.207   5.311   9.888  0.00  0.00    +0.000 C 
ATOM     16  C   UNL     1      45.025   4.214   9.205  0.00  0.00    +0.000 C 
ENDBRANCH   4  14
ENDBRANCH   1   8
BRANCH   1  17
ATOM     17  C   UNL     1      48.519   7.981  14.480  0.00  0.00    +0.000 C 
BRANCH  17  18
ATOM     18  N   UNL     1      49.845   7.496  14.885  0.00  0.00    +0.000 N 
ATOM     19  C   UNL     1      49.770   6.794  16.109  0.00  0.00    +0.000 A 
ATOM     20  C   UNL     1      50.938   6.288  16.666  0.00  0.00    +0.000 A 
ATOM     21  C   UNL     1      50.873   5.594  17.877  0.00  0.00    +0.000 A 
ATOM     22  C   UNL     1      49.641   5.415  18.512  0.00  0.00    +0.000 A 
ATOM     23  C   UNL     1      48.530   5.942  17.882  0.00  0.00    +0.000 A 
ATOM     24  N   UNL     1      48.572   6.612  16.705  0.00  0.00    +0.000 NA
ATOM     25  H   UNL     1      50.512   8.254  15.008  0.00  0.00    +0.000 HD
BRANCH  22  26
ATOM     26  C   UNL     1      49.575   4.692  19.802  0.00  0.00    +0.000 C 
ATOM     27  N   UNL     1      48.575   3.780  20.000  0.00  0.00    +0.000 N 
ATOM     28  O   UNL     1      50.395   4.902  20.687  0.00  0.00    +0.000 OA
ATOM     29  H   UNL     1      47.849   3.538  19.353  0.00  0.00    +0.000 HD
ATOM     30  H   UNL     1      48.566   3.315  20.898  0.00  0.00    +0.000 HD
ENDBRANCH  22  26
ENDBRANCH  17  18
ENDBRANCH   1  17
TORSDOF 5
ENDMDL
MODEL 9
REMARK VINA RESULT:    -6.287      3.452      5.748
REMARK INTER + INTRA:          -8.950
REMARK INTER:                  -8.443
REMARK INTRA:                  -0.507
REMARK UNBOUND:                -0.825
REMARK  Name = 
REMARK  8 active torsions:
REMARK  status: ('A' for Active; 'I' for Inactive)
REMARK    1  A    between atoms: C_1  and  N_2
REMARK    2  A    between atoms: C_5  and  C_6
REMARK    3  A    between atoms: C_10  and  C_11
REMARK    4  A    between atoms: C_11  and  C_12
REMARK    5  A    between atoms: C_11  and  C_13
REMARK    6  A    between atoms: C_11  and  C_14
REMARK    7  A    between atoms: C_14  and  N_15
REMARK    8  A    between atoms: C_19  and  C_20
REMARK                            x       y       z     vdW  Elec       q    Type
REMARK                         _______ _______ _______ _____ _____    ______ ____
ROOT
ATOM      1  C   UNL     1      48.036   4.082  17.282  0.00  0.00    +0.000 C 
ATOM      2  C   UNL     1      47.901   2.761  18.068  0.00  0.00    +0.000 C 
ATOM      3  C   UNL     1      47.236   5.199  17.988  0.00  0.00    +0.000 C 
ENDROOT
BRANCH   1   8
ATOM      4  C   UNL     1      51.226   6.316  16.995  0.00  0.00    +0.000 A 
ATOM      5  C   UNL     1      52.201   5.388  17.381  0.00  0.00    +0.000 A 
ATOM      6  C   UNL     1      51.871   4.056  17.638  0.00  0.00    +0.000 A 
ATOM      7  C   UNL     1      50.547   3.628  17.560  0.00  0.00    +0.000 A 
ATOM      8  C   UNL     1      49.522   4.527  17.233  0.00  0.00    +0.000 A 
ATOM      9  C   UNL     1      49.899   5.855  16.938  0.00  0.00    +0.000 A 
BRANCH   4  14
ATOM     10  C   UNL     1      48.493   8.415  13.852  0.00  0.00    +0.000 C 
ATOM     11  N   UNL     1      49.626   8.794  14.707  0.00  0.00    +0.000 NA
ATOM     12  C   UNL     1      49.235   8.659  16.117  0.00  0.00    +0.000 C 
ATOM     13  C   UNL     1      50.410   8.790  17.087  0.00  0.00    +0.000 C 
ATOM     14  C   UNL     1      51.543   7.797  16.749  0.00  0.00    +0.000 C 
ATOM     15  C   UNL     1      51.970   8.145  15.313  0.00  0.00    +0.000 C 
ATOM     16  C   UNL     1      50.802   7.994  14.337  0.00  0.00    +0.000 C 
ENDBRANCH   4  14
ENDBRANCH   1   8
BRANCH   1  17
ATOM     17  C   UNL     1      47.466   3.876  15.848  0.00  0.00    +0.000 C 
BRANCH  17  18
ATOM     18  N   UNL     1      47.023   5.097  15.163  0.00  0.00    +0.000 N 
ATOM     19  C   UNL     1      46.361   4.782  13.955  0.00  0.00    +0.000 A 
ATOM     20  C   UNL     1      45.899   5.818  13.151  0.00  0.00    +0.000 A 
ATOM     21  C   UNL     1      45.245   5.515  11.955  0.00  0.00    +0.000 A 
ATOM     22  C   UNL     1      45.062   4.182  11.579  0.00  0.00    +0.000 A 
ATOM     23  C   UNL     1      45.544   3.216  12.442  0.00  0.00    +0.000 A 
ATOM     24  N   UNL     1      46.175   3.490  13.610  0.00  0.00    +0.000 NA
ATOM     25  H   UNL     1      47.799   5.714  14.934  0.00  0.00    +0.000 HD
BRANCH  22  26
ATOM     26  C   UNL     1      44.380   3.861  10.305  0.00  0.00    +0.000 C 
ATOM     27  N   UNL     1      44.461   4.748   9.268  0.00  0.00    +0.000 N 
ATOM     28  O   UNL     1      43.747   2.821  10.172  0.00  0.00    +0.000 OA
ATOM     29  H   UNL     1      44.941   5.629   9.269  0.00  0.00    +0.000 HD
ATOM     30  H   UNL     1      43.974   4.490   8.420  0.00  0.00    +0.000 HD
ENDBRANCH  22  26
ENDBRANCH  17  18
ENDBRANCH   1  17
TORSDOF 5
ENDMDL
