MODEL 1
REMARK VINA RESULT:    -9.520      0.000      0.000
REMARK INTER + INTRA:         -12.721
REMARK INTER:                 -12.859
REMARK INTRA:                   0.138
REMARK UNBOUND:                 0.138
REMARK  Name = 
REMARK  6 active torsions:
REMARK  status: ('A' for Active; 'I' for Inactive)
REMARK    1  A    between atoms: C_2  and  C_3
REMARK    2  A    between atoms: C_6  and  C_7
REMARK    3  A    between atoms: C_11  and  C_12
REMARK    4  A    between atoms: C_12  and  N_13
REMARK    5  A    between atoms: N_13  and  C_14
REMARK    6  A    between atoms: C_17  and  C_18
REMARK                            x       y       z     vdW  Elec       q    Type
REMARK                         _______ _______ _______ _____ _____    ______ ____
ROOT
ATOM      1  C   UNL     1      44.085   4.826  11.676  0.00  0.00    +0.000 C 
ATOM      2  C   UNL     1      42.915   4.938  12.636  0.00  0.00    +0.000 C 
ATOM      3  C   UNL     1      43.596   3.624  12.485  0.00  0.00    +0.000 C 
ATOM      4  F   UNL     1      42.896   2.629  11.821  0.00  0.00    +0.000 F 
ENDROOT
BRANCH   1   9
ATOM      5  C   UNL     1      47.079   5.547  13.734  0.00  0.00    +0.000 A 
ATOM      6  N   UNL     1      47.837   6.381  13.001  0.00  0.00    +0.000 NA
ATOM      7  C   UNL     1      47.367   6.695  11.783  0.00  0.00    +0.000 A 
ATOM      8  C   UNL     1      46.175   6.225  11.285  0.00  0.00    +0.000 A 
ATOM      9  C   UNL     1      45.444   5.381  12.102  0.00  0.00    +0.000 A 
ATOM     10  N   UNL     1      45.909   5.028  13.322  0.00  0.00    +0.000 NA
BRANCH   5  14
ATOM     11  C   UNL     1      48.272   4.643  17.775  0.00  0.00    +0.000 A 
ATOM     12  C   UNL     1      48.795   5.761  17.123  0.00  0.00    +0.000 A 
ATOM     13  C   UNL     1      48.420   6.042  15.804  0.00  0.00    +0.000 A 
ATOM     14  C   UNL     1      47.513   5.224  15.106  0.00  0.00    +0.000 A 
ATOM     15  C   UNL     1      47.010   4.094  15.786  0.00  0.00    +0.000 A 
ATOM     16  C   UNL     1      47.382   3.805  17.103  0.00  0.00    +0.000 A 
BRANCH  11  18
ATOM     17  N   UNL     1      48.939   4.133  20.229  0.00  0.00    +0.000 NA
ATOM     18  C   UNL     1      48.641   4.361  19.132  0.00  0.00    +0.000 C 
ENDBRANCH  11  18
ENDBRANCH   5  14
ENDBRANCH   1   9
BRANCH   1  19
ATOM     19  N   UNL     1      43.907   4.726  10.209  0.00  0.00    +0.000 N 
ATOM     20  H   UNL     1      42.939   4.815   9.908  0.00  0.00    +0.000 HD
BRANCH  19  21
ATOM     21  C   UNL     1      44.680   3.930   9.344  0.00  0.00    +0.000 A 
ATOM     22  C   UNL     1      44.804   2.545   9.464  0.00  0.00    +0.000 A 
ATOM     23  C   UNL     1      45.682   1.829   8.636  0.00  0.00    +0.000 A 
ATOM     24  C   UNL     1      46.463   2.494   7.684  0.00  0.00    +0.000 A 
ATOM     25  C   UNL     1      46.364   3.880   7.570  0.00  0.00    +0.000 A 
ATOM     26  C   UNL     1      45.486   4.585   8.399  0.00  0.00    +0.000 A 
BRANCH  24  27
ATOM     27  C   UNL     1      47.426   1.706   6.870  0.00  0.00    +0.000 C 
ATOM     28  N   UNL     1      48.543   2.351   6.415  0.00  0.00    +0.000 N 
ATOM     29  O   UNL     1      47.223   0.530   6.598  0.00  0.00    +0.000 OA
ATOM     30  H   UNL     1      48.654   3.353   6.438  0.00  0.00    +0.000 HD
ATOM     31  H   UNL     1      49.157   1.820   5.811  0.00  0.00    +0.000 HD
ENDBRANCH  24  27
ENDBRANCH  19  21
ENDBRANCH   1  19
TORSDOF 6
ENDMDL
MODEL 2
REMARK VINA RESULT:    -8.323      2.815      3.543
REMARK INTER + INTRA:         -11.105
REMARK INTER:                 -10.831
REMARK INTRA:                  -0.273
REMARK UNBOUND:                 0.138
REMARK  Name = 
REMARK  6 active torsions:
REMARK  status: ('A' for Active; 'I' for Inactive)
REMARK    1  A    between atoms: C_2  and  C_3
REMARK    2  A    between atoms: C_6  and  C_7
REMARK    3  A    between atoms: C_11  and  C_12
REMARK    4  A    between atoms: C_12  and  N_13
REMARK    5  A    between atoms: N_13  and  C_14
REMARK    6  A    between atoms: C_17  and  C_18
REMARK                            x       y       z     vdW  Elec       q    Type
REMARK                         _______ _______ _______ _____ _____    ______ ____
ROOT
ATOM      1  C   UNL     1      44.005   4.809  11.776  0.00  0.00    +0.000 C 
ATOM      2  C   UNL     1      43.242   4.401  13.022  0.00  0.00    +0.000 C 
ATOM      3  C   UNL     1      44.630   3.900  12.835  0.00  0.00    +0.000 C 
ATOM      4  F   UNL     1      44.776   2.555  12.540  0.00  0.00    +0.000 F 
ENDROOT
BRANCH   1   9
ATOM      5  C   UNL     1      46.428   7.601  12.012  0.00  0.00    +0.000 A 
ATOM      6  N   UNL     1      45.744   8.709  11.675  0.00  0.00    +0.000 NA
ATOM      7  C   UNL     1      44.457   8.534  11.333  0.00  0.00    +0.000 A 
ATOM      8  C   UNL     1      43.834   7.309  11.331  0.00  0.00    +0.000 A 
ATOM      9  C   UNL     1      44.597   6.216  11.701  0.00  0.00    +0.000 A 
ATOM     10  N   UNL     1      45.902   6.364  12.023  0.00  0.00    +0.000 NA
BRANCH   5  14
ATOM     11  C   UNL     1      50.486   8.098  13.372  0.00  0.00    +0.000 A 
ATOM     12  C   UNL     1      50.123   8.501  12.086  0.00  0.00    +0.000 A 
ATOM     13  C   UNL     1      48.808   8.322  11.640  0.00  0.00    +0.000 A 
ATOM     14  C   UNL     1      47.825   7.745  12.463  0.00  0.00    +0.000 A 
ATOM     15  C   UNL     1      48.222   7.335  13.753  0.00  0.00    +0.000 A 
ATOM     16  C   UNL     1      49.534   7.508  14.205  0.00  0.00    +0.000 A 
BRANCH  11  18
ATOM     17  N   UNL     1      52.913   8.455  14.215  0.00  0.00    +0.000 NA
ATOM     18  C   UNL     1      51.828   8.294  13.838  0.00  0.00    +0.000 C 
ENDBRANCH  11  18
ENDBRANCH   5  14
ENDBRANCH   1   9
BRANCH   1  19
ATOM     19  N   UNL     1      43.768   4.183  10.455  0.00  0.00    +0.000 N 
ATOM     20  H   UNL     1      42.940   3.593  10.425  0.00  0.00    +0.000 HD
BRANCH  19  21
ATOM     21  C   UNL     1      44.767   3.773   9.553  0.00  0.00    +0.000 A 
ATOM     22  C   UNL     1      45.481   4.647   8.732  0.00  0.00    +0.000 A 
ATOM     23  C   UNL     1      46.383   4.157   7.775  0.00  0.00    +0.000 A 
ATOM     24  C   UNL     1      46.570   2.780   7.614  0.00  0.00    +0.000 A 
ATOM     25  C   UNL     1      45.846   1.896   8.414  0.00  0.00    +0.000 A 
ATOM     26  C   UNL     1      44.951   2.393   9.365  0.00  0.00    +0.000 A 
BRANCH  24  27
ATOM     27  C   UNL     1      47.487   2.301   6.546  0.00  0.00    +0.000 C 
ATOM     28  N   UNL     1      47.417   2.920   5.329  0.00  0.00    +0.000 N 
ATOM     29  O   UNL     1      48.265   1.375   6.737  0.00  0.00    +0.000 OA
ATOM     30  H   UNL     1      46.666   3.538   5.063  0.00  0.00    +0.000 HD
ATOM     31  H   UNL     1      48.003   2.542   4.595  0.00  0.00    +0.000 HD
ENDBRANCH  24  27
ENDBRANCH  19  21
ENDBRANCH   1  19
TORSDOF 6
ENDMDL
MODEL 3
REMARK VINA RESULT:    -7.645      3.087      8.076
REMARK INTER + INTRA:         -10.188
REMARK INTER:                  -9.618
REMARK INTRA:                  -0.570
REMARK UNBOUND:                 0.138
REMARK  Name = 
REMARK  6 active torsions:
REMARK  status: ('A' for Active; 'I' for Inactive)
REMARK    1  A    between atoms: C_2  and  C_3
REMARK    2  A    between atoms: C_6  and  C_7
REMARK    3  A    between atoms: C_11  and  C_12
REMARK    4  A    between atoms: C_12  and  N_13
REMARK    5  A    between atoms: N_13  and  C_14
REMARK    6  A    between atoms: C_17  and  C_18
REMARK                            x       y       z     vdW  Elec       q    Type
REMARK                         _______ _______ _______ _____ _____    ______ ____
ROOT
ATOM      1  C   UNL     1      46.021   7.637  12.605  0.00  0.00    +0.000 C 
ATOM      2  C   UNL     1      45.369   8.840  13.259  0.00  0.00    +0.000 C 
ATOM      3  C   UNL     1      46.039   9.014  11.943  0.00  0.00    +0.000 C 
ATOM      4  F   UNL     1      47.230   9.722  11.936  0.00  0.00    +0.000 F 
ENDROOT
BRANCH   1   9
ATOM      5  C   UNL     1      44.925   4.944  10.310  0.00  0.00    +0.000 A 
ATOM      6  N   UNL     1      43.618   4.757  10.561  0.00  0.00    +0.000 NA
ATOM      7  C   UNL     1      43.084   5.516  11.532  0.00  0.00    +0.000 A 
ATOM      8  C   UNL     1      43.798   6.454  12.240  0.00  0.00    +0.000 A 
ATOM      9  C   UNL     1      45.134   6.599  11.917  0.00  0.00    +0.000 A 
ATOM     10  N   UNL     1      45.702   5.828  10.961  0.00  0.00    +0.000 NA
BRANCH   5  14
ATOM     11  C   UNL     1      46.813   2.718   7.139  0.00  0.00    +0.000 A 
ATOM     12  C   UNL     1      46.867   4.113   7.146  0.00  0.00    +0.000 A 
ATOM     13  C   UNL     1      46.238   4.835   8.167  0.00  0.00    +0.000 A 
ATOM     14  C   UNL     1      45.546   4.187   9.207  0.00  0.00    +0.000 A 
ATOM     15  C   UNL     1      45.496   2.778   9.168  0.00  0.00    +0.000 A 
ATOM     16  C   UNL     1      46.121   2.050   8.150  0.00  0.00    +0.000 A 
BRANCH  11  18
ATOM     17  N   UNL     1      48.003   1.374   5.268  0.00  0.00    +0.000 NA
ATOM     18  C   UNL     1      47.471   1.976   6.104  0.00  0.00    +0.000 C 
ENDBRANCH  11  18
ENDBRANCH   5  14
ENDBRANCH   1   9
BRANCH   1  19
ATOM     19  N   UNL     1      47.340   7.114  13.032  0.00  0.00    +0.000 N 
ATOM     20  H   UNL     1      48.027   7.078  12.283  0.00  0.00    +0.000 HD
BRANCH  19  21
ATOM     21  C   UNL     1      47.550   6.132  14.017  0.00  0.00    +0.000 A 
ATOM     22  C   UNL     1      46.934   4.880  14.012  0.00  0.00    +0.000 A 
ATOM     23  C   UNL     1      47.101   3.993  15.086  0.00  0.00    +0.000 A 
ATOM     24  C   UNL     1      47.878   4.355  16.192  0.00  0.00    +0.000 A 
ATOM     25  C   UNL     1      48.481   5.612  16.219  0.00  0.00    +0.000 A 
ATOM     26  C   UNL     1      48.309   6.489  15.144  0.00  0.00    +0.000 A 
BRANCH  24  27
ATOM     27  C   UNL     1      47.979   3.412  17.337  0.00  0.00    +0.000 C 
ATOM     28  N   UNL     1      46.836   2.773  17.732  0.00  0.00    +0.000 N 
ATOM     29  O   UNL     1      49.038   3.223  17.921  0.00  0.00    +0.000 OA
ATOM     30  H   UNL     1      45.915   3.042  17.423  0.00  0.00    +0.000 HD
ATOM     31  H   UNL     1      46.908   2.182  18.550  0.00  0.00    +0.000 HD
ENDBRANCH  24  27
ENDBRANCH  19  21
ENDBRANCH   1  19
TORSDOF 6
ENDMDL
MODEL 4
REMARK VINA RESULT:    -7.545      3.351      5.229
REMARK INTER + INTRA:         -10.053
REMARK INTER:                  -9.231
REMARK INTRA:                  -0.822
REMARK UNBOUND:                 0.138
REMARK  Name = 
REMARK  6 active torsions:
REMARK  status: ('A' for Active; 'I' for Inactive)
REMARK    1  A    between atoms: C_2  and  C_3
REMARK    2  A    between atoms: C_6  and  C_7
REMARK    3  A    between atoms: C_11  and  C_12
REMARK    4  A    between atoms: C_12  and  N_13
REMARK    5  A    between atoms: N_13  and  C_14
REMARK    6  A    between atoms: C_17  and  C_18
REMARK                            x       y       z     vdW  Elec       q    Type
REMARK                         _______ _______ _______ _____ _____    ______ ____
ROOT
ATOM      1  C   UNL     1      48.213   7.548  13.615  0.00  0.00    +0.000 C 
ATOM      2  C   UNL     1      49.187   7.155  12.520  0.00  0.00    +0.000 C 
ATOM      3  C   UNL     1      48.931   8.599  12.769  0.00  0.00    +0.000 C 
ATOM      4  F   UNL     1      48.199   9.279  11.810  0.00  0.00    +0.000 F 
ENDROOT
BRANCH   1   9
ATOM      5  C   UNL     1      49.787   6.289  16.723  0.00  0.00    +0.000 A 
ATOM      6  N   UNL     1      49.478   7.183  17.679  0.00  0.00    +0.000 NA
ATOM      7  C   UNL     1      48.757   8.246  17.288  0.00  0.00    +0.000 A 
ATOM      8  C   UNL     1      48.324   8.436  15.997  0.00  0.00    +0.000 A 
ATOM      9  C   UNL     1      48.669   7.468  15.072  0.00  0.00    +0.000 A 
ATOM     10  N   UNL     1      49.418   6.402  15.435  0.00  0.00    +0.000 NA
BRANCH   5  14
ATOM     11  C   UNL     1      51.954   2.713  17.766  0.00  0.00    +0.000 A 
ATOM     12  C   UNL     1      50.593   2.645  17.463  0.00  0.00    +0.000 A 
ATOM     13  C   UNL     1      49.887   3.811  17.142  0.00  0.00    +0.000 A 
ATOM     14  C   UNL     1      50.518   5.067  17.109  0.00  0.00    +0.000 A 
ATOM     15  C   UNL     1      51.891   5.109  17.433  0.00  0.00    +0.000 A 
ATOM     16  C   UNL     1      52.602   3.949  17.756  0.00  0.00    +0.000 A 
BRANCH  11  18
ATOM     17  N   UNL     1      53.274   0.554  18.333  0.00  0.00    +0.000 NA
ATOM     18  C   UNL     1      52.684   1.519  18.079  0.00  0.00    +0.000 C 
ENDBRANCH  11  18
ENDBRANCH   5  14
ENDBRANCH   1   9
BRANCH   1  19
ATOM     19  N   UNL     1      46.744   7.479  13.439  0.00  0.00    +0.000 N 
ATOM     20  H   UNL     1      46.223   8.000  14.141  0.00  0.00    +0.000 HD
BRANCH  19  21
ATOM     21  C   UNL     1      46.032   6.375  12.935  0.00  0.00    +0.000 A 
ATOM     22  C   UNL     1      46.029   5.112  13.532  0.00  0.00    +0.000 A 
ATOM     23  C   UNL     1      45.389   4.028  12.914  0.00  0.00    +0.000 A 
ATOM     24  C   UNL     1      44.756   4.188  11.676  0.00  0.00    +0.000 A 
ATOM     25  C   UNL     1      44.771   5.439  11.059  0.00  0.00    +0.000 A 
ATOM     26  C   UNL     1      45.410   6.514  11.684  0.00  0.00    +0.000 A 
BRANCH  24  27
ATOM     27  C   UNL     1      44.144   2.999  11.025  0.00  0.00    +0.000 C 
ATOM     28  N   UNL     1      44.840   2.410  10.005  0.00  0.00    +0.000 N 
ATOM     29  O   UNL     1      43.051   2.570  11.370  0.00  0.00    +0.000 OA
ATOM     30  H   UNL     1      45.633   2.839   9.554  0.00  0.00    +0.000 HD
ATOM     31  H   UNL     1      44.383   1.641   9.531  0.00  0.00    +0.000 HD
ENDBRANCH  24  27
ENDBRANCH  19  21
ENDBRANCH   1  19
TORSDOF 6
ENDMDL
MODEL 5
REMARK VINA RESULT:    -7.152      3.733      6.155
REMARK INTER + INTRA:          -9.523
REMARK INTER:                  -8.826
REMARK INTRA:                  -0.697
REMARK UNBOUND:                 0.138
REMARK  Name = 
REMARK  6 active torsions:
REMARK  status: ('A' for Active; 'I' for Inactive)
REMARK    1  A    between atoms: C_2  and  C_3
REMARK    2  A    between atoms: C_6  and  C_7
REMARK    3  A    between atoms: C_11  and  C_12
REMARK    4  A    between atoms: C_12  and  N_13
REMARK    5  A    between atoms: N_13  and  C_14
REMARK    6  A    between atoms: C_17  and  C_18
REMARK                            x       y       z     vdW  Elec       q    Type
REMARK                         _______ _______ _______ _____ _____    ______ ____
ROOT
ATOM      1  C   UNL     1      48.928   7.294  15.111  0.00  0.00    +0.000 C 
ATOM      2  C   UNL     1      50.151   7.398  14.219  0.00  0.00    +0.000 C 
ATOM      3  C   UNL     1      49.735   8.588  15.008  0.00  0.00    +0.000 C 
ATOM      4  F   UNL     1      49.188   9.647  14.302  0.00  0.00    +0.000 F 
ENDROOT
BRANCH   1   9
ATOM      5  C   UNL     1      50.023   4.854  17.674  0.00  0.00    +0.000 A 
ATOM      6  N   UNL     1      49.296   5.124  18.772  0.00  0.00    +0.000 NA
ATOM      7  C   UNL     1      48.441   6.155  18.680  0.00  0.00    +0.000 A 
ATOM      8  C   UNL     1      48.277   6.906  17.540  0.00  0.00    +0.000 A 
ATOM      9  C   UNL     1      49.050   6.561  16.447  0.00  0.00    +0.000 A 
ATOM     10  N   UNL     1      49.938   5.543  16.522  0.00  0.00    +0.000 NA
BRANCH   5  14
ATOM     11  C   UNL     1      52.631   1.426  17.820  0.00  0.00    +0.000 A 
ATOM     12  C   UNL     1      53.105   2.685  18.195  0.00  0.00    +0.000 A 
ATOM     13  C   UNL     1      52.261   3.800  18.130  0.00  0.00    +0.000 A 
ATOM     14  C   UNL     1      50.927   3.689  17.696  0.00  0.00    +0.000 A 
ATOM     15  C   UNL     1      50.479   2.408  17.310  0.00  0.00    +0.000 A 
ATOM     16  C   UNL     1      51.317   1.290  17.371  0.00  0.00    +0.000 A 
BRANCH  11  18
ATOM     17  N   UNL     1      54.181  -0.647  17.968  0.00  0.00    +0.000 NA
ATOM     18  C   UNL     1      53.488   0.280  17.902  0.00  0.00    +0.000 C 
ENDBRANCH  11  18
ENDBRANCH   5  14
ENDBRANCH   1   9
BRANCH   1  19
ATOM     19  N   UNL     1      47.547   7.357  14.582  0.00  0.00    +0.000 N 
ATOM     20  H   UNL     1      46.893   7.832  15.200  0.00  0.00    +0.000 HD
BRANCH  19  21
ATOM     21  C   UNL     1      46.931   6.376  13.783  0.00  0.00    +0.000 A 
ATOM     22  C   UNL     1      45.998   6.659  12.784  0.00  0.00    +0.000 A 
ATOM     23  C   UNL     1      45.339   5.624  12.104  0.00  0.00    +0.000 A 
ATOM     24  C   UNL     1      45.594   4.286  12.426  0.00  0.00    +0.000 A 
ATOM     25  C   UNL     1      46.508   3.991  13.438  0.00  0.00    +0.000 A 
ATOM     26  C   UNL     1      47.160   5.030  14.110  0.00  0.00    +0.000 A 
BRANCH  24  27
ATOM     27  C   UNL     1      44.829   3.221  11.726  0.00  0.00    +0.000 C 
ATOM     28  N   UNL     1      43.885   2.543  12.447  0.00  0.00    +0.000 N 
ATOM     29  O   UNL     1      45.044   2.943  10.553  0.00  0.00    +0.000 OA
ATOM     30  H   UNL     1      43.813   2.592  13.451  0.00  0.00    +0.000 HD
ATOM     31  H   UNL     1      43.417   1.780  11.974  0.00  0.00    +0.000 HD
ENDBRANCH  24  27
ENDBRANCH  19  21
ENDBRANCH   1  19
TORSDOF 6
ENDMDL
MODEL 6
REMARK VINA RESULT:    -6.826      3.185      7.782
REMARK INTER + INTRA:          -9.083
REMARK INTER:                  -8.289
REMARK INTRA:                  -0.794
REMARK UNBOUND:                 0.138
REMARK  Name = 
REMARK  6 active torsions:
REMARK  status: ('A' for Active; 'I' for Inactive)
REMARK    1  A    between atoms: C_2  and  C_3
REMARK    2  A    between atoms: C_6  and  C_7
REMARK    3  A    between atoms: C_11  and  C_12
REMARK    4  A    between atoms: C_12  and  N_13
REMARK    5  A    between atoms: N_13  and  C_14
REMARK    6  A    between atoms: C_17  and  C_18
REMARK                            x       y       z     vdW  Elec       q    Type
REMARK                         _______ _______ _______ _____ _____    ______ ____
ROOT
ATOM      1  C   UNL     1      46.496   4.772  14.018  0.00  0.00    +0.000 C 
ATOM      2  C   UNL     1      47.472   3.692  14.446  0.00  0.00    +0.000 C 
ATOM      3  C   UNL     1      46.324   4.015  15.335  0.00  0.00    +0.000 C 
ATOM      4  F   UNL     1      46.614   4.680  16.515  0.00  0.00    +0.000 F 
ENDROOT
BRANCH   1   9
ATOM      5  C   UNL     1      45.020   3.782  10.768  0.00  0.00    +0.000 A 
ATOM      6  N   UNL     1      43.690   3.904  10.916  0.00  0.00    +0.000 NA
ATOM      7  C   UNL     1      43.260   4.296  12.127  0.00  0.00    +0.000 A 
ATOM      8  C   UNL     1      44.102   4.582  13.175  0.00  0.00    +0.000 A 
ATOM      9  C   UNL     1      45.459   4.445  12.944  0.00  0.00    +0.000 A 
ATOM     10  N   UNL     1      45.915   4.026  11.741  0.00  0.00    +0.000 NA
BRANCH   5  14
ATOM     11  C   UNL     1      46.654   2.718   6.925  0.00  0.00    +0.000 A 
ATOM     12  C   UNL     1      46.496   4.061   7.273  0.00  0.00    +0.000 A 
ATOM     13  C   UNL     1      45.949   4.404   8.515  0.00  0.00    +0.000 A 
ATOM     14  C   UNL     1      45.551   3.421   9.440  0.00  0.00    +0.000 A 
ATOM     15  C   UNL     1      45.710   2.073   9.057  0.00  0.00    +0.000 A 
ATOM     16  C   UNL     1      46.255   1.723   7.817  0.00  0.00    +0.000 A 
BRANCH  11  18
ATOM     17  N   UNL     1      47.696   2.078   4.638  0.00  0.00    +0.000 NA
ATOM     18  C   UNL     1      47.230   2.364   5.660  0.00  0.00    +0.000 C 
ENDBRANCH  11  18
ENDBRANCH   5  14
ENDBRANCH   1   9
BRANCH   1  19
ATOM     19  N   UNL     1      46.798   6.217  14.144  0.00  0.00    +0.000 N 
ATOM     20  H   UNL     1      45.974   6.795  14.292  0.00  0.00    +0.000 HD
BRANCH  19  21
ATOM     21  C   UNL     1      47.833   6.897  13.477  0.00  0.00    +0.000 A 
ATOM     22  C   UNL     1      47.820   7.188  12.112  0.00  0.00    +0.000 A 
ATOM     23  C   UNL     1      48.937   7.767  11.491  0.00  0.00    +0.000 A 
ATOM     24  C   UNL     1      50.093   8.050  12.227  0.00  0.00    +0.000 A 
ATOM     25  C   UNL     1      50.126   7.744  13.587  0.00  0.00    +0.000 A 
ATOM     26  C   UNL     1      49.008   7.167  14.198  0.00  0.00    +0.000 A 
BRANCH  24  27
ATOM     27  C   UNL     1      51.276   8.606  11.519  0.00  0.00    +0.000 C 
ATOM     28  N   UNL     1      52.407   7.838  11.479  0.00  0.00    +0.000 N 
ATOM     29  O   UNL     1      51.252   9.717  11.005  0.00  0.00    +0.000 OA
ATOM     30  H   UNL     1      52.542   7.019  12.052  0.00  0.00    +0.000 HD
ATOM     31  H   UNL     1      53.222   8.255  11.048  0.00  0.00    +0.000 HD
ENDBRANCH  24  27
ENDBRANCH  19  21
ENDBRANCH   1  19
TORSDOF 6
ENDMDL
MODEL 7
REMARK VINA RESULT:    -6.650      3.694      6.512
REMARK INTER + INTRA:          -8.845
REMARK INTER:                  -8.340
REMARK INTRA:                  -0.505
REMARK UNBOUND:                 0.138
REMARK  Name = 
REMARK  6 active torsions:
REMARK  status: ('A' for Active; 'I' for Inactive)
REMARK    1  A    between atoms: C_2  and  C_3
REMARK    2  A    between atoms: C_6  and  C_7
REMARK    3  A    between atoms: C_11  and  C_12
REMARK    4  A    between atoms: C_12  and  N_13
REMARK    5  A    between atoms: N_13  and  C_14
REMARK    6  A    between atoms: C_17  and  C_18
REMARK                            x       y       z     vdW  Elec       q    Type
REMARK                         _______ _______ _______ _____ _____    ______ ____
ROOT
ATOM      1  C   UNL     1      47.844   4.275  15.913  0.00  0.00    +0.000 C 
ATOM      2  C   UNL     1      47.060   3.730  17.092  0.00  0.00    +0.000 C 
ATOM      3  C   UNL     1      48.432   3.214  16.843  0.00  0.00    +0.000 C 
ATOM      4  F   UNL     1      48.537   1.916  16.371  0.00  0.00    +0.000 F 
ENDROOT
BRANCH   1   9
ATOM      5  C   UNL     1      49.618   7.394  14.995  0.00  0.00    +0.000 A 
ATOM      6  N   UNL     1      49.717   8.108  16.130  0.00  0.00    +0.000 NA
ATOM      7  C   UNL     1      49.161   7.564  17.225  0.00  0.00    +0.000 A 
ATOM      8  C   UNL     1      48.532   6.342  17.229  0.00  0.00    +0.000 A 
ATOM      9  C   UNL     1      48.480   5.660  16.027  0.00  0.00    +0.000 A 
ATOM     10  N   UNL     1      49.009   6.199  14.904  0.00  0.00    +0.000 NA
BRANCH   5  14
ATOM     11  C   UNL     1      51.570   8.825  11.429  0.00  0.00    +0.000 A 
ATOM     12  C   UNL     1      52.094   9.130  12.687  0.00  0.00    +0.000 A 
ATOM     13  C   UNL     1      51.448   8.680  13.844  0.00  0.00    +0.000 A 
ATOM     14  C   UNL     1      50.271   7.912  13.778  0.00  0.00    +0.000 A 
ATOM     15  C   UNL     1      49.757   7.629  12.495  0.00  0.00    +0.000 A 
ATOM     16  C   UNL     1      50.395   8.077  11.335  0.00  0.00    +0.000 A 
BRANCH  11  18
ATOM     17  N   UNL     1      52.779   9.632   9.282  0.00  0.00    +0.000 NA
ATOM     18  C   UNL     1      52.238   9.271  10.242  0.00  0.00    +0.000 C 
ENDBRANCH  11  18
ENDBRANCH   5  14
ENDBRANCH   1   9
BRANCH   1  19
ATOM     19  N   UNL     1      47.595   3.839  14.520  0.00  0.00    +0.000 N 
ATOM     20  H   UNL     1      48.437   3.791  13.950  0.00  0.00    +0.000 HD
BRANCH  19  21
ATOM     21  C   UNL     1      46.440   4.121  13.769  0.00  0.00    +0.000 A 
ATOM     22  C   UNL     1      45.814   3.199  12.927  0.00  0.00    +0.000 A 
ATOM     23  C   UNL     1      44.732   3.583  12.120  0.00  0.00    +0.000 A 
ATOM     24  C   UNL     1      44.270   4.904  12.132  0.00  0.00    +0.000 A 
ATOM     25  C   UNL     1      44.901   5.839  12.952  0.00  0.00    +0.000 A 
ATOM     26  C   UNL     1      45.978   5.447  13.753  0.00  0.00    +0.000 A 
BRANCH  24  27
ATOM     27  C   UNL     1      43.162   5.284  11.216  0.00  0.00    +0.000 C 
ATOM     28  N   UNL     1      42.111   5.977  11.750  0.00  0.00    +0.000 N 
ATOM     29  O   UNL     1      43.175   4.976  10.031  0.00  0.00    +0.000 OA
ATOM     30  H   UNL     1      41.958   6.076  12.742  0.00  0.00    +0.000 HD
ATOM     31  H   UNL     1      41.338   6.175  11.129  0.00  0.00    +0.000 HD
ENDBRANCH  24  27
ENDBRANCH  19  21
ENDBRANCH   1  19
TORSDOF 6
ENDMDL
