MODEL 1
REMARK VINA RESULT:    -7.027      0.000      0.000
REMARK INTER + INTRA:         -10.696
REMARK INTER:                  -9.902
REMARK INTRA:                  -0.794
REMARK UNBOUND:                -0.794
REMARK  Name = 
REMARK  7 active torsions:
REMARK  status: ('A' for Active; 'I' for Inactive)
REMARK    1  A    between atoms: C_2  and  C_3
REMARK    2  A    between atoms: C_3  and  N_4
REMARK    3  A    between atoms: C_3  and  C_23
REMARK    4  A    between atoms: C_5  and  C_7
REMARK    5  A    between atoms: N_13  and  C_14
REMARK    6  A    between atoms: C_14  and  C_15
REMARK    7  A    between atoms: C_15  and  C_16
REMARK                            x       y       z     vdW  Elec       q    Type
REMARK                         _______ _______ _______ _____ _____    ______ ____
ROOT
ATOM      1  C   UNL     1      47.566   6.055  13.401  0.00  0.00    +0.000 A 
ATOM      2  C   UNL     1      47.885   7.038  12.471  0.00  0.00    +0.000 A 
ATOM      3  S   UNL     1      49.012   8.214  12.990  0.00  0.00    +0.000 S 
ATOM      4  C   UNL     1      49.067   7.442  14.522  0.00  0.00    +0.000 A 
ATOM      5  N   UNL     1      49.768   7.710  15.652  0.00  0.00    +0.000 NA
ATOM      6  C   UNL     1      49.404   6.769  16.485  0.00  0.00    +0.000 A 
ATOM      7  N   UNL     1      48.455   5.921  15.954  0.00  0.00    +0.000 N 
ATOM      8  C   UNL     1      48.254   6.337  14.637  0.00  0.00    +0.000 A 
ENDROOT
BRANCH   1  10
ATOM      9  N   UNL     1      45.688   5.261  12.164  0.00  0.00    +0.000 N 
ATOM     10  C   UNL     1      46.626   4.973  13.134  0.00  0.00    +0.000 C 
ATOM     11  O   UNL     1      46.646   3.901  13.727  0.00  0.00    +0.000 OA
ATOM     12  H   UNL     1      45.866   6.015  11.514  0.00  0.00    +0.000 HD
BRANCH   9  13
ATOM     13  C   UNL     1      44.654   4.309  11.763  0.00  0.00    +0.000 C 
BRANCH  13  14
ATOM     14  C   UNL     1      44.927   3.744  10.374  0.00  0.00    +0.000 A 
ATOM     15  C   UNL     1      45.366   4.592   9.355  0.00  0.00    +0.000 A 
ATOM     16  C   UNL     1      45.625   4.060   8.094  0.00  0.00    +0.000 A 
ATOM     17  C   UNL     1      45.451   2.700   7.879  0.00  0.00    +0.000 A 
ATOM     18  C   UNL     1      45.010   1.923   8.937  0.00  0.00    +0.000 A 
ATOM     19  N   UNL     1      44.734   2.412  10.170  0.00  0.00    +0.000 NA
ENDBRANCH  13  14
BRANCH  13  21
ATOM     20  N   UNL     1      42.257   5.443  11.828  0.00  0.00    +0.000 NA
ATOM     21  C   UNL     1      43.303   4.942  11.822  0.00  0.00    +0.000 C 
ENDBRANCH  13  21
ENDBRANCH   9  13
ENDBRANCH   1  10
BRANCH   7  22
ATOM     22  C   UNL     1      47.884   4.805  16.691  0.00  0.00    +0.000 C 
BRANCH  22  23
ATOM     23  C   UNL     1      48.676   4.483  17.974  0.00  0.00    +0.000 C 
BRANCH  23  24
ATOM     24  C   UNL     1      49.907   3.623  17.788  0.00  0.00    +0.000 A 
ATOM     25  C   UNL     1      51.153   4.045  18.273  0.00  0.00    +0.000 A 
ATOM     26  C   UNL     1      52.245   3.196  18.155  0.00  0.00    +0.000 A 
ATOM     27  N   UNL     1      52.183   1.970  17.596  0.00  0.00    +0.000 NA
ATOM     28  C   UNL     1      50.976   1.577  17.141  0.00  0.00    +0.000 A 
ATOM     29  C   UNL     1      49.826   2.354  17.212  0.00  0.00    +0.000 A 
ENDBRANCH  23  24
ENDBRANCH  22  23
ENDBRANCH   7  22
TORSDOF 7
ENDMDL
MODEL 2
REMARK VINA RESULT:    -6.915      3.717      8.078
REMARK INTER + INTRA:         -10.539
REMARK INTER:                  -9.625
REMARK INTRA:                  -0.914
REMARK UNBOUND:                -0.794
REMARK  Name = 
REMARK  7 active torsions:
REMARK  status: ('A' for Active; 'I' for Inactive)
REMARK    1  A    between atoms: C_2  and  C_3
REMARK    2  A    between atoms: C_3  and  N_4
REMARK    3  A    between atoms: C_3  and  C_23
REMARK    4  A    between atoms: C_5  and  C_7
REMARK    5  A    between atoms: N_13  and  C_14
REMARK    6  A    between atoms: C_14  and  C_15
REMARK    7  A    between atoms: C_15  and  C_16
REMARK                            x       y       z     vdW  Elec       q    Type
REMARK                         _______ _______ _______ _____ _____    ______ ____
ROOT
ATOM      1  C   UNL     1      47.199   6.005  12.751  0.00  0.00    +0.000 A 
ATOM      2  C   UNL     1      47.483   5.781  14.094  0.00  0.00    +0.000 A 
ATOM      3  S   UNL     1      46.750   4.402  14.789  0.00  0.00    +0.000 S 
ATOM      4  C   UNL     1      45.982   4.090  13.286  0.00  0.00    +0.000 A 
ATOM      5  N   UNL     1      45.144   3.103  12.880  0.00  0.00    +0.000 NA
ATOM      6  C   UNL     1      44.900   3.387  11.626  0.00  0.00    +0.000 A 
ATOM      7  N   UNL     1      45.513   4.550  11.211  0.00  0.00    +0.000 N 
ATOM      8  C   UNL     1      46.266   5.002  12.296  0.00  0.00    +0.000 A 
ENDROOT
BRANCH   1  10
ATOM      9  N   UNL     1      49.089   7.336  12.166  0.00  0.00    +0.000 N 
ATOM     10  C   UNL     1      47.735   7.129  11.993  0.00  0.00    +0.000 C 
ATOM     11  O   UNL     1      47.050   7.847  11.277  0.00  0.00    +0.000 OA
ATOM     12  H   UNL     1      49.662   6.583  12.524  0.00  0.00    +0.000 HD
BRANCH   9  13
ATOM     13  C   UNL     1      49.809   8.420  11.501  0.00  0.00    +0.000 C 
BRANCH  13  14
ATOM     14  C   UNL     1      51.279   8.070  11.301  0.00  0.00    +0.000 A 
ATOM     15  C   UNL     1      51.666   7.308  10.196  0.00  0.00    +0.000 A 
ATOM     16  C   UNL     1      53.014   7.009  10.018  0.00  0.00    +0.000 A 
ATOM     17  C   UNL     1      53.944   7.479  10.935  0.00  0.00    +0.000 A 
ATOM     18  C   UNL     1      53.485   8.226  12.007  0.00  0.00    +0.000 A 
ATOM     19  N   UNL     1      52.180   8.521  12.217  0.00  0.00    +0.000 NA
ENDBRANCH  13  14
BRANCH  13  21
ATOM     20  N   UNL     1      49.534  10.700  12.828  0.00  0.00    +0.000 NA
ATOM     21  C   UNL     1      49.667   9.694  12.265  0.00  0.00    +0.000 C 
ENDBRANCH  13  21
ENDBRANCH   9  13
ENDBRANCH   1  10
BRANCH   7  22
ATOM     22  C   UNL     1      45.383   5.081   9.864  0.00  0.00    +0.000 C 
BRANCH  22  23
ATOM     23  C   UNL     1      44.838   4.034   8.871  0.00  0.00    +0.000 C 
BRANCH  23  24
ATOM     24  C   UNL     1      45.875   3.146   8.218  0.00  0.00    +0.000 A 
ATOM     25  C   UNL     1      45.873   1.763   8.441  0.00  0.00    +0.000 A 
ATOM     26  C   UNL     1      46.789   0.969   7.762  0.00  0.00    +0.000 A 
ATOM     27  N   UNL     1      47.695   1.452   6.888  0.00  0.00    +0.000 NA
ATOM     28  C   UNL     1      47.679   2.785   6.681  0.00  0.00    +0.000 A 
ATOM     29  C   UNL     1      46.803   3.662   7.311  0.00  0.00    +0.000 A 
ENDBRANCH  23  24
ENDBRANCH  22  23
ENDBRANCH   7  22
TORSDOF 7
ENDMDL
MODEL 3
REMARK VINA RESULT:    -6.813      2.637      7.307
REMARK INTER + INTRA:         -10.396
REMARK INTER:                  -8.945
REMARK INTRA:                  -1.450
REMARK UNBOUND:                -0.794
REMARK  Name = 
REMARK  7 active torsions:
REMARK  status: ('A' for Active; 'I' for Inactive)
REMARK    1  A    between atoms: C_2  and  C_3
REMARK    2  A    between atoms: C_3  and  N_4
REMARK    3  A    between atoms: C_3  and  C_23
REMARK    4  A    between atoms: C_5  and  C_7
REMARK    5  A    between atoms: N_13  and  C_14
REMARK    6  A    between atoms: C_14  and  C_15
REMARK    7  A    between atoms: C_15  and  C_16
REMARK                            x       y       z     vdW  Elec       q    Type
REMARK                         _______ _______ _______ _____ _____    ______ ____
ROOT
ATOM      1  C   UNL     1      46.736   5.160  13.670  0.00  0.00    +0.000 A 
ATOM      2  C   UNL     1      46.424   3.833  13.396  0.00  0.00    +0.000 A 
ATOM      3  S   UNL     1      45.206   3.583  12.223  0.00  0.00    +0.000 S 
ATOM      4  C   UNL     1      45.033   5.285  12.083  0.00  0.00    +0.000 A 
ATOM      5  N   UNL     1      44.231   6.058  11.309  0.00  0.00    +0.000 NA
ATOM      6  C   UNL     1      44.558   7.283  11.633  0.00  0.00    +0.000 A 
ATOM      7  N   UNL     1      45.514   7.338  12.625  0.00  0.00    +0.000 N 
ATOM      8  C   UNL     1      45.864   6.016  12.902  0.00  0.00    +0.000 A 
ENDROOT
BRANCH   1  10
ATOM      9  N   UNL     1      47.519   5.108  15.923  0.00  0.00    +0.000 N 
ATOM     10  C   UNL     1      47.748   5.563  14.640  0.00  0.00    +0.000 C 
ATOM     11  O   UNL     1      48.713   6.262  14.355  0.00  0.00    +0.000 OA
ATOM     12  H   UNL     1      46.894   4.325  16.064  0.00  0.00    +0.000 HD
BRANCH   9  13
ATOM     13  C   UNL     1      48.413   5.416  17.036  0.00  0.00    +0.000 C 
BRANCH  13  14
ATOM     14  C   UNL     1      49.478   4.338  17.208  0.00  0.00    +0.000 A 
ATOM     15  C   UNL     1      50.727   4.675  17.735  0.00  0.00    +0.000 A 
ATOM     16  C   UNL     1      51.684   3.678  17.900  0.00  0.00    +0.000 A 
ATOM     17  C   UNL     1      51.376   2.371  17.547  0.00  0.00    +0.000 A 
ATOM     18  C   UNL     1      50.118   2.114  17.029  0.00  0.00    +0.000 A 
ATOM     19  N   UNL     1      49.170   3.064  16.841  0.00  0.00    +0.000 NA
ENDBRANCH  13  14
BRANCH  13  21
ATOM     20  N   UNL     1      47.065   5.773  19.293  0.00  0.00    +0.000 NA
ATOM     21  C   UNL     1      47.639   5.602  18.298  0.00  0.00    +0.000 C 
ENDBRANCH  13  21
ENDBRANCH   9  13
ENDBRANCH   1  10
BRANCH   7  22
ATOM     22  C   UNL     1      46.030   8.585  13.163  0.00  0.00    +0.000 C 
BRANCH  22  23
ATOM     23  C   UNL     1      46.905   9.346  12.146  0.00  0.00    +0.000 C 
BRANCH  23  24
ATOM     24  C   UNL     1      48.383   9.024  12.179  0.00  0.00    +0.000 A 
ATOM     25  C   UNL     1      49.242   9.696  13.059  0.00  0.00    +0.000 A 
ATOM     26  C   UNL     1      50.576   9.320  13.119  0.00  0.00    +0.000 A 
ATOM     27  N   UNL     1      51.109   8.332  12.371  0.00  0.00    +0.000 NA
ATOM     28  C   UNL     1      50.268   7.691  11.534  0.00  0.00    +0.000 A 
ATOM     29  C   UNL     1      48.918   7.994  11.402  0.00  0.00    +0.000 A 
ENDBRANCH  23  24
ENDBRANCH  22  23
ENDBRANCH   7  22
TORSDOF 7
ENDMDL
MODEL 4
REMARK VINA RESULT:    -6.705      1.859      7.558
REMARK INTER + INTRA:         -10.243
REMARK INTER:                  -9.223
REMARK INTRA:                  -1.020
REMARK UNBOUND:                -0.794
REMARK  Name = 
REMARK  7 active torsions:
REMARK  status: ('A' for Active; 'I' for Inactive)
REMARK    1  A    between atoms: C_2  and  C_3
REMARK    2  A    between atoms: C_3  and  N_4
REMARK    3  A    between atoms: C_3  and  C_23
REMARK    4  A    between atoms: C_5  and  C_7
REMARK    5  A    between atoms: N_13  and  C_14
REMARK    6  A    between atoms: C_14  and  C_15
REMARK    7  A    between atoms: C_15  and  C_16
REMARK                            x       y       z     vdW  Elec       q    Type
REMARK                         _______ _______ _______ _____ _____    ______ ____
ROOT
ATOM      1  C   UNL     1      49.237   7.570  15.177  0.00  0.00    +0.000 A 
ATOM      2  C   UNL     1      50.185   8.581  15.079  0.00  0.00    +0.000 A 
ATOM      3  S   UNL     1      50.329   9.319  13.544  0.00  0.00    +0.000 S 
ATOM      4  C   UNL     1      49.129   8.247  12.949  0.00  0.00    +0.000 A 
ATOM      5  N   UNL     1      48.557   8.109  11.727  0.00  0.00    +0.000 NA
ATOM      6  C   UNL     1      47.699   7.132  11.884  0.00  0.00    +0.000 A 
ATOM      7  N   UNL     1      47.724   6.597  13.155  0.00  0.00    +0.000 N 
ATOM      8  C   UNL     1      48.641   7.357  13.880  0.00  0.00    +0.000 A 
ENDROOT
BRANCH   1  10
ATOM      9  N   UNL     1      49.234   5.477  16.322  0.00  0.00    +0.000 N 
ATOM     10  C   UNL     1      48.975   6.831  16.407  0.00  0.00    +0.000 C 
ATOM     11  O   UNL     1      48.544   7.352  17.428  0.00  0.00    +0.000 OA
ATOM     12  H   UNL     1      49.837   5.136  15.586  0.00  0.00    +0.000 HD
BRANCH   9  13
ATOM     13  C   UNL     1      49.023   4.566  17.445  0.00  0.00    +0.000 C 
BRANCH  13  14
ATOM     14  C   UNL     1      50.196   3.606  17.608  0.00  0.00    +0.000 A 
ATOM     15  C   UNL     1      50.060   2.272  17.214  0.00  0.00    +0.000 A 
ATOM     16  C   UNL     1      51.144   1.410  17.356  0.00  0.00    +0.000 A 
ATOM     17  C   UNL     1      52.336   1.893  17.876  0.00  0.00    +0.000 A 
ATOM     18  C   UNL     1      52.395   3.226  18.247  0.00  0.00    +0.000 A 
ATOM     19  N   UNL     1      51.354   4.086  18.137  0.00  0.00    +0.000 NA
ENDBRANCH  13  14
BRANCH  13  21
ATOM     20  N   UNL     1      46.727   3.265  17.171  0.00  0.00    +0.000 NA
ATOM     21  C   UNL     1      47.743   3.816  17.282  0.00  0.00    +0.000 C 
ENDBRANCH  13  21
ENDBRANCH   9  13
ENDBRANCH   1  10
BRANCH   7  22
ATOM     22  C   UNL     1      46.872   5.494  13.569  0.00  0.00    +0.000 C 
BRANCH  22  23
ATOM     23  C   UNL     1      45.385   5.748  13.248  0.00  0.00    +0.000 C 
BRANCH  23  24
ATOM     24  C   UNL     1      44.749   4.782  12.272  0.00  0.00    +0.000 A 
ATOM     25  C   UNL     1      45.078   4.821  10.910  0.00  0.00    +0.000 A 
ATOM     26  C   UNL     1      44.536   3.869  10.058  0.00  0.00    +0.000 A 
ATOM     27  N   UNL     1      43.699   2.892  10.463  0.00  0.00    +0.000 NA
ATOM     28  C   UNL     1      43.397   2.865  11.777  0.00  0.00    +0.000 A 
ATOM     29  C   UNL     1      43.888   3.773  12.708  0.00  0.00    +0.000 A 
ENDBRANCH  23  24
ENDBRANCH  22  23
ENDBRANCH   7  22
TORSDOF 7
ENDMDL
MODEL 5
REMARK VINA RESULT:    -6.424      2.609      6.435
REMARK INTER + INTRA:          -9.847
REMARK INTER:                  -8.020
REMARK INTRA:                  -1.827
REMARK UNBOUND:                -0.794
REMARK  Name = 
REMARK  7 active torsions:
REMARK  status: ('A' for Active; 'I' for Inactive)
REMARK    1  A    between atoms: C_2  and  C_3
REMARK    2  A    between atoms: C_3  and  N_4
REMARK    3  A    between atoms: C_3  and  C_23
REMARK    4  A    between atoms: C_5  and  C_7
REMARK    5  A    between atoms: N_13  and  C_14
REMARK    6  A    between atoms: C_14  and  C_15
REMARK    7  A    between atoms: C_15  and  C_16
REMARK                            x       y       z     vdW  Elec       q    Type
REMARK                         _______ _______ _______ _____ _____    ______ ____
ROOT
ATOM      1  C   UNL     1      49.345   6.369  16.255  0.00  0.00    +0.000 A 
ATOM      2  C   UNL     1      50.312   6.355  17.254  0.00  0.00    +0.000 A 
ATOM      3  S   UNL     1      50.400   4.924  18.185  0.00  0.00    +0.000 S 
ATOM      4  C   UNL     1      49.085   4.292  17.280  0.00  0.00    +0.000 A 
ATOM      5  N   UNL     1      48.434   3.103  17.331  0.00  0.00    +0.000 NA
ATOM      6  C   UNL     1      47.530   3.193  16.388  0.00  0.00    +0.000 A 
ATOM      7  N   UNL     1      47.538   4.417  15.754  0.00  0.00    +0.000 N 
ATOM      8  C   UNL     1      48.594   5.138  16.312  0.00  0.00    +0.000 A 
ENDROOT
BRANCH   1  10
ATOM      9  N   UNL     1      49.126   7.179  14.023  0.00  0.00    +0.000 N 
ATOM     10  C   UNL     1      49.128   7.503  15.365  0.00  0.00    +0.000 C 
ATOM     11  O   UNL     1      48.977   8.652  15.761  0.00  0.00    +0.000 OA
ATOM     12  H   UNL     1      48.972   6.218  13.747  0.00  0.00    +0.000 HD
BRANCH   9  13
ATOM     13  C   UNL     1      48.935   8.178  12.974  0.00  0.00    +0.000 C 
BRANCH  13  14
ATOM     14  C   UNL     1      47.509   8.154  12.437  0.00  0.00    +0.000 A 
ATOM     15  C   UNL     1      47.032   7.014  11.785  0.00  0.00    +0.000 A 
ATOM     16  C   UNL     1      45.723   7.000  11.313  0.00  0.00    +0.000 A 
ATOM     17  C   UNL     1      44.917   8.114  11.506  0.00  0.00    +0.000 A 
ATOM     18  C   UNL     1      45.459   9.208  12.158  0.00  0.00    +0.000 A 
ATOM     19  N   UNL     1      46.733   9.259  12.615  0.00  0.00    +0.000 NA
ENDBRANCH  13  14
BRANCH  13  21
ATOM     20  N   UNL     1      50.699   7.863  11.018  0.00  0.00    +0.000 NA
ATOM     21  C   UNL     1      49.920   7.979  11.870  0.00  0.00    +0.000 C 
ENDBRANCH  13  21
ENDBRANCH   9  13
ENDBRANCH   1  10
BRANCH   7  22
ATOM     22  C   UNL     1      46.620   4.763  14.682  0.00  0.00    +0.000 C 
BRANCH  22  23
ATOM     23  C   UNL     1      46.497   3.642  13.630  0.00  0.00    +0.000 C 
BRANCH  23  24
ATOM     24  C   UNL     1      45.280   3.713  12.733  0.00  0.00    +0.000 A 
ATOM     25  C   UNL     1      44.118   4.374  13.155  0.00  0.00    +0.000 A 
ATOM     26  C   UNL     1      43.050   4.488  12.276  0.00  0.00    +0.000 A 
ATOM     27  N   UNL     1      43.058   3.995  11.020  0.00  0.00    +0.000 NA
ATOM     28  C   UNL     1      44.186   3.368  10.628  0.00  0.00    +0.000 A 
ATOM     29  C   UNL     1      45.306   3.202  11.434  0.00  0.00    +0.000 A 
ENDBRANCH  23  24
ENDBRANCH  22  23
ENDBRANCH   7  22
TORSDOF 7
ENDMDL
MODEL 6
REMARK VINA RESULT:    -6.331      1.975      2.664
REMARK INTER + INTRA:          -9.716
REMARK INTER:                  -8.706
REMARK INTRA:                  -1.010
REMARK UNBOUND:                -0.794
REMARK  Name = 
REMARK  7 active torsions:
REMARK  status: ('A' for Active; 'I' for Inactive)
REMARK    1  A    between atoms: C_2  and  C_3
REMARK    2  A    between atoms: C_3  and  N_4
REMARK    3  A    between atoms: C_3  and  C_23
REMARK    4  A    between atoms: C_5  and  C_7
REMARK    5  A    between atoms: N_13  and  C_14
REMARK    6  A    between atoms: C_14  and  C_15
REMARK    7  A    between atoms: C_15  and  C_16
REMARK                            x       y       z     vdW  Elec       q    Type
REMARK                         _______ _______ _______ _____ _____    ______ ____
ROOT
ATOM      1  C   UNL     1      47.531   7.843  12.881  0.00  0.00    +0.000 A 
ATOM      2  C   UNL     1      46.978   8.824  12.067  0.00  0.00    +0.000 A 
ATOM      3  S   UNL     1      47.628  10.394  12.247  0.00  0.00    +0.000 S 
ATOM      4  C   UNL     1      48.660   9.793  13.480  0.00  0.00    +0.000 A 
ATOM      5  N   UNL     1      49.608  10.389  14.245  0.00  0.00    +0.000 NA
ATOM      6  C   UNL     1      50.066   9.422  14.998  0.00  0.00    +0.000 A 
ATOM      7  N   UNL     1      49.419   8.224  14.784  0.00  0.00    +0.000 N 
ATOM      8  C   UNL     1      48.511   8.451  13.749  0.00  0.00    +0.000 A 
ENDROOT
BRANCH   1  10
ATOM      9  N   UNL     1      45.794   6.262  12.467  0.00  0.00    +0.000 N 
ATOM     10  C   UNL     1      47.103   6.449  12.864  0.00  0.00    +0.000 C 
ATOM     11  O   UNL     1      47.828   5.517  13.190  0.00  0.00    +0.000 OA
ATOM     12  H   UNL     1      45.326   6.993  11.949  0.00  0.00    +0.000 HD
BRANCH   9  13
ATOM     13  C   UNL     1      45.177   4.939  12.396  0.00  0.00    +0.000 C 
BRANCH  13  14
ATOM     14  C   UNL     1      45.163   4.408  10.966  0.00  0.00    +0.000 A 
ATOM     15  C   UNL     1      44.708   3.112  10.712  0.00  0.00    +0.000 A 
ATOM     16  C   UNL     1      44.687   2.646   9.401  0.00  0.00    +0.000 A 
ATOM     17  C   UNL     1      45.109   3.480   8.374  0.00  0.00    +0.000 A 
ATOM     18  C   UNL     1      45.550   4.750   8.703  0.00  0.00    +0.000 A 
ATOM     19  N   UNL     1      45.597   5.228   9.970  0.00  0.00    +0.000 NA
ENDBRANCH  13  14
BRANCH  13  21
ATOM     20  N   UNL     1      42.715   5.025  13.379  0.00  0.00    +0.000 NA
ATOM     21  C   UNL     1      43.797   4.970  12.963  0.00  0.00    +0.000 C 
ENDBRANCH  13  21
ENDBRANCH   9  13
ENDBRANCH   1  10
BRANCH   7  22
ATOM     22  C   UNL     1      49.741   7.006  15.509  0.00  0.00    +0.000 C 
BRANCH  22  23
ATOM     23  C   UNL     1      49.005   6.915  16.861  0.00  0.00    +0.000 C 
BRANCH  23  24
ATOM     24  C   UNL     1      48.562   5.530  17.277  0.00  0.00    +0.000 A 
ATOM     25  C   UNL     1      47.796   4.735  16.414  0.00  0.00    +0.000 A 
ATOM     26  C   UNL     1      47.475   3.439  16.797  0.00  0.00    +0.000 A 
ATOM     27  N   UNL     1      47.859   2.887  17.965  0.00  0.00    +0.000 NA
ATOM     28  C   UNL     1      48.600   3.664  18.781  0.00  0.00    +0.000 A 
ATOM     29  C   UNL     1      48.973   4.970  18.489  0.00  0.00    +0.000 A 
ENDBRANCH  23  24
ENDBRANCH  22  23
ENDBRANCH   7  22
TORSDOF 7
ENDMDL
MODEL 7
REMARK VINA RESULT:    -6.271      3.159      5.536
REMARK INTER + INTRA:          -9.631
REMARK INTER:                  -8.223
REMARK INTRA:                  -1.408
REMARK UNBOUND:                -0.794
REMARK  Name = 
REMARK  7 active torsions:
REMARK  status: ('A' for Active; 'I' for Inactive)
REMARK    1  A    between atoms: C_2  and  C_3
REMARK    2  A    between atoms: C_3  and  N_4
REMARK    3  A    between atoms: C_3  and  C_23
REMARK    4  A    between atoms: C_5  and  C_7
REMARK    5  A    between atoms: N_13  and  C_14
REMARK    6  A    between atoms: C_14  and  C_15
REMARK    7  A    between atoms: C_15  and  C_16
REMARK                            x       y       z     vdW  Elec       q    Type
REMARK                         _______ _______ _______ _____ _____    ______ ____
ROOT
ATOM      1  C   UNL     1      47.687   4.257  16.144  0.00  0.00    +0.000 A 
ATOM      2  C   UNL     1      47.661   3.210  17.058  0.00  0.00    +0.000 A 
ATOM      3  S   UNL     1      48.323   3.550  18.597  0.00  0.00    +0.000 S 
ATOM      4  C   UNL     1      48.708   5.130  18.049  0.00  0.00    +0.000 A 
ATOM      5  N   UNL     1      49.295   6.188  18.662  0.00  0.00    +0.000 NA
ATOM      6  C   UNL     1      49.309   7.122  17.745  0.00  0.00    +0.000 A 
ATOM      7  N   UNL     1      48.792   6.696  16.540  0.00  0.00    +0.000 N 
ATOM      8  C   UNL     1      48.354   5.388  16.744  0.00  0.00    +0.000 A 
ENDROOT
BRANCH   1  10
ATOM      9  N   UNL     1      46.323   5.180  14.419  0.00  0.00    +0.000 N 
ATOM     10  C   UNL     1      47.167   4.151  14.786  0.00  0.00    +0.000 C 
ATOM     11  O   UNL     1      47.434   3.222  14.033  0.00  0.00    +0.000 OA
ATOM     12  H   UNL     1      46.347   6.047  14.938  0.00  0.00    +0.000 HD
BRANCH   9  13
ATOM     13  C   UNL     1      45.692   5.245  13.102  0.00  0.00    +0.000 C 
BRANCH  13  14
ATOM     14  C   UNL     1      45.502   6.688  12.649  0.00  0.00    +0.000 A 
ATOM     15  C   UNL     1      46.348   7.686  13.138  0.00  0.00    +0.000 A 
ATOM     16  C   UNL     1      46.172   8.998  12.705  0.00  0.00    +0.000 A 
ATOM     17  C   UNL     1      45.167   9.284  11.790  0.00  0.00    +0.000 A 
ATOM     18  C   UNL     1      44.366   8.243  11.352  0.00  0.00    +0.000 A 
ATOM     19  N   UNL     1      44.501   6.961  11.766  0.00  0.00    +0.000 NA
ENDBRANCH  13  14
BRANCH  13  21
ATOM     20  N   UNL     1      43.365   3.972  13.136  0.00  0.00    +0.000 NA
ATOM     21  C   UNL     1      44.391   4.515  13.104  0.00  0.00    +0.000 C 
ENDBRANCH  13  21
ENDBRANCH   9  13
ENDBRANCH   1  10
BRANCH   7  22
ATOM     22  C   UNL     1      48.711   7.548  15.365  0.00  0.00    +0.000 C 
BRANCH  22  23
ATOM     23  C   UNL     1      49.874   7.304  14.382  0.00  0.00    +0.000 C 
BRANCH  23  24
ATOM     24  C   UNL     1      50.048   8.345  13.298  0.00  0.00    +0.000 A 
ATOM     25  C   UNL     1      49.781   9.697  13.555  0.00  0.00    +0.000 A 
ATOM     26  C   UNL     1      50.028  10.634  12.562  0.00  0.00    +0.000 A 
ATOM     27  N   UNL     1      50.516  10.323  11.344  0.00  0.00    +0.000 NA
ATOM     28  C   UNL     1      50.774   9.019  11.115  0.00  0.00    +0.000 A 
ATOM     29  C   UNL     1      50.560   8.007  12.043  0.00  0.00    +0.000 A 
ENDBRANCH  23  24
ENDBRANCH  22  23
ENDBRANCH   7  22
TORSDOF 7
ENDMDL
MODEL 8
REMARK VINA RESULT:    -6.198      2.923      7.265
REMARK INTER + INTRA:          -9.528
REMARK INTER:                  -8.947
REMARK INTRA:                  -0.582
REMARK UNBOUND:                -0.794
REMARK  Name = 
REMARK  7 active torsions:
REMARK  status: ('A' for Active; 'I' for Inactive)
REMARK    1  A    between atoms: C_2  and  C_3
REMARK    2  A    between atoms: C_3  and  N_4
REMARK    3  A    between atoms: C_3  and  C_23
REMARK    4  A    between atoms: C_5  and  C_7
REMARK    5  A    between atoms: N_13  and  C_14
REMARK    6  A    between atoms: C_14  and  C_15
REMARK    7  A    between atoms: C_15  and  C_16
REMARK                            x       y       z     vdW  Elec       q    Type
REMARK                         _______ _______ _______ _____ _____    ______ ____
ROOT
ATOM      1  C   UNL     1      45.609   4.370  13.162  0.00  0.00    +0.000 A 
ATOM      2  C   UNL     1      44.688   3.395  12.795  0.00  0.00    +0.000 A 
ATOM      3  S   UNL     1      43.414   3.920  11.784  0.00  0.00    +0.000 S 
ATOM      4  C   UNL     1      44.055   5.510  11.850  0.00  0.00    +0.000 A 
ATOM      5  N   UNL     1      43.658   6.676  11.282  0.00  0.00    +0.000 NA
ATOM      6  C   UNL     1      44.548   7.548  11.685  0.00  0.00    +0.000 A 
ATOM      7  N   UNL     1      45.487   7.000  12.534  0.00  0.00    +0.000 N 
ATOM      8  C   UNL     1      45.190   5.639  12.618  0.00  0.00    +0.000 A 
ENDROOT
BRANCH   1  10
ATOM      9  N   UNL     1      46.576   4.456  15.340  0.00  0.00    +0.000 N 
ATOM     10  C   UNL     1      46.760   4.106  14.017  0.00  0.00    +0.000 C 
ATOM     11  O   UNL     1      47.811   3.632  13.605  0.00  0.00    +0.000 OA
ATOM     12  H   UNL     1      45.636   4.573  15.694  0.00  0.00    +0.000 HD
BRANCH   9  13
ATOM     13  C   UNL     1      47.617   4.279  16.350  0.00  0.00    +0.000 C 
BRANCH  13  14
ATOM     14  C   UNL     1      48.683   5.364  16.246  0.00  0.00    +0.000 A 
ATOM     15  C   UNL     1      48.387   6.567  15.599  0.00  0.00    +0.000 A 
ATOM     16  C   UNL     1      49.365   7.555  15.523  0.00  0.00    +0.000 A 
ATOM     17  C   UNL     1      50.608   7.329  16.099  0.00  0.00    +0.000 A 
ATOM     18  C   UNL     1      50.828   6.112  16.721  0.00  0.00    +0.000 A 
ATOM     19  N   UNL     1      49.904   5.125  16.797  0.00  0.00    +0.000 NA
ENDBRANCH  13  14
BRANCH  13  21
ATOM     20  N   UNL     1      48.739   1.884  16.140  0.00  0.00    +0.000 NA
ATOM     21  C   UNL     1      48.231   2.923  16.244  0.00  0.00    +0.000 C 
ENDBRANCH  13  21
ENDBRANCH   9  13
ENDBRANCH   1  10
BRANCH   7  22
ATOM     22  C   UNL     1      46.569   7.770  13.124  0.00  0.00    +0.000 C 
BRANCH  22  23
ATOM     23  C   UNL     1      47.044   8.915  12.206  0.00  0.00    +0.000 C 
BRANCH  23  24
ATOM     24  C   UNL     1      48.519   8.919  11.870  0.00  0.00    +0.000 A 
ATOM     25  C   UNL     1      49.222   7.715  11.721  0.00  0.00    +0.000 A 
ATOM     26  C   UNL     1      50.554   7.756  11.334  0.00  0.00    +0.000 A 
ATOM     27  N   UNL     1      51.228   8.898  11.088  0.00  0.00    +0.000 NA
ATOM     28  C   UNL     1      50.536  10.046  11.230  0.00  0.00    +0.000 A 
ATOM     29  C   UNL     1      49.201  10.110  11.613  0.00  0.00    +0.000 A 
ENDBRANCH  23  24
ENDBRANCH  22  23
ENDBRANCH   7  22
TORSDOF 7
ENDMDL
MODEL 9
REMARK VINA RESULT:    -6.049      1.889      2.415
REMARK INTER + INTRA:          -9.319
REMARK INTER:                  -8.264
REMARK INTRA:                  -1.055
REMARK UNBOUND:                -0.794
REMARK  Name = 
REMARK  7 active torsions:
REMARK  status: ('A' for Active; 'I' for Inactive)
REMARK    1  A    between atoms: C_2  and  C_3
REMARK    2  A    between atoms: C_3  and  N_4
REMARK    3  A    between atoms: C_3  and  C_23
REMARK    4  A    between atoms: C_5  and  C_7
REMARK    5  A    between atoms: N_13  and  C_14
REMARK    6  A    between atoms: C_14  and  C_15
REMARK    7  A    between atoms: C_15  and  C_16
REMARK                            x       y       z     vdW  Elec       q    Type
REMARK                         _______ _______ _______ _____ _____    ______ ____
ROOT
ATOM      1  C   UNL     1      48.701   7.350  13.064  0.00  0.00    +0.000 A 
ATOM      2  C   UNL     1      49.379   7.814  11.942  0.00  0.00    +0.000 A 
ATOM      3  S   UNL     1      50.997   8.300  12.200  0.00  0.00    +0.000 S 
ATOM      4  C   UNL     1      50.810   7.935  13.866  0.00  0.00    +0.000 A 
ATOM      5  N   UNL     1      51.665   8.013  14.916  0.00  0.00    +0.000 NA
ATOM      6  C   UNL     1      50.960   7.588  15.935  0.00  0.00    +0.000 A 
ATOM      7  N   UNL     1      49.661   7.278  15.594  0.00  0.00    +0.000 N 
ATOM      8  C   UNL     1      49.563   7.467  14.215  0.00  0.00    +0.000 A 
ENDROOT
BRANCH   1  10
ATOM      9  N   UNL     1      46.543   7.489  12.058  0.00  0.00    +0.000 N 
ATOM     10  C   UNL     1      47.317   6.893  13.034  0.00  0.00    +0.000 C 
ATOM     11  O   UNL     1      46.863   6.066  13.815  0.00  0.00    +0.000 OA
ATOM     12  H   UNL     1      46.997   7.938  11.274  0.00  0.00    +0.000 HD
BRANCH   9  13
ATOM     13  C   UNL     1      45.128   7.171  11.876  0.00  0.00    +0.000 C 
BRANCH  13  14
ATOM     14  C   UNL     1      44.941   5.977  10.947  0.00  0.00    +0.000 A 
ATOM     15  C   UNL     1      45.841   5.768   9.898  0.00  0.00    +0.000 A 
ATOM     16  C   UNL     1      45.667   4.666   9.066  0.00  0.00    +0.000 A 
ATOM     17  C   UNL     1      44.611   3.795   9.299  0.00  0.00    +0.000 A 
ATOM     18  C   UNL     1      43.760   4.069  10.356  0.00  0.00    +0.000 A 
ATOM     19  N   UNL     1      43.892   5.141  11.174  0.00  0.00    +0.000 NA
ENDBRANCH  13  14
BRANCH  13  21
ATOM     20  N   UNL     1      43.806   9.270  10.934  0.00  0.00    +0.000 NA
ATOM     21  C   UNL     1      44.382   8.360  11.368  0.00  0.00    +0.000 C 
ENDBRANCH  13  21
ENDBRANCH   9  13
ENDBRANCH   1  10
BRANCH   7  22
ATOM     22  C   UNL     1      48.680   6.798  16.554  0.00  0.00    +0.000 C 
BRANCH  22  23
ATOM     23  C   UNL     1      49.303   5.863  17.611  0.00  0.00    +0.000 C 
BRANCH  23  24
ATOM     24  C   UNL     1      49.337   4.394  17.250  0.00  0.00    +0.000 A 
ATOM     25  C   UNL     1      48.259   3.797  16.582  0.00  0.00    +0.000 A 
ATOM     26  C   UNL     1      48.359   2.467  16.196  0.00  0.00    +0.000 A 
ATOM     27  N   UNL     1      49.443   1.700  16.426  0.00  0.00    +0.000 NA
ATOM     28  C   UNL     1      50.473   2.291  17.064  0.00  0.00    +0.000 A 
ATOM     29  C   UNL     1      50.470   3.614  17.490  0.00  0.00    +0.000 A 
ENDBRANCH  23  24
ENDBRANCH  22  23
ENDBRANCH   7  22
TORSDOF 7
ENDMDL
