MODEL 1
REMARK VINA RESULT:    -8.248      0.000      0.000
REMARK INTER + INTRA:         -12.262
REMARK INTER:                 -11.382
REMARK INTRA:                  -0.880
REMARK UNBOUND:                -0.880
REMARK  Name = 
REMARK  7 active torsions:
REMARK  status: ('A' for Active; 'I' for Inactive)
REMARK    1  A    between atoms: C_2  and  C_20
REMARK    2  A    between atoms: N_3  and  CA_4
REMARK    3  A    between atoms: CA_4  and  C_5
REMARK    4  A    between atoms: CA_4  and  C_7
REMARK    5  A    between atoms: C_5  and  O_6
REMARK    6  A    between atoms: C_10  and  C_11
REMARK    7  A    between atoms: C_11  and  C_12
REMARK                            x       y       z     vdW  Elec       q    Type
REMARK                         _______ _______ _______ _____ _____    ______ ____
ROOT
ATOM      1  CA  UNL     1      46.345   7.066  12.725  0.00  0.00    +0.000 C 
ENDROOT
BRANCH   1   2
ATOM      2  C   UNL     1      45.986   5.919  11.805  0.00  0.00    +0.000 A 
ATOM      3  C   UNL     1      46.089   6.133  10.425  0.00  0.00    +0.000 A 
ATOM      4  C   UNL     1      45.644   5.180   9.515  0.00  0.00    +0.000 A 
ATOM      5  C   UNL     1      45.123   3.959   9.962  0.00  0.00    +0.000 A 
ATOM      6  C   UNL     1      45.058   3.718  11.341  0.00  0.00    +0.000 A 
ATOM      7  C   UNL     1      45.483   4.688  12.258  0.00  0.00    +0.000 A 
BRANCH   5   8
ATOM      8  C   UNL     1      44.618   2.932   8.975  0.00  0.00    +0.000 C 
BRANCH   8   9
ATOM      9  C   UNL     1      45.604   2.488   7.922  0.00  0.00    +0.000 A 
ATOM     10  C   UNL     1      46.348   1.320   8.076  0.00  0.00    +0.000 A 
ATOM     11  N   UNL     1      47.351   0.963   7.238  0.00  0.00    +0.000 NA
ATOM     12  C   UNL     1      47.585   1.821   6.222  0.00  0.00    +0.000 A 
ATOM     13  C   UNL     1      46.838   2.971   6.040  0.00  0.00    +0.000 A 
ATOM     14  N   UNL     1      45.839   3.331   6.881  0.00  0.00    +0.000 NA
ENDBRANCH   8   9
ENDBRANCH   5   8
ENDBRANCH   1   2
BRANCH   1  17
ATOM     15  O   UNL     1      48.974   6.484  13.322  0.00  0.00    +0.000 OA
ATOM     16  C   UNL     1      48.151   6.420  14.237  0.00  0.00    +0.000 C 
ATOM     17  N   UNL     1      46.811   6.611  14.022  0.00  0.00    +0.000 N 
ATOM     18  H   UNL     1      46.160   6.600  14.800  0.00  0.00    +0.000 HD
BRANCH  16  19
ATOM     19  C   UNL     1      48.570   6.112  15.599  0.00  0.00    +0.000 A 
ATOM     20  C   UNL     1      49.251   7.042  16.365  0.00  0.00    +0.000 A 
ATOM     21  S   UNL     1      49.516   6.525  17.972  0.00  0.00    +0.000 S 
ATOM     22  C   UNL     1      48.700   5.054  17.691  0.00  0.00    +0.000 A 
ATOM     23  N   UNL     1      48.495   4.159  18.692  0.00  0.00    +0.000 NA
ATOM     24  C   UNL     1      47.807   3.121  18.337  0.00  0.00    +0.000 A 
ATOM     25  N   UNL     1      47.340   2.885  17.071  0.00  0.00    +0.000 N 
ATOM     26  C   UNL     1      47.611   3.709  16.013  0.00  0.00    +0.000 A 
ATOM     27  O   UNL     1      47.338   3.383  14.855  0.00  0.00    +0.000 OA
ATOM     28  C   UNL     1      48.291   4.930  16.376  0.00  0.00    +0.000 A 
ATOM     29  H   UNL     1      46.859   2.023  16.850  0.00  0.00    +0.000 HD
ENDBRANCH  16  19
ENDBRANCH   1  17
BRANCH   1  30
ATOM     30  C   UNL     1      45.224   8.137  12.768  0.00  0.00    +0.000 C 
BRANCH  30  31
ATOM     31  O   UNL     1      45.694   9.462  13.018  0.00  0.00    +0.000 OA
ATOM     32  H   UNL     1      46.009   9.835  12.171  0.00  0.00    +0.000 HD
ENDBRANCH  30  31
ENDBRANCH   1  30
TORSDOF 7
ENDMDL
MODEL 2
REMARK VINA RESULT:    -7.739      2.219      3.059
REMARK INTER + INTRA:         -11.559
REMARK INTER:                 -10.345
REMARK INTRA:                  -1.214
REMARK UNBOUND:                -0.880
REMARK  Name = 
REMARK  7 active torsions:
REMARK  status: ('A' for Active; 'I' for Inactive)
REMARK    1  A    between atoms: C_2  and  C_20
REMARK    2  A    between atoms: N_3  and  CA_4
REMARK    3  A    between atoms: CA_4  and  C_5
REMARK    4  A    between atoms: CA_4  and  C_7
REMARK    5  A    between atoms: C_5  and  O_6
REMARK    6  A    between atoms: C_10  and  C_11
REMARK    7  A    between atoms: C_11  and  C_12
REMARK                            x       y       z     vdW  Elec       q    Type
REMARK                         _______ _______ _______ _____ _____    ______ ____
ROOT
ATOM      1  CA  UNL     1      48.050   6.835  14.031  0.00  0.00    +0.000 C 
ENDROOT
BRANCH   1   2
ATOM      2  C   UNL     1      47.033   6.302  13.044  0.00  0.00    +0.000 A 
ATOM      3  C   UNL     1      46.354   5.124  13.380  0.00  0.00    +0.000 A 
ATOM      4  C   UNL     1      45.511   4.497  12.469  0.00  0.00    +0.000 A 
ATOM      5  C   UNL     1      45.287   5.057  11.205  0.00  0.00    +0.000 A 
ATOM      6  C   UNL     1      45.928   6.260  10.877  0.00  0.00    +0.000 A 
ATOM      7  C   UNL     1      46.796   6.879  11.786  0.00  0.00    +0.000 A 
BRANCH   5   8
ATOM      8  C   UNL     1      44.389   4.365  10.206  0.00  0.00    +0.000 C 
BRANCH   8   9
ATOM      9  C   UNL     1      45.088   3.558   9.139  0.00  0.00    +0.000 A 
ATOM     10  C   UNL     1      45.274   2.184   9.276  0.00  0.00    +0.000 A 
ATOM     11  N   UNL     1      46.026   1.448   8.423  0.00  0.00    +0.000 NA
ATOM     12  C   UNL     1      46.590   2.139   7.410  0.00  0.00    +0.000 A 
ATOM     13  C   UNL     1      46.395   3.499   7.244  0.00  0.00    +0.000 A 
ATOM     14  N   UNL     1      45.648   4.236   8.100  0.00  0.00    +0.000 NA
ENDBRANCH   8   9
ENDBRANCH   5   8
ENDBRANCH   1   2
BRANCH   1  17
ATOM     15  O   UNL     1      50.095   6.309  15.806  0.00  0.00    +0.000 OA
ATOM     16  C   UNL     1      48.938   6.144  16.199  0.00  0.00    +0.000 C 
ATOM     17  N   UNL     1      47.859   6.300  15.367  0.00  0.00    +0.000 N 
ATOM     18  H   UNL     1      46.916   6.204  15.727  0.00  0.00    +0.000 HD
BRANCH  16  19
ATOM     19  C   UNL     1      48.665   5.748  17.575  0.00  0.00    +0.000 A 
ATOM     20  C   UNL     1      48.913   4.458  18.012  0.00  0.00    +0.000 A 
ATOM     21  S   UNL     1      48.659   4.255  19.688  0.00  0.00    +0.000 S 
ATOM     22  C   UNL     1      48.239   5.896  19.880  0.00  0.00    +0.000 A 
ATOM     23  N   UNL     1      47.975   6.418  21.105  0.00  0.00    +0.000 NA
ATOM     24  C   UNL     1      47.733   7.691  21.094  0.00  0.00    +0.000 A 
ATOM     25  N   UNL     1      47.698   8.473  19.970  0.00  0.00    +0.000 N 
ATOM     26  C   UNL     1      47.858   7.969  18.709  0.00  0.00    +0.000 A 
ATOM     27  O   UNL     1      47.641   8.655  17.708  0.00  0.00    +0.000 OA
ATOM     28  C   UNL     1      48.228   6.574  18.674  0.00  0.00    +0.000 A 
ATOM     29  H   UNL     1      47.444   9.450  20.029  0.00  0.00    +0.000 HD
ENDBRANCH  16  19
ENDBRANCH   1  17
BRANCH   1  30
ATOM     30  C   UNL     1      48.168   8.380  13.953  0.00  0.00    +0.000 C 
BRANCH  30  31
ATOM     31  O   UNL     1      47.243   9.077  14.788  0.00  0.00    +0.000 OA
ATOM     32  H   UNL     1      47.550   8.994  15.712  0.00  0.00    +0.000 HD
ENDBRANCH  30  31
ENDBRANCH   1  30
TORSDOF 7
ENDMDL
MODEL 3
REMARK VINA RESULT:    -7.560      1.321      2.183
REMARK INTER + INTRA:         -11.313
REMARK INTER:                 -10.587
REMARK INTRA:                  -0.725
REMARK UNBOUND:                -0.880
REMARK  Name = 
REMARK  7 active torsions:
REMARK  status: ('A' for Active; 'I' for Inactive)
REMARK    1  A    between atoms: C_2  and  C_20
REMARK    2  A    between atoms: N_3  and  CA_4
REMARK    3  A    between atoms: CA_4  and  C_5
REMARK    4  A    between atoms: CA_4  and  C_7
REMARK    5  A    between atoms: C_5  and  O_6
REMARK    6  A    between atoms: C_10  and  C_11
REMARK    7  A    between atoms: C_11  and  C_12
REMARK                            x       y       z     vdW  Elec       q    Type
REMARK                         _______ _______ _______ _____ _____    ______ ____
ROOT
ATOM      1  CA  UNL     1      46.173   6.504  12.787  0.00  0.00    +0.000 C 
ENDROOT
BRANCH   1   2
ATOM      2  C   UNL     1      45.707   5.593  11.671  0.00  0.00    +0.000 A 
ATOM      3  C   UNL     1      45.146   4.360  12.028  0.00  0.00    +0.000 A 
ATOM      4  C   UNL     1      44.826   3.412  11.063  0.00  0.00    +0.000 A 
ATOM      5  C   UNL     1      45.014   3.688   9.703  0.00  0.00    +0.000 A 
ATOM      6  C   UNL     1      45.533   4.937   9.335  0.00  0.00    +0.000 A 
ATOM      7  C   UNL     1      45.879   5.883  10.308  0.00  0.00    +0.000 A 
BRANCH   5   8
ATOM      8  C   UNL     1      44.687   2.650   8.655  0.00  0.00    +0.000 C 
BRANCH   8   9
ATOM      9  C   UNL     1      45.771   2.370   7.642  0.00  0.00    +0.000 A 
ATOM     10  C   UNL     1      46.696   1.347   7.838  0.00  0.00    +0.000 A 
ATOM     11  N   UNL     1      47.773   1.158   7.038  0.00  0.00    +0.000 NA
ATOM     12  C   UNL     1      47.894   2.034   6.018  0.00  0.00    +0.000 A 
ATOM     13  C   UNL     1      46.970   3.039   5.795  0.00  0.00    +0.000 A 
ATOM     14  N   UNL     1      45.896   3.232   6.597  0.00  0.00    +0.000 NA
ENDBRANCH   8   9
ENDBRANCH   5   8
ENDBRANCH   1   2
BRANCH   1  17
ATOM     15  O   UNL     1      48.650   5.933  13.854  0.00  0.00    +0.000 OA
ATOM     16  C   UNL     1      47.656   5.623  14.514  0.00  0.00    +0.000 C 
ATOM     17  N   UNL     1      46.384   5.791  14.033  0.00  0.00    +0.000 N 
ATOM     18  H   UNL     1      45.582   5.572  14.614  0.00  0.00    +0.000 HD
BRANCH  16  19
ATOM     19  C   UNL     1      47.795   5.036  15.841  0.00  0.00    +0.000 A 
ATOM     20  C   UNL     1      47.452   3.717  16.079  0.00  0.00    +0.000 A 
ATOM     21  S   UNL     1      47.828   3.198  17.663  0.00  0.00    +0.000 S 
ATOM     22  C   UNL     1      48.488   4.719  18.063  0.00  0.00    +0.000 A 
ATOM     23  N   UNL     1      49.070   4.941  19.269  0.00  0.00    +0.000 NA
ATOM     24  C   UNL     1      49.579   6.125  19.399  0.00  0.00    +0.000 A 
ATOM     25  N   UNL     1      49.526   7.110  18.449  0.00  0.00    +0.000 N 
ATOM     26  C   UNL     1      48.862   6.962  17.262  0.00  0.00    +0.000 A 
ATOM     27  O   UNL     1      48.673   7.918  16.506  0.00  0.00    +0.000 OA
ATOM     28  C   UNL     1      48.362   5.628  17.027  0.00  0.00    +0.000 A 
ATOM     29  H   UNL     1      49.893   8.032  18.640  0.00  0.00    +0.000 HD
ENDBRANCH  16  19
ENDBRANCH   1  17
BRANCH   1  30
ATOM     30  C   UNL     1      45.285   7.772  12.897  0.00  0.00    +0.000 C 
BRANCH  30  31
ATOM     31  O   UNL     1      45.963   8.987  12.573  0.00  0.00    +0.000 OA
ATOM     32  H   UNL     1      46.199   9.432  13.410  0.00  0.00    +0.000 HD
ENDBRANCH  30  31
ENDBRANCH   1  30
TORSDOF 7
ENDMDL
MODEL 4
REMARK VINA RESULT:    -7.335      2.816      4.471
REMARK INTER + INTRA:         -11.001
REMARK INTER:                  -9.807
REMARK INTRA:                  -1.195
REMARK UNBOUND:                -0.880
REMARK  Name = 
REMARK  7 active torsions:
REMARK  status: ('A' for Active; 'I' for Inactive)
REMARK    1  A    between atoms: C_2  and  C_20
REMARK    2  A    between atoms: N_3  and  CA_4
REMARK    3  A    between atoms: CA_4  and  C_5
REMARK    4  A    between atoms: CA_4  and  C_7
REMARK    5  A    between atoms: C_5  and  O_6
REMARK    6  A    between atoms: C_10  and  C_11
REMARK    7  A    between atoms: C_11  and  C_12
REMARK                            x       y       z     vdW  Elec       q    Type
REMARK                         _______ _______ _______ _____ _____    ______ ____
ROOT
ATOM      1  CA  UNL     1      47.161   5.754  14.140  0.00  0.00    +0.000 C 
ENDROOT
BRANCH   1   2
ATOM      2  C   UNL     1      46.388   5.414  12.883  0.00  0.00    +0.000 A 
ATOM      3  C   UNL     1      45.678   4.207  12.861  0.00  0.00    +0.000 A 
ATOM      4  C   UNL     1      45.061   3.759  11.698  0.00  0.00    +0.000 A 
ATOM      5  C   UNL     1      45.097   4.531  10.531  0.00  0.00    +0.000 A 
ATOM      6  C   UNL     1      45.767   5.761  10.557  0.00  0.00    +0.000 A 
ATOM      7  C   UNL     1      46.410   6.202  11.721  0.00  0.00    +0.000 A 
BRANCH   5   8
ATOM      8  C   UNL     1      44.446   4.034   9.261  0.00  0.00    +0.000 C 
BRANCH   8   9
ATOM      9  C   UNL     1      45.308   3.171   8.371  0.00  0.00    +0.000 A 
ATOM     10  C   UNL     1      45.575   1.842   8.693  0.00  0.00    +0.000 A 
ATOM     11  N   UNL     1      46.462   1.077   8.012  0.00  0.00    +0.000 NA
ATOM     12  C   UNL     1      47.079   1.691   6.981  0.00  0.00    +0.000 A 
ATOM     13  C   UNL     1      46.805   3.002   6.631  0.00  0.00    +0.000 A 
ATOM     14  N   UNL     1      45.923   3.768   7.315  0.00  0.00    +0.000 NA
ENDBRANCH   8   9
ENDBRANCH   5   8
ENDBRANCH   1   2
BRANCH   1  17
ATOM     15  O   UNL     1      48.366   7.635  15.758  0.00  0.00    +0.000 OA
ATOM     16  C   UNL     1      48.983   7.257  14.760  0.00  0.00    +0.000 C 
ATOM     17  N   UNL     1      48.434   6.388  13.852  0.00  0.00    +0.000 N 
ATOM     18  H   UNL     1      48.980   6.057  13.065  0.00  0.00    +0.000 HD
BRANCH  16  19
ATOM     19  C   UNL     1      50.330   7.743  14.487  0.00  0.00    +0.000 A 
ATOM     20  C   UNL     1      51.339   7.620  15.426  0.00  0.00    +0.000 A 
ATOM     21  S   UNL     1      52.864   8.122  14.844  0.00  0.00    +0.000 S 
ATOM     22  C   UNL     1      52.220   8.490  13.309  0.00  0.00    +0.000 A 
ATOM     23  N   UNL     1      53.016   8.904  12.290  0.00  0.00    +0.000 NA
ATOM     24  C   UNL     1      52.389   9.083  11.171  0.00  0.00    +0.000 A 
ATOM     25  N   UNL     1      51.040   8.919  10.992  0.00  0.00    +0.000 N 
ATOM     26  C   UNL     1      50.188   8.603  12.015  0.00  0.00    +0.000 A 
ATOM     27  O   UNL     1      48.965   8.641  11.870  0.00  0.00    +0.000 OA
ATOM     28  C   UNL     1      50.851   8.296  13.261  0.00  0.00    +0.000 A 
ATOM     29  H   UNL     1      50.607   9.134  10.104  0.00  0.00    +0.000 HD
ENDBRANCH  16  19
ENDBRANCH   1  17
BRANCH   1  30
ATOM     30  C   UNL     1      47.233   4.546  15.111  0.00  0.00    +0.000 C 
BRANCH  30  31
ATOM     31  O   UNL     1      47.130   4.902  16.490  0.00  0.00    +0.000 OA
ATOM     32  H   UNL     1      47.171   5.876  16.554  0.00  0.00    +0.000 HD
ENDBRANCH  30  31
ENDBRANCH   1  30
TORSDOF 7
ENDMDL
MODEL 5
REMARK VINA RESULT:    -7.319      2.542      3.670
REMARK INTER + INTRA:         -10.980
REMARK INTER:                  -9.706
REMARK INTRA:                  -1.274
REMARK UNBOUND:                -0.880
REMARK  Name = 
REMARK  7 active torsions:
REMARK  status: ('A' for Active; 'I' for Inactive)
REMARK    1  A    between atoms: C_2  and  C_20
REMARK    2  A    between atoms: N_3  and  CA_4
REMARK    3  A    between atoms: CA_4  and  C_5
REMARK    4  A    between atoms: CA_4  and  C_7
REMARK    5  A    between atoms: C_5  and  O_6
REMARK    6  A    between atoms: C_10  and  C_11
REMARK    7  A    between atoms: C_11  and  C_12
REMARK                            x       y       z     vdW  Elec       q    Type
REMARK                         _______ _______ _______ _____ _____    ______ ____
ROOT
ATOM      1  CA  UNL     1      46.678   5.696  13.786  0.00  0.00    +0.000 C 
ENDROOT
BRANCH   1   2
ATOM      2  C   UNL     1      46.049   5.292  12.469  0.00  0.00    +0.000 A 
ATOM      3  C   UNL     1      45.386   4.060  12.415  0.00  0.00    +0.000 A 
ATOM      4  C   UNL     1      44.906   3.555  11.211  0.00  0.00    +0.000 A 
ATOM      5  C   UNL     1      45.037   4.293  10.028  0.00  0.00    +0.000 A 
ATOM      6  C   UNL     1      45.660   5.547  10.081  0.00  0.00    +0.000 A 
ATOM      7  C   UNL     1      46.164   6.045  11.290  0.00  0.00    +0.000 A 
BRANCH   5   8
ATOM      8  C   UNL     1      44.536   3.735   8.716  0.00  0.00    +0.000 C 
BRANCH   8   9
ATOM      9  C   UNL     1      45.505   2.860   7.958  0.00  0.00    +0.000 A 
ATOM     10  C   UNL     1      45.813   1.575   8.397  0.00  0.00    +0.000 A 
ATOM     11  N   UNL     1      46.786   0.814   7.841  0.00  0.00    +0.000 NA
ATOM     12  C   UNL     1      47.448   1.387   6.813  0.00  0.00    +0.000 A 
ATOM     13  C   UNL     1      47.136   2.652   6.347  0.00  0.00    +0.000 A 
ATOM     14  N   UNL     1      46.167   3.415   6.906  0.00  0.00    +0.000 NA
ENDBRANCH   8   9
ENDBRANCH   5   8
ENDBRANCH   1   2
BRANCH   1  17
ATOM     15  O   UNL     1      47.116   8.416  13.921  0.00  0.00    +0.000 OA
ATOM     16  C   UNL     1      48.096   7.684  13.770  0.00  0.00    +0.000 C 
ATOM     17  N   UNL     1      47.973   6.328  13.610  0.00  0.00    +0.000 N 
ATOM     18  H   UNL     1      48.798   5.743  13.536  0.00  0.00    +0.000 HD
BRANCH  16  19
ATOM     19  C   UNL     1      49.444   8.239  13.733  0.00  0.00    +0.000 A 
ATOM     20  C   UNL     1      49.784   9.232  12.831  0.00  0.00    +0.000 A 
ATOM     21  S   UNL     1      51.366   9.835  13.058  0.00  0.00    +0.000 S 
ATOM     22  C   UNL     1      51.626   8.803  14.391  0.00  0.00    +0.000 A 
ATOM     23  N   UNL     1      52.774   8.861  15.114  0.00  0.00    +0.000 NA
ATOM     24  C   UNL     1      52.797   8.060  16.131  0.00  0.00    +0.000 A 
ATOM     25  N   UNL     1      51.795   7.187  16.465  0.00  0.00    +0.000 N 
ATOM     26  C   UNL     1      50.668   7.025  15.707  0.00  0.00    +0.000 A 
ATOM     27  O   UNL     1      49.871   6.110  15.924  0.00  0.00    +0.000 OA
ATOM     28  C   UNL     1      50.550   7.965  14.617  0.00  0.00    +0.000 A 
ATOM     29  H   UNL     1      51.904   6.547  17.240  0.00  0.00    +0.000 HD
ENDBRANCH  16  19
ENDBRANCH   1  17
BRANCH   1  30
ATOM     30  C   UNL     1      46.647   4.535  14.814  0.00  0.00    +0.000 C 
BRANCH  30  31
ATOM     31  O   UNL     1      47.176   4.879  16.096  0.00  0.00    +0.000 OA
ATOM     32  H   UNL     1      47.434   5.821  16.072  0.00  0.00    +0.000 HD
ENDBRANCH  30  31
ENDBRANCH   1  30
TORSDOF 7
ENDMDL
MODEL 6
REMARK VINA RESULT:    -7.094      1.410      1.992
REMARK INTER + INTRA:         -10.669
REMARK INTER:                  -9.497
REMARK INTRA:                  -1.173
REMARK UNBOUND:                -0.880
REMARK  Name = 
REMARK  7 active torsions:
REMARK  status: ('A' for Active; 'I' for Inactive)
REMARK    1  A    between atoms: C_2  and  C_20
REMARK    2  A    between atoms: N_3  and  CA_4
REMARK    3  A    between atoms: CA_4  and  C_5
REMARK    4  A    between atoms: CA_4  and  C_7
REMARK    5  A    between atoms: C_5  and  O_6
REMARK    6  A    between atoms: C_10  and  C_11
REMARK    7  A    between atoms: C_11  and  C_12
REMARK                            x       y       z     vdW  Elec       q    Type
REMARK                         _______ _______ _______ _____ _____    ______ ____
ROOT
ATOM      1  CA  UNL     1      47.783   7.690  13.740  0.00  0.00    +0.000 C 
ENDROOT
BRANCH   1   2
ATOM      2  C   UNL     1      46.727   6.976  12.924  0.00  0.00    +0.000 A 
ATOM      3  C   UNL     1      46.722   5.575  12.948  0.00  0.00    +0.000 A 
ATOM      4  C   UNL     1      45.877   4.847  12.117  0.00  0.00    +0.000 A 
ATOM      5  C   UNL     1      44.977   5.502  11.267  0.00  0.00    +0.000 A 
ATOM      6  C   UNL     1      44.944   6.903  11.270  0.00  0.00    +0.000 A 
ATOM      7  C   UNL     1      45.812   7.637  12.089  0.00  0.00    +0.000 A 
BRANCH   5   8
ATOM      8  C   UNL     1      44.074   4.711  10.348  0.00  0.00    +0.000 C 
BRANCH   8   9
ATOM      9  C   UNL     1      44.769   3.839   9.332  0.00  0.00    +0.000 A 
ATOM     10  C   UNL     1      44.818   2.454   9.480  0.00  0.00    +0.000 A 
ATOM     11  N   UNL     1      45.556   1.648   8.681  0.00  0.00    +0.000 NA
ATOM     12  C   UNL     1      46.251   2.278   7.711  0.00  0.00    +0.000 A 
ATOM     13  C   UNL     1      46.193   3.649   7.533  0.00  0.00    +0.000 A 
ATOM     14  N   UNL     1      45.459   4.457   8.335  0.00  0.00    +0.000 NA
ENDBRANCH   8   9
ENDBRANCH   5   8
ENDBRANCH   1   2
BRANCH   1  17
ATOM     15  O   UNL     1      50.282   7.068  14.727  0.00  0.00    +0.000 OA
ATOM     16  C   UNL     1      49.309   6.849  15.451  0.00  0.00    +0.000 C 
ATOM     17  N   UNL     1      48.024   7.048  15.019  0.00  0.00    +0.000 N 
ATOM     18  H   UNL     1      47.242   6.905  15.650  0.00  0.00    +0.000 HD
BRANCH  16  19
ATOM     19  C   UNL     1      49.486   6.340  16.806  0.00  0.00    +0.000 A 
ATOM     20  C   UNL     1      50.120   7.096  17.777  0.00  0.00    +0.000 A 
ATOM     21  S   UNL     1      50.088   6.370  19.322  0.00  0.00    +0.000 S 
ATOM     22  C   UNL     1      49.199   5.037  18.738  0.00  0.00    +0.000 A 
ATOM     23  N   UNL     1      48.764   4.058  19.573  0.00  0.00    +0.000 NA
ATOM     24  C   UNL     1      48.050   3.148  18.991  0.00  0.00    +0.000 A 
ATOM     25  N   UNL     1      47.764   3.113  17.652  0.00  0.00    +0.000 N 
ATOM     26  C   UNL     1      48.266   4.021  16.761  0.00  0.00    +0.000 A 
ATOM     27  O   UNL     1      48.147   3.864  15.544  0.00  0.00    +0.000 OA
ATOM     28  C   UNL     1      48.987   5.112  17.373  0.00  0.00    +0.000 A 
ATOM     29  H   UNL     1      47.249   2.339  17.254  0.00  0.00    +0.000 HD
ENDBRANCH  16  19
ENDBRANCH   1  17
BRANCH   1  30
ATOM     30  C   UNL     1      47.515   9.216  13.811  0.00  0.00    +0.000 C 
BRANCH  30  31
ATOM     31  O   UNL     1      48.432  10.004  13.050  0.00  0.00    +0.000 OA
ATOM     32  H   UNL     1      49.337   9.709  13.270  0.00  0.00    +0.000 HD
ENDBRANCH  30  31
ENDBRANCH   1  30
TORSDOF 7
ENDMDL
MODEL 7
REMARK VINA RESULT:    -6.921      3.734      9.751
REMARK INTER + INTRA:         -10.430
REMARK INTER:                  -9.362
REMARK INTRA:                  -1.068
REMARK UNBOUND:                -0.880
REMARK  Name = 
REMARK  7 active torsions:
REMARK  status: ('A' for Active; 'I' for Inactive)
REMARK    1  A    between atoms: C_2  and  C_20
REMARK    2  A    between atoms: N_3  and  CA_4
REMARK    3  A    between atoms: CA_4  and  C_5
REMARK    4  A    between atoms: CA_4  and  C_7
REMARK    5  A    between atoms: C_5  and  O_6
REMARK    6  A    between atoms: C_10  and  C_11
REMARK    7  A    between atoms: C_11  and  C_12
REMARK                            x       y       z     vdW  Elec       q    Type
REMARK                         _______ _______ _______ _____ _____    ______ ____
ROOT
ATOM      1  CA  UNL     1      48.024   4.438  16.219  0.00  0.00    +0.000 C 
ENDROOT
BRANCH   1   2
ATOM      2  C   UNL     1      48.127   5.341  17.429  0.00  0.00    +0.000 A 
ATOM      3  C   UNL     1      49.218   6.215  17.499  0.00  0.00    +0.000 A 
ATOM      4  C   UNL     1      49.459   6.973  18.640  0.00  0.00    +0.000 A 
ATOM      5  C   UNL     1      48.585   6.912  19.733  0.00  0.00    +0.000 A 
ATOM      6  C   UNL     1      47.465   6.073  19.653  0.00  0.00    +0.000 A 
ATOM      7  C   UNL     1      47.236   5.291  18.513  0.00  0.00    +0.000 A 
BRANCH   5   8
ATOM      8  C   UNL     1      48.858   7.717  20.982  0.00  0.00    +0.000 C 
BRANCH   8   9
ATOM      9  C   UNL     1      48.243   9.094  21.027  0.00  0.00    +0.000 A 
ATOM     10  C   UNL     1      46.865   9.267  21.139  0.00  0.00    +0.000 A 
ATOM     11  N   UNL     1      46.257  10.473  21.029  0.00  0.00    +0.000 NA
ATOM     12  C   UNL     1      47.084  11.516  20.805  0.00  0.00    +0.000 A 
ATOM     13  C   UNL     1      48.456  11.365  20.718  0.00  0.00    +0.000 A 
ATOM     14  N   UNL     1      49.064  10.160  20.822  0.00  0.00    +0.000 NA
ENDBRANCH   8   9
ENDBRANCH   5   8
ENDBRANCH   1   2
BRANCH   1  17
ATOM     15  O   UNL     1      48.478   5.984  13.980  0.00  0.00    +0.000 OA
ATOM     16  C   UNL     1      47.331   5.571  14.169  0.00  0.00    +0.000 C 
ATOM     17  N   UNL     1      46.990   4.866  15.294  0.00  0.00    +0.000 N 
ATOM     18  H   UNL     1      46.051   4.497  15.403  0.00  0.00    +0.000 HD
BRANCH  16  19
ATOM     19  C   UNL     1      46.272   5.840  13.204  0.00  0.00    +0.000 A 
ATOM     20  C   UNL     1      45.920   7.136  12.870  0.00  0.00    +0.000 A 
ATOM     21  S   UNL     1      44.761   7.217  11.619  0.00  0.00    +0.000 S 
ATOM     22  C   UNL     1      44.722   5.519  11.470  0.00  0.00    +0.000 A 
ATOM     23  N   UNL     1      43.976   4.911  10.512  0.00  0.00    +0.000 NA
ATOM     24  C   UNL     1      44.099   3.622  10.487  0.00  0.00    +0.000 A 
ATOM     25  N   UNL     1      44.869   2.891  11.352  0.00  0.00    +0.000 N 
ATOM     26  C   UNL     1      45.555   3.453  12.394  0.00  0.00    +0.000 A 
ATOM     27  O   UNL     1      46.088   2.761  13.263  0.00  0.00    +0.000 OA
ATOM     28  C   UNL     1      45.529   4.897  12.406  0.00  0.00    +0.000 A 
ATOM     29  H   UNL     1      44.872   1.880  11.313  0.00  0.00    +0.000 HD
ENDBRANCH  16  19
ENDBRANCH   1  17
BRANCH   1  30
ATOM     30  C   UNL     1      47.964   2.942  16.625  0.00  0.00    +0.000 C 
BRANCH  30  31
ATOM     31  O   UNL     1      48.854   2.103  15.889  0.00  0.00    +0.000 OA
ATOM     32  H   UNL     1      49.766   2.303  16.180  0.00  0.00    +0.000 HD
ENDBRANCH  30  31
ENDBRANCH   1  30
TORSDOF 7
ENDMDL
MODEL 8
REMARK VINA RESULT:    -6.786      3.510      5.373
REMARK INTER + INTRA:         -10.245
REMARK INTER:                  -9.572
REMARK INTRA:                  -0.673
REMARK UNBOUND:                -0.880
REMARK  Name = 
REMARK  7 active torsions:
REMARK  status: ('A' for Active; 'I' for Inactive)
REMARK    1  A    between atoms: C_2  and  C_20
REMARK    2  A    between atoms: N_3  and  CA_4
REMARK    3  A    between atoms: CA_4  and  C_5
REMARK    4  A    between atoms: CA_4  and  C_7
REMARK    5  A    between atoms: C_5  and  O_6
REMARK    6  A    between atoms: C_10  and  C_11
REMARK    7  A    between atoms: C_11  and  C_12
REMARK                            x       y       z     vdW  Elec       q    Type
REMARK                         _______ _______ _______ _____ _____    ______ ____
ROOT
ATOM      1  CA  UNL     1      48.458   5.251  17.064  0.00  0.00    +0.000 C 
ENDROOT
BRANCH   1   2
ATOM      2  C   UNL     1      48.081   5.502  15.619  0.00  0.00    +0.000 A 
ATOM      3  C   UNL     1      48.593   6.651  15.003  0.00  0.00    +0.000 A 
ATOM      4  C   UNL     1      48.182   7.025  13.728  0.00  0.00    +0.000 A 
ATOM      5  C   UNL     1      47.277   6.232  13.011  0.00  0.00    +0.000 A 
ATOM      6  C   UNL     1      46.794   5.057  13.603  0.00  0.00    +0.000 A 
ATOM      7  C   UNL     1      47.190   4.693  14.897  0.00  0.00    +0.000 A 
BRANCH   5   8
ATOM      8  C   UNL     1      46.812   6.649  11.635  0.00  0.00    +0.000 C 
BRANCH   8   9
ATOM      9  C   UNL     1      45.478   6.099  11.194  0.00  0.00    +0.000 A 
ATOM     10  C   UNL     1      44.284   6.604  11.703  0.00  0.00    +0.000 A 
ATOM     11  N   UNL     1      43.075   6.043  11.456  0.00  0.00    +0.000 NA
ATOM     12  C   UNL     1      43.099   4.948  10.668  0.00  0.00    +0.000 A 
ATOM     13  C   UNL     1      44.273   4.449  10.132  0.00  0.00    +0.000 A 
ATOM     14  N   UNL     1      45.482   5.006  10.383  0.00  0.00    +0.000 NA
ENDBRANCH   8   9
ENDBRANCH   5   8
ENDBRANCH   1   2
BRANCH   1  17
ATOM     15  O   UNL     1      49.861   5.225  19.438  0.00  0.00    +0.000 OA
ATOM     16  C   UNL     1      50.403   4.733  18.446  0.00  0.00    +0.000 C 
ATOM     17  N   UNL     1      49.821   4.772  17.206  0.00  0.00    +0.000 N 
ATOM     18  H   UNL     1      50.266   4.319  16.416  0.00  0.00    +0.000 HD
BRANCH  16  19
ATOM     19  C   UNL     1      51.713   4.102  18.548  0.00  0.00    +0.000 A 
ATOM     20  C   UNL     1      52.752   4.713  19.228  0.00  0.00    +0.000 A 
ATOM     21  S   UNL     1      54.147   3.735  19.345  0.00  0.00    +0.000 S 
ATOM     22  C   UNL     1      53.388   2.455  18.513  0.00  0.00    +0.000 A 
ATOM     23  N   UNL     1      54.012   1.263  18.331  0.00  0.00    +0.000 NA
ATOM     24  C   UNL     1      53.283   0.372  17.737  0.00  0.00    +0.000 A 
ATOM     25  N   UNL     1      52.008   0.580  17.280  0.00  0.00    +0.000 N 
ATOM     26  C   UNL     1      51.381   1.794  17.352  0.00  0.00    +0.000 A 
ATOM     27  O   UNL     1      50.313   2.002  16.773  0.00  0.00    +0.000 OA
ATOM     28  C   UNL     1      52.113   2.792  18.093  0.00  0.00    +0.000 A 
ATOM     29  H   UNL     1      51.518  -0.144  16.771  0.00  0.00    +0.000 HD
ENDBRANCH  16  19
ENDBRANCH   1  17
BRANCH   1  30
ATOM     30  C   UNL     1      47.384   4.404  17.795  0.00  0.00    +0.000 C 
BRANCH  30  31
ATOM     31  O   UNL     1      46.440   5.177  18.538  0.00  0.00    +0.000 OA
ATOM     32  H   UNL     1      45.636   4.634  18.661  0.00  0.00    +0.000 HD
ENDBRANCH  30  31
ENDBRANCH   1  30
TORSDOF 7
ENDMDL
MODEL 9
REMARK VINA RESULT:    -6.502      4.043      8.294
REMARK INTER + INTRA:          -9.853
REMARK INTER:                  -8.727
REMARK INTRA:                  -1.125
REMARK UNBOUND:                -0.880
REMARK  Name = 
REMARK  7 active torsions:
REMARK  status: ('A' for Active; 'I' for Inactive)
REMARK    1  A    between atoms: C_2  and  C_20
REMARK    2  A    between atoms: N_3  and  CA_4
REMARK    3  A    between atoms: CA_4  and  C_5
REMARK    4  A    between atoms: CA_4  and  C_7
REMARK    5  A    between atoms: C_5  and  O_6
REMARK    6  A    between atoms: C_10  and  C_11
REMARK    7  A    between atoms: C_11  and  C_12
REMARK                            x       y       z     vdW  Elec       q    Type
REMARK                         _______ _______ _______ _____ _____    ______ ____
ROOT
ATOM      1  CA  UNL     1      47.931   4.386  16.440  0.00  0.00    +0.000 C 
ENDROOT
BRANCH   1   2
ATOM      2  C   UNL     1      49.236   5.123  16.657  0.00  0.00    +0.000 A 
ATOM      3  C   UNL     1      49.354   6.411  16.119  0.00  0.00    +0.000 A 
ATOM      4  C   UNL     1      50.565   7.094  16.153  0.00  0.00    +0.000 A 
ATOM      5  C   UNL     1      51.687   6.524  16.768  0.00  0.00    +0.000 A 
ATOM      6  C   UNL     1      51.565   5.254  17.348  0.00  0.00    +0.000 A 
ATOM      7  C   UNL     1      50.352   4.555  17.293  0.00  0.00    +0.000 A 
BRANCH   5   8
ATOM      8  C   UNL     1      53.009   7.256  16.785  0.00  0.00    +0.000 C 
BRANCH   8   9
ATOM      9  C   UNL     1      53.868   7.095  15.555  0.00  0.00    +0.000 A 
ATOM     10  C   UNL     1      53.689   7.907  14.437  0.00  0.00    +0.000 A 
ATOM     11  N   UNL     1      54.327   7.700  13.260  0.00  0.00    +0.000 NA
ATOM     12  C   UNL     1      55.167   6.644  13.238  0.00  0.00    +0.000 A 
ATOM     13  C   UNL     1      55.377   5.844  14.347  0.00  0.00    +0.000 A 
ATOM     14  N   UNL     1      54.735   6.046  15.522  0.00  0.00    +0.000 NA
ENDBRANCH   8   9
ENDBRANCH   5   8
ENDBRANCH   1   2
BRANCH   1  17
ATOM     15  O   UNL     1      47.280   3.246  14.015  0.00  0.00    +0.000 OA
ATOM     16  C   UNL     1      46.773   4.335  14.291  0.00  0.00    +0.000 C 
ATOM     17  N   UNL     1      47.098   5.019  15.434  0.00  0.00    +0.000 N 
ATOM     18  H   UNL     1      46.631   5.890  15.662  0.00  0.00    +0.000 HD
BRANCH  16  19
ATOM     19  C   UNL     1      45.811   4.961  13.392  0.00  0.00    +0.000 A 
ATOM     20  C   UNL     1      44.612   4.343  13.084  0.00  0.00    +0.000 A 
ATOM     21  S   UNL     1      43.580   5.314  12.131  0.00  0.00    +0.000 S 
ATOM     22  C   UNL     1      44.699   6.600  12.131  0.00  0.00    +0.000 A 
ATOM     23  N   UNL     1      44.406   7.791  11.547  0.00  0.00    +0.000 NA
ATOM     24  C   UNL     1      45.331   8.687  11.684  0.00  0.00    +0.000 A 
ATOM     25  N   UNL     1      46.529   8.487  12.318  0.00  0.00    +0.000 N 
ATOM     26  C   UNL     1      46.906   7.275  12.830  0.00  0.00    +0.000 A 
ATOM     27  O   UNL     1      48.055   7.073  13.229  0.00  0.00    +0.000 OA
ATOM     28  C   UNL     1      45.870   6.270  12.790  0.00  0.00    +0.000 A 
ATOM     29  H   UNL     1      47.232   9.214  12.337  0.00  0.00    +0.000 HD
ENDBRANCH  16  19
ENDBRANCH   1  17
BRANCH   1  30
ATOM     30  C   UNL     1      47.220   4.078  17.784  0.00  0.00    +0.000 C 
BRANCH  30  31
ATOM     31  O   UNL     1      46.501   2.844  17.792  0.00  0.00    +0.000 OA
ATOM     32  H   UNL     1      46.852   2.287  17.070  0.00  0.00    +0.000 HD
ENDBRANCH  30  31
ENDBRANCH   1  30
TORSDOF 7
ENDMDL
