MODEL 1
REMARK VINA RESULT:    -8.103      0.000      0.000
REMARK INTER + INTRA:         -14.189
REMARK INTER:                 -13.077
REMARK INTRA:                  -1.112
REMARK UNBOUND:                -1.112
REMARK  Name = 
REMARK  11 active torsions:
REMARK  status: ('A' for Active; 'I' for Inactive)
REMARK    1  A    between atoms: N_1  and  C_2
REMARK    2  A    between atoms: C_2  and  C_3
REMARK    3  A    between atoms: C_3  and  C_4
REMARK    4  A    between atoms: C_4  and  N_5
REMARK    5  A    between atoms: C_4  and  C_22
REMARK    6  A    between atoms: N_5  and  C_6
REMARK    7  A    between atoms: C_6  and  C_7
REMARK    8  A    between atoms: C_10  and  C_11
REMARK    9  A    between atoms: C_11  and  N_12
REMARK   10  A    between atoms: N_12  and  C_13
REMARK   11  A    between atoms: C_13  and  C_14
REMARK                            x       y       z     vdW  Elec       q    Type
REMARK                         _______ _______ _______ _____ _____    ______ ____
ROOT
ATOM      1  N   UNL     1      48.748   4.869  15.855  0.00  0.00    +0.000 NA
ATOM      2  H   UNL     1      48.291   3.999  15.597  0.00  0.00    +0.000 HD
ENDROOT
BRANCH   1   3
ATOM      3  C   UNL     1      48.737   5.013  17.326  0.00  0.00    +0.000 C 
BRANCH   3   4
ATOM      4  C   UNL     1      50.097   4.565  17.875  0.00  0.00    +0.000 A 
ATOM      5  C   UNL     1      50.943   5.393  18.599  0.00  0.00    +0.000 A 
ATOM      6  S   UNL     1      52.456   4.703  18.962  0.00  0.00    +0.000 S 
ATOM      7  C   UNL     1      52.029   3.251  18.189  0.00  0.00    +0.000 A 
ATOM      8  N   UNL     1      52.925   2.229  18.109  0.00  0.00    +0.000 NA
ATOM      9  C   UNL     1      52.488   1.193  17.483  0.00  0.00    +0.000 A 
ATOM     10  N   UNL     1      51.227   1.072  16.953  0.00  0.00    +0.000 N 
ATOM     11  C   UNL     1      50.262   2.053  17.070  0.00  0.00    +0.000 A 
ATOM     12  O   UNL     1      49.102   1.849  16.721  0.00  0.00    +0.000 OA
ATOM     13  C   UNL     1      50.735   3.275  17.700  0.00  0.00    +0.000 A 
ATOM     14  H   UNL     1      50.934   0.205  16.528  0.00  0.00    +0.000 HD
ENDBRANCH   3   4
BRANCH   3  15
ATOM     15  C   UNL     1      48.351   6.434  17.837  0.00  0.00    +0.000 C 
BRANCH  15  16
ATOM     16  C   UNL     1      47.399   6.499  19.027  0.00  0.00    +0.000 C 
BRANCH  16  17
ATOM     17  N   UNL     1      46.359   5.482  18.855  0.00  0.00    +0.000 NA
ATOM     18  H   UNL     1      46.632   4.616  19.318  0.00  0.00    +0.000 HD
ATOM     19  H   UNL     1      46.248   5.255  17.867  0.00  0.00    +0.000 HD
ENDBRANCH  16  17
ENDBRANCH  15  16
ENDBRANCH   3  15
ENDBRANCH   1   3
BRANCH   1  20
ATOM     20  C   UNL     1      48.143   5.994  15.127  0.00  0.00    +0.000 C 
BRANCH  20  21
ATOM     21  C   UNL     1      47.307   5.615  13.917  0.00  0.00    +0.000 A 
ATOM     22  C   UNL     1      46.537   4.456  13.909  0.00  0.00    +0.000 A 
ATOM     23  C   UNL     1      45.688   4.219  12.829  0.00  0.00    +0.000 A 
ATOM     24  C   UNL     1      45.607   5.148  11.787  0.00  0.00    +0.000 A 
ATOM     25  C   UNL     1      46.419   6.270  11.875  0.00  0.00    +0.000 A 
ATOM     26  N   UNL     1      47.254   6.522  12.908  0.00  0.00    +0.000 NA
BRANCH  24  27
ATOM     27  C   UNL     1      44.684   4.942  10.619  0.00  0.00    +0.000 C 
BRANCH  27  28
ATOM     28  N   UNL     1      45.423   4.935   9.356  0.00  0.00    +0.000 NA
ATOM     29  H   UNL     1      46.388   4.655   9.536  0.00  0.00    +0.000 HD
BRANCH  28  30
ATOM     30  C   UNL     1      44.826   4.010   8.401  0.00  0.00    +0.000 C 
BRANCH  30  31
ATOM     31  C   UNL     1      45.858   3.062   7.846  0.00  0.00    +0.000 A 
ATOM     32  C   UNL     1      45.928   1.738   8.291  0.00  0.00    +0.000 A 
ATOM     33  C   UNL     1      46.886   0.900   7.740  0.00  0.00    +0.000 A 
ATOM     34  N   UNL     1      47.763   1.283   6.788  0.00  0.00    +0.000 NA
ATOM     35  C   UNL     1      47.682   2.565   6.372  0.00  0.00    +0.000 A 
ATOM     36  C   UNL     1      46.759   3.477   6.861  0.00  0.00    +0.000 A 
ENDBRANCH  30  31
ENDBRANCH  28  30
ENDBRANCH  27  28
ENDBRANCH  24  27
ENDBRANCH  20  21
ENDBRANCH   1  20
TORSDOF 11
ENDMDL
MODEL 2
REMARK VINA RESULT:    -8.066      2.635      4.276
REMARK INTER + INTRA:         -14.129
REMARK INTER:                 -12.747
REMARK INTRA:                  -1.381
REMARK UNBOUND:                -1.112
REMARK  Name = 
REMARK  11 active torsions:
REMARK  status: ('A' for Active; 'I' for Inactive)
REMARK    1  A    between atoms: N_1  and  C_2
REMARK    2  A    between atoms: C_2  and  C_3
REMARK    3  A    between atoms: C_3  and  C_4
REMARK    4  A    between atoms: C_4  and  N_5
REMARK    5  A    between atoms: C_4  and  C_22
REMARK    6  A    between atoms: N_5  and  C_6
REMARK    7  A    between atoms: C_6  and  C_7
REMARK    8  A    between atoms: C_10  and  C_11
REMARK    9  A    between atoms: C_11  and  N_12
REMARK   10  A    between atoms: N_12  and  C_13
REMARK   11  A    between atoms: C_13  and  C_14
REMARK                            x       y       z     vdW  Elec       q    Type
REMARK                         _______ _______ _______ _____ _____    ______ ____
ROOT
ATOM      1  N   UNL     1      47.510   5.514  15.903  0.00  0.00    +0.000 NA
ATOM      2  H   UNL     1      46.905   6.290  16.155  0.00  0.00    +0.000 HD
ENDROOT
BRANCH   1   3
ATOM      3  C   UNL     1      48.639   5.441  16.854  0.00  0.00    +0.000 C 
BRANCH   3   4
ATOM      4  C   UNL     1      48.383   6.430  17.998  0.00  0.00    +0.000 A 
ATOM      5  C   UNL     1      48.190   6.045  19.317  0.00  0.00    +0.000 A 
ATOM      6  S   UNL     1      47.774   7.320  20.365  0.00  0.00    +0.000 S 
ATOM      7  C   UNL     1      47.866   8.450  19.099  0.00  0.00    +0.000 A 
ATOM      8  N   UNL     1      47.577   9.760  19.328  0.00  0.00    +0.000 NA
ATOM      9  C   UNL     1      47.664  10.510  18.285  0.00  0.00    +0.000 A 
ATOM     10  N   UNL     1      48.042  10.076  17.038  0.00  0.00    +0.000 N 
ATOM     11  C   UNL     1      48.412   8.771  16.773  0.00  0.00    +0.000 A 
ATOM     12  O   UNL     1      48.890   8.455  15.687  0.00  0.00    +0.000 OA
ATOM     13  C   UNL     1      48.252   7.871  17.903  0.00  0.00    +0.000 A 
ATOM     14  H   UNL     1      48.146  10.733  16.280  0.00  0.00    +0.000 HD
ENDBRANCH   3   4
BRANCH   3  15
ATOM     15  C   UNL     1      48.947   4.010  17.390  0.00  0.00    +0.000 C 
BRANCH  15  16
ATOM     16  C   UNL     1      48.034   2.886  16.911  0.00  0.00    +0.000 C 
BRANCH  16  17
ATOM     17  N   UNL     1      46.765   2.968  17.639  0.00  0.00    +0.000 NA
ATOM     18  H   UNL     1      46.006   2.602  17.066  0.00  0.00    +0.000 HD
ATOM     19  H   UNL     1      46.532   3.942  17.833  0.00  0.00    +0.000 HD
ENDBRANCH  16  17
ENDBRANCH  15  16
ENDBRANCH   3  15
ENDBRANCH   1   3
BRANCH   1  20
ATOM     20  C   UNL     1      47.908   5.619  14.491  0.00  0.00    +0.000 C 
BRANCH  20  21
ATOM     21  C   UNL     1      46.791   5.423  13.481  0.00  0.00    +0.000 A 
ATOM     22  C   UNL     1      46.724   6.194  12.324  0.00  0.00    +0.000 A 
ATOM     23  C   UNL     1      45.757   5.889  11.367  0.00  0.00    +0.000 A 
ATOM     24  C   UNL     1      44.890   4.811  11.569  0.00  0.00    +0.000 A 
ATOM     25  C   UNL     1      45.024   4.105  12.756  0.00  0.00    +0.000 A 
ATOM     26  N   UNL     1      45.949   4.382  13.702  0.00  0.00    +0.000 NA
BRANCH  24  27
ATOM     27  C   UNL     1      43.853   4.433  10.548  0.00  0.00    +0.000 C 
BRANCH  27  28
ATOM     28  N   UNL     1      44.307   3.312   9.725  0.00  0.00    +0.000 NA
ATOM     29  H   UNL     1      43.542   2.646   9.618  0.00  0.00    +0.000 HD
BRANCH  28  30
ATOM     30  C   UNL     1      44.738   3.765   8.409  0.00  0.00    +0.000 C 
BRANCH  30  31
ATOM     31  C   UNL     1      45.853   2.900   7.876  0.00  0.00    +0.000 A 
ATOM     32  C   UNL     1      45.922   1.542   8.198  0.00  0.00    +0.000 A 
ATOM     33  C   UNL     1      46.959   0.784   7.673  0.00  0.00    +0.000 A 
ATOM     34  N   UNL     1      47.914   1.280   6.857  0.00  0.00    +0.000 NA
ATOM     35  C   UNL     1      47.831   2.593   6.558  0.00  0.00    +0.000 A 
ATOM     36  C   UNL     1      46.834   3.431   7.032  0.00  0.00    +0.000 A 
ENDBRANCH  30  31
ENDBRANCH  28  30
ENDBRANCH  27  28
ENDBRANCH  24  27
ENDBRANCH  20  21
ENDBRANCH   1  20
TORSDOF 11
ENDMDL
MODEL 3
REMARK VINA RESULT:    -7.950      2.154      3.901
REMARK INTER + INTRA:         -13.943
REMARK INTER:                 -12.939
REMARK INTRA:                  -1.004
REMARK UNBOUND:                -1.112
REMARK  Name = 
REMARK  11 active torsions:
REMARK  status: ('A' for Active; 'I' for Inactive)
REMARK    1  A    between atoms: N_1  and  C_2
REMARK    2  A    between atoms: C_2  and  C_3
REMARK    3  A    between atoms: C_3  and  C_4
REMARK    4  A    between atoms: C_4  and  N_5
REMARK    5  A    between atoms: C_4  and  C_22
REMARK    6  A    between atoms: N_5  and  C_6
REMARK    7  A    between atoms: C_6  and  C_7
REMARK    8  A    between atoms: C_10  and  C_11
REMARK    9  A    between atoms: C_11  and  N_12
REMARK   10  A    between atoms: N_12  and  C_13
REMARK   11  A    between atoms: C_13  and  C_14
REMARK                            x       y       z     vdW  Elec       q    Type
REMARK                         _______ _______ _______ _____ _____    ______ ____
ROOT
ATOM      1  N   UNL     1      47.005   4.694  15.716  0.00  0.00    +0.000 NA
ATOM      2  H   UNL     1      46.335   5.289  16.195  0.00  0.00    +0.000 HD
ENDROOT
BRANCH   1   3
ATOM      3  C   UNL     1      48.160   4.440  16.603  0.00  0.00    +0.000 C 
BRANCH   3   4
ATOM      4  C   UNL     1      48.248   5.573  17.633  0.00  0.00    +0.000 A 
ATOM      5  C   UNL     1      47.563   5.568  18.840  0.00  0.00    +0.000 A 
ATOM      6  S   UNL     1      47.710   7.008  19.735  0.00  0.00    +0.000 S 
ATOM      7  C   UNL     1      48.726   7.690  18.555  0.00  0.00    +0.000 A 
ATOM      8  N   UNL     1      49.187   8.962  18.701  0.00  0.00    +0.000 NA
ATOM      9  C   UNL     1      49.930   9.368  17.731  0.00  0.00    +0.000 A 
ATOM     10  N   UNL     1      50.278   8.609  16.640  0.00  0.00    +0.000 N 
ATOM     11  C   UNL     1      49.892   7.292  16.483  0.00  0.00    +0.000 A 
ATOM     12  O   UNL     1      50.347   6.601  15.576  0.00  0.00    +0.000 OA
ATOM     13  C   UNL     1      48.986   6.815  17.515  0.00  0.00    +0.000 A 
ATOM     14  H   UNL     1      50.913   8.975  15.948  0.00  0.00    +0.000 HD
ENDBRANCH   3   4
BRANCH   3  15
ATOM     15  C   UNL     1      48.158   3.040  17.288  0.00  0.00    +0.000 C 
BRANCH  15  16
ATOM     16  C   UNL     1      49.507   2.339  17.421  0.00  0.00    +0.000 C 
BRANCH  16  17
ATOM     17  N   UNL     1      49.778   1.601  16.185  0.00  0.00    +0.000 NA
ATOM     18  H   UNL     1      50.037   0.639  16.398  0.00  0.00    +0.000 HD
ATOM     19  H   UNL     1      50.576   2.010  15.698  0.00  0.00    +0.000 HD
ENDBRANCH  16  17
ENDBRANCH  15  16
ENDBRANCH   3  15
ENDBRANCH   1   3
BRANCH   1  20
ATOM     20  C   UNL     1      47.355   5.274  14.410  0.00  0.00    +0.000 C 
BRANCH  20  21
ATOM     21  C   UNL     1      46.291   5.148  13.334  0.00  0.00    +0.000 A 
ATOM     22  C   UNL     1      46.136   6.128  12.358  0.00  0.00    +0.000 A 
ATOM     23  C   UNL     1      45.235   5.905  11.317  0.00  0.00    +0.000 A 
ATOM     24  C   UNL     1      44.523   4.704  11.256  0.00  0.00    +0.000 A 
ATOM     25  C   UNL     1      44.735   3.789  12.277  0.00  0.00    +0.000 A 
ATOM     26  N   UNL     1      45.598   3.981  13.299  0.00  0.00    +0.000 NA
BRANCH  24  27
ATOM     27  C   UNL     1      43.564   4.415  10.134  0.00  0.00    +0.000 C 
BRANCH  27  28
ATOM     28  N   UNL     1      44.131   3.451   9.190  0.00  0.00    +0.000 NA
ATOM     29  H   UNL     1      43.377   3.036   8.644  0.00  0.00    +0.000 HD
BRANCH  28  30
ATOM     30  C   UNL     1      45.081   4.092   8.290  0.00  0.00    +0.000 C 
BRANCH  30  31
ATOM     31  C   UNL     1      45.989   3.075   7.646  0.00  0.00    +0.000 A 
ATOM     32  C   UNL     1      46.693   3.380   6.477  0.00  0.00    +0.000 A 
ATOM     33  C   UNL     1      47.527   2.416   5.930  0.00  0.00    +0.000 A 
ATOM     34  N   UNL     1      47.706   1.188   6.461  0.00  0.00    +0.000 NA
ATOM     35  C   UNL     1      47.017   0.910   7.588  0.00  0.00    +0.000 A 
ATOM     36  C   UNL     1      46.162   1.807   8.210  0.00  0.00    +0.000 A 
ENDBRANCH  30  31
ENDBRANCH  28  30
ENDBRANCH  27  28
ENDBRANCH  24  27
ENDBRANCH  20  21
ENDBRANCH   1  20
TORSDOF 11
ENDMDL
MODEL 4
REMARK VINA RESULT:    -7.478      2.862      4.242
REMARK INTER + INTRA:         -13.180
REMARK INTER:                 -11.543
REMARK INTRA:                  -1.637
REMARK UNBOUND:                -1.112
REMARK  Name = 
REMARK  11 active torsions:
REMARK  status: ('A' for Active; 'I' for Inactive)
REMARK    1  A    between atoms: N_1  and  C_2
REMARK    2  A    between atoms: C_2  and  C_3
REMARK    3  A    between atoms: C_3  and  C_4
REMARK    4  A    between atoms: C_4  and  N_5
REMARK    5  A    between atoms: C_4  and  C_22
REMARK    6  A    between atoms: N_5  and  C_6
REMARK    7  A    between atoms: C_6  and  C_7
REMARK    8  A    between atoms: C_10  and  C_11
REMARK    9  A    between atoms: C_11  and  N_12
REMARK   10  A    between atoms: N_12  and  C_13
REMARK   11  A    between atoms: C_13  and  C_14
REMARK                            x       y       z     vdW  Elec       q    Type
REMARK                         _______ _______ _______ _____ _____    ______ ____
ROOT
ATOM      1  N   UNL     1      47.538   5.767  15.584  0.00  0.00    +0.000 NA
ATOM      2  H   UNL     1      47.394   6.456  14.852  0.00  0.00    +0.000 HD
ENDROOT
BRANCH   1   3
ATOM      3  C   UNL     1      48.937   5.838  16.057  0.00  0.00    +0.000 C 
BRANCH   3   4
ATOM      4  C   UNL     1      49.500   7.225  15.724  0.00  0.00    +0.000 A 
ATOM      5  C   UNL     1      49.990   8.104  16.679  0.00  0.00    +0.000 A 
ATOM      6  S   UNL     1      50.415   9.635  16.069  0.00  0.00    +0.000 S 
ATOM      7  C   UNL     1      49.986   9.174  14.490  0.00  0.00    +0.000 A 
ATOM      8  N   UNL     1      50.079  10.068  13.467  0.00  0.00    +0.000 NA
ATOM      9  C   UNL     1      49.706   9.602  12.326  0.00  0.00    +0.000 A 
ATOM     10  N   UNL     1      49.277   8.317  12.107  0.00  0.00    +0.000 N 
ATOM     11  C   UNL     1      49.233   7.356  13.098  0.00  0.00    +0.000 A 
ATOM     12  O   UNL     1      48.993   6.181  12.834  0.00  0.00    +0.000 OA
ATOM     13  C   UNL     1      49.568   7.857  14.421  0.00  0.00    +0.000 A 
ATOM     14  H   UNL     1      49.058   8.006  11.172  0.00  0.00    +0.000 HD
ENDBRANCH   3   4
BRANCH   3  15
ATOM     15  C   UNL     1      49.133   5.485  17.562  0.00  0.00    +0.000 C 
BRANCH  15  16
ATOM     16  C   UNL     1      47.869   5.313  18.398  0.00  0.00    +0.000 C 
BRANCH  16  17
ATOM     17  N   UNL     1      47.200   6.611  18.512  0.00  0.00    +0.000 NA
ATOM     18  H   UNL     1      47.661   7.300  17.919  0.00  0.00    +0.000 HD
ATOM     19  H   UNL     1      47.273   6.963  19.467  0.00  0.00    +0.000 HD
ENDBRANCH  16  17
ENDBRANCH  15  16
ENDBRANCH   3  15
ENDBRANCH   1   3
BRANCH   1  20
ATOM     20  C   UNL     1      47.119   4.436  15.117  0.00  0.00    +0.000 C 
BRANCH  20  21
ATOM     21  C   UNL     1      46.333   4.418  13.818  0.00  0.00    +0.000 A 
ATOM     22  C   UNL     1      46.219   3.254  13.063  0.00  0.00    +0.000 A 
ATOM     23  C   UNL     1      45.381   3.254  11.948  0.00  0.00    +0.000 A 
ATOM     24  C   UNL     1      44.658   4.404  11.618  0.00  0.00    +0.000 A 
ATOM     25  C   UNL     1      44.842   5.520  12.422  0.00  0.00    +0.000 A 
ATOM     26  N   UNL     1      45.650   5.549  13.505  0.00  0.00    +0.000 NA
BRANCH  24  27
ATOM     27  C   UNL     1      43.723   4.435  10.442  0.00  0.00    +0.000 C 
BRANCH  27  28
ATOM     28  N   UNL     1      44.121   3.459   9.426  0.00  0.00    +0.000 NA
ATOM     29  H   UNL     1      43.284   3.060   9.001  0.00  0.00    +0.000 HD
BRANCH  28  30
ATOM     30  C   UNL     1      44.937   4.079   8.390  0.00  0.00    +0.000 C 
BRANCH  30  31
ATOM     31  C   UNL     1      45.904   3.087   7.795  0.00  0.00    +0.000 A 
ATOM     32  C   UNL     1      46.780   3.465   6.773  0.00  0.00    +0.000 A 
ATOM     33  C   UNL     1      47.660   2.519   6.267  0.00  0.00    +0.000 A 
ATOM     34  N   UNL     1      47.729   1.245   6.706  0.00  0.00    +0.000 NA
ATOM     35  C   UNL     1      46.875   0.898   7.691  0.00  0.00    +0.000 A 
ATOM     36  C   UNL     1      45.960   1.770   8.262  0.00  0.00    +0.000 A 
ENDBRANCH  30  31
ENDBRANCH  28  30
ENDBRANCH  27  28
ENDBRANCH  24  27
ENDBRANCH  20  21
ENDBRANCH   1  20
TORSDOF 11
ENDMDL
MODEL 5
REMARK VINA RESULT:    -7.368      1.991      2.328
REMARK INTER + INTRA:         -13.003
REMARK INTER:                 -11.878
REMARK INTRA:                  -1.126
REMARK UNBOUND:                -1.112
REMARK  Name = 
REMARK  11 active torsions:
REMARK  status: ('A' for Active; 'I' for Inactive)
REMARK    1  A    between atoms: N_1  and  C_2
REMARK    2  A    between atoms: C_2  and  C_3
REMARK    3  A    between atoms: C_3  and  C_4
REMARK    4  A    between atoms: C_4  and  N_5
REMARK    5  A    between atoms: C_4  and  C_22
REMARK    6  A    between atoms: N_5  and  C_6
REMARK    7  A    between atoms: C_6  and  C_7
REMARK    8  A    between atoms: C_10  and  C_11
REMARK    9  A    between atoms: C_11  and  N_12
REMARK   10  A    between atoms: N_12  and  C_13
REMARK   11  A    between atoms: C_13  and  C_14
REMARK                            x       y       z     vdW  Elec       q    Type
REMARK                         _______ _______ _______ _____ _____    ______ ____
ROOT
ATOM      1  N   UNL     1      48.568   6.192  14.505  0.00  0.00    +0.000 NA
ATOM      2  H   UNL     1      49.411   5.733  14.174  0.00  0.00    +0.000 HD
ENDROOT
BRANCH   1   3
ATOM      3  C   UNL     1      48.888   7.011  15.693  0.00  0.00    +0.000 C 
BRANCH   3   4
ATOM      4  C   UNL     1      50.313   6.679  16.151  0.00  0.00    +0.000 A 
ATOM      5  C   UNL     1      51.438   7.367  15.719  0.00  0.00    +0.000 A 
ATOM      6  S   UNL     1      52.912   6.707  16.256  0.00  0.00    +0.000 S 
ATOM      7  C   UNL     1      52.102   5.485  17.117  0.00  0.00    +0.000 A 
ATOM      8  N   UNL     1      52.811   4.536  17.788  0.00  0.00    +0.000 NA
ATOM      9  C   UNL     1      52.082   3.657  18.382  0.00  0.00    +0.000 A 
ATOM     10  N   UNL     1      50.709   3.655  18.393  0.00  0.00    +0.000 N 
ATOM     11  C   UNL     1      49.948   4.636  17.786  0.00  0.00    +0.000 A 
ATOM     12  O   UNL     1      48.732   4.686  17.947  0.00  0.00    +0.000 OA
ATOM     13  C   UNL     1      50.727   5.606  17.034  0.00  0.00    +0.000 A 
ATOM     14  H   UNL     1      50.205   2.967  18.931  0.00  0.00    +0.000 HD
ENDBRANCH   3   4
BRANCH   3  15
ATOM     15  C   UNL     1      48.689   8.545  15.499  0.00  0.00    +0.000 C 
BRANCH  15  16
ATOM     16  C   UNL     1      48.176   9.328  16.702  0.00  0.00    +0.000 C 
BRANCH  16  17
ATOM     17  N   UNL     1      48.194  10.757  16.377  0.00  0.00    +0.000 NA
ATOM     18  H   UNL     1      47.878  11.304  17.176  0.00  0.00    +0.000 HD
ATOM     19  H   UNL     1      47.541  10.954  15.619  0.00  0.00    +0.000 HD
ENDBRANCH  16  17
ENDBRANCH  15  16
ENDBRANCH   3  15
ENDBRANCH   1   3
BRANCH   1  20
ATOM     20  C   UNL     1      47.501   5.202  14.715  0.00  0.00    +0.000 C 
BRANCH  20  21
ATOM     21  C   UNL     1      46.613   4.934  13.513  0.00  0.00    +0.000 A 
ATOM     22  C   UNL     1      46.235   3.638  13.173  0.00  0.00    +0.000 A 
ATOM     23  C   UNL     1      45.315   3.453  12.142  0.00  0.00    +0.000 A 
ATOM     24  C   UNL     1      44.774   4.561  11.483  0.00  0.00    +0.000 A 
ATOM     25  C   UNL     1      45.216   5.814  11.882  0.00  0.00    +0.000 A 
ATOM     26  N   UNL     1      46.109   6.021  12.876  0.00  0.00    +0.000 NA
BRANCH  24  27
ATOM     27  C   UNL     1      43.759   4.405  10.385  0.00  0.00    +0.000 C 
BRANCH  27  28
ATOM     28  N   UNL     1      44.198   3.420   9.396  0.00  0.00    +0.000 NA
ATOM     29  H   UNL     1      43.379   2.996   8.961  0.00  0.00    +0.000 HD
BRANCH  28  30
ATOM     30  C   UNL     1      45.023   4.040   8.366  0.00  0.00    +0.000 C 
BRANCH  30  31
ATOM     31  C   UNL     1      45.977   3.040   7.761  0.00  0.00    +0.000 A 
ATOM     32  C   UNL     1      46.042   1.730   8.244  0.00  0.00    +0.000 A 
ATOM     33  C   UNL     1      46.926   0.843   7.646  0.00  0.00    +0.000 A 
ATOM     34  N   UNL     1      47.734   1.167   6.614  0.00  0.00    +0.000 NA
ATOM     35  C   UNL     1      47.658   2.437   6.163  0.00  0.00    +0.000 A 
ATOM     36  C   UNL     1      46.807   3.394   6.693  0.00  0.00    +0.000 A 
ENDBRANCH  30  31
ENDBRANCH  28  30
ENDBRANCH  27  28
ENDBRANCH  24  27
ENDBRANCH  20  21
ENDBRANCH   1  20
TORSDOF 11
ENDMDL
MODEL 6
REMARK VINA RESULT:    -7.352      2.412      3.654
REMARK INTER + INTRA:         -12.977
REMARK INTER:                 -11.645
REMARK INTRA:                  -1.332
REMARK UNBOUND:                -1.112
REMARK  Name = 
REMARK  11 active torsions:
REMARK  status: ('A' for Active; 'I' for Inactive)
REMARK    1  A    between atoms: N_1  and  C_2
REMARK    2  A    between atoms: C_2  and  C_3
REMARK    3  A    between atoms: C_3  and  C_4
REMARK    4  A    between atoms: C_4  and  N_5
REMARK    5  A    between atoms: C_4  and  C_22
REMARK    6  A    between atoms: N_5  and  C_6
REMARK    7  A    between atoms: C_6  and  C_7
REMARK    8  A    between atoms: C_10  and  C_11
REMARK    9  A    between atoms: C_11  and  N_12
REMARK   10  A    between atoms: N_12  and  C_13
REMARK   11  A    between atoms: C_13  and  C_14
REMARK                            x       y       z     vdW  Elec       q    Type
REMARK                         _______ _______ _______ _____ _____    ______ ____
ROOT
ATOM      1  N   UNL     1      48.829   6.598  14.594  0.00  0.00    +0.000 NA
ATOM      2  H   UNL     1      48.373   5.925  15.204  0.00  0.00    +0.000 HD
ENDROOT
BRANCH   1   3
ATOM      3  C   UNL     1      49.481   7.641  15.414  0.00  0.00    +0.000 C 
BRANCH   3   4
ATOM      4  C   UNL     1      48.825   7.661  16.799  0.00  0.00    +0.000 A 
ATOM      5  C   UNL     1      48.254   8.793  17.362  0.00  0.00    +0.000 A 
ATOM      6  S   UNL     1      47.730   8.589  18.969  0.00  0.00    +0.000 S 
ATOM      7  C   UNL     1      48.220   6.961  18.968  0.00  0.00    +0.000 A 
ATOM      8  N   UNL     1      48.082   6.204  20.091  0.00  0.00    +0.000 NA
ATOM      9  C   UNL     1      48.508   4.996  19.968  0.00  0.00    +0.000 A 
ATOM     10  N   UNL     1      49.034   4.465  18.816  0.00  0.00    +0.000 N 
ATOM     11  C   UNL     1      49.129   5.172  17.633  0.00  0.00    +0.000 A 
ATOM     12  O   UNL     1      49.459   4.619  16.588  0.00  0.00    +0.000 OA
ATOM     13  C   UNL     1      48.734   6.566  17.746  0.00  0.00    +0.000 A 
ATOM     14  H   UNL     1      49.292   3.490  18.776  0.00  0.00    +0.000 HD
ENDBRANCH   3   4
BRANCH   3  15
ATOM     15  C   UNL     1      51.031   7.514  15.514  0.00  0.00    +0.000 C 
BRANCH  15  16
ATOM     16  C   UNL     1      51.852   8.313  14.507  0.00  0.00    +0.000 C 
BRANCH  16  17
ATOM     17  N   UNL     1      51.487   7.883  13.155  0.00  0.00    +0.000 NA
ATOM     18  H   UNL     1      50.501   8.071  12.980  0.00  0.00    +0.000 HD
ATOM     19  H   UNL     1      51.607   6.875  13.061  0.00  0.00    +0.000 HD
ENDBRANCH  16  17
ENDBRANCH  15  16
ENDBRANCH   3  15
ENDBRANCH   1   3
BRANCH   1  20
ATOM     20  C   UNL     1      47.872   7.112  13.602  0.00  0.00    +0.000 C 
BRANCH  20  21
ATOM     21  C   UNL     1      46.977   6.068  12.957  0.00  0.00    +0.000 A 
ATOM     22  C   UNL     1      46.679   4.874  13.608  0.00  0.00    +0.000 A 
ATOM     23  C   UNL     1      45.751   4.007  13.034  0.00  0.00    +0.000 A 
ATOM     24  C   UNL     1      45.122   4.353  11.834  0.00  0.00    +0.000 A 
ATOM     25  C   UNL     1      45.488   5.558  11.252  0.00  0.00    +0.000 A 
ATOM     26  N   UNL     1      46.387   6.415  11.785  0.00  0.00    +0.000 NA
BRANCH  24  27
ATOM     27  C   UNL     1      44.096   3.458  11.198  0.00  0.00    +0.000 C 
BRANCH  27  28
ATOM     28  N   UNL     1      44.723   2.497  10.291  0.00  0.00    +0.000 NA
ATOM     29  H   UNL     1      44.246   1.598  10.375  0.00  0.00    +0.000 HD
BRANCH  28  30
ATOM     30  C   UNL     1      44.650   2.951   8.908  0.00  0.00    +0.000 C 
BRANCH  30  31
ATOM     31  C   UNL     1      45.810   2.425   8.102  0.00  0.00    +0.000 A 
ATOM     32  C   UNL     1      46.590   3.284   7.322  0.00  0.00    +0.000 A 
ATOM     33  C   UNL     1      47.655   2.754   6.609  0.00  0.00    +0.000 A 
ATOM     34  N   UNL     1      47.994   1.448   6.622  0.00  0.00    +0.000 NA
ATOM     35  C   UNL     1      47.230   0.633   7.380  0.00  0.00    +0.000 A 
ATOM     36  C   UNL     1      46.146   1.068   8.128  0.00  0.00    +0.000 A 
ENDBRANCH  30  31
ENDBRANCH  28  30
ENDBRANCH  27  28
ENDBRANCH  24  27
ENDBRANCH  20  21
ENDBRANCH   1  20
TORSDOF 11
ENDMDL
MODEL 7
REMARK VINA RESULT:    -7.124      3.574      8.670
REMARK INTER + INTRA:         -12.609
REMARK INTER:                 -11.271
REMARK INTRA:                  -1.339
REMARK UNBOUND:                -1.112
REMARK  Name = 
REMARK  11 active torsions:
REMARK  status: ('A' for Active; 'I' for Inactive)
REMARK    1  A    between atoms: N_1  and  C_2
REMARK    2  A    between atoms: C_2  and  C_3
REMARK    3  A    between atoms: C_3  and  C_4
REMARK    4  A    between atoms: C_4  and  N_5
REMARK    5  A    between atoms: C_4  and  C_22
REMARK    6  A    between atoms: N_5  and  C_6
REMARK    7  A    between atoms: C_6  and  C_7
REMARK    8  A    between atoms: C_10  and  C_11
REMARK    9  A    between atoms: C_11  and  N_12
REMARK   10  A    between atoms: N_12  and  C_13
REMARK   11  A    between atoms: C_13  and  C_14
REMARK                            x       y       z     vdW  Elec       q    Type
REMARK                         _______ _______ _______ _____ _____    ______ ____
ROOT
ATOM      1  N   UNL     1      47.476   6.610  12.099  0.00  0.00    +0.000 NA
ATOM      2  H   UNL     1      48.042   5.949  11.575  0.00  0.00    +0.000 HD
ENDROOT
BRANCH   1   3
ATOM      3  C   UNL     1      46.288   6.981  11.301  0.00  0.00    +0.000 C 
BRANCH   3   4
ATOM      4  C   UNL     1      45.692   5.710  10.684  0.00  0.00    +0.000 A 
ATOM      5  C   UNL     1      45.705   5.437   9.324  0.00  0.00    +0.000 A 
ATOM      6  S   UNL     1      44.845   4.036   8.882  0.00  0.00    +0.000 S 
ATOM      7  C   UNL     1      44.443   3.717  10.503  0.00  0.00    +0.000 A 
ATOM      8  N   UNL     1      43.663   2.648  10.817  0.00  0.00    +0.000 NA
ATOM      9  C   UNL     1      43.415   2.528  12.075  0.00  0.00    +0.000 A 
ATOM     10  N   UNL     1      43.899   3.362  13.052  0.00  0.00    +0.000 N 
ATOM     11  C   UNL     1      44.751   4.418  12.789  0.00  0.00    +0.000 A 
ATOM     12  O   UNL     1      45.285   5.044  13.700  0.00  0.00    +0.000 OA
ATOM     13  C   UNL     1      44.995   4.641  11.374  0.00  0.00    +0.000 A 
ATOM     14  H   UNL     1      43.712   3.170  14.024  0.00  0.00    +0.000 HD
ENDBRANCH   3   4
BRANCH   3  15
ATOM     15  C   UNL     1      45.214   7.801  12.077  0.00  0.00    +0.000 C 
BRANCH  15  16
ATOM     16  C   UNL     1      44.525   8.927  11.311  0.00  0.00    +0.000 C 
BRANCH  16  17
ATOM     17  N   UNL     1      43.197   8.469  10.895  0.00  0.00    +0.000 NA
ATOM     18  H   UNL     1      43.216   7.471  10.690  0.00  0.00    +0.000 HD
ATOM     19  H   UNL     1      42.920   8.933  10.029  0.00  0.00    +0.000 HD
ENDBRANCH  16  17
ENDBRANCH  15  16
ENDBRANCH   3  15
ENDBRANCH   1   3
BRANCH   1  20
ATOM     20  C   UNL     1      48.299   7.748  12.534  0.00  0.00    +0.000 C 
BRANCH  20  21
ATOM     21  C   UNL     1      48.653   7.772  14.010  0.00  0.00    +0.000 A 
ATOM     22  C   UNL     1      48.097   8.717  14.868  0.00  0.00    +0.000 A 
ATOM     23  C   UNL     1      48.351   8.619  16.235  0.00  0.00    +0.000 A 
ATOM     24  C   UNL     1      49.136   7.570  16.725  0.00  0.00    +0.000 A 
ATOM     25  C   UNL     1      49.656   6.681  15.795  0.00  0.00    +0.000 A 
ATOM     26  N   UNL     1      49.429   6.756  14.465  0.00  0.00    +0.000 NA
BRANCH  24  27
ATOM     27  C   UNL     1      49.409   7.413  18.194  0.00  0.00    +0.000 C 
BRANCH  27  28
ATOM     28  N   UNL     1      50.205   6.213  18.458  0.00  0.00    +0.000 NA
ATOM     29  H   UNL     1      50.916   6.431  19.156  0.00  0.00    +0.000 HD
BRANCH  28  30
ATOM     30  C   UNL     1      49.370   5.124  18.947  0.00  0.00    +0.000 C 
BRANCH  30  31
ATOM     31  C   UNL     1      49.389   3.955  17.993  0.00  0.00    +0.000 A 
ATOM     32  C   UNL     1      50.549   3.195  17.816  0.00  0.00    +0.000 A 
ATOM     33  C   UNL     1      50.514   2.121  16.938  0.00  0.00    +0.000 A 
ATOM     34  N   UNL     1      49.418   1.757  16.238  0.00  0.00    +0.000 NA
ATOM     35  C   UNL     1      48.309   2.504  16.421  0.00  0.00    +0.000 A 
ATOM     36  C   UNL     1      48.245   3.593  17.277  0.00  0.00    +0.000 A 
ENDBRANCH  30  31
ENDBRANCH  28  30
ENDBRANCH  27  28
ENDBRANCH  24  27
ENDBRANCH  20  21
ENDBRANCH   1  20
TORSDOF 11
ENDMDL
MODEL 8
REMARK VINA RESULT:    -7.064      2.853      4.344
REMARK INTER + INTRA:         -12.512
REMARK INTER:                 -11.344
REMARK INTRA:                  -1.169
REMARK UNBOUND:                -1.112
REMARK  Name = 
REMARK  11 active torsions:
REMARK  status: ('A' for Active; 'I' for Inactive)
REMARK    1  A    between atoms: N_1  and  C_2
REMARK    2  A    between atoms: C_2  and  C_3
REMARK    3  A    between atoms: C_3  and  C_4
REMARK    4  A    between atoms: C_4  and  N_5
REMARK    5  A    between atoms: C_4  and  C_22
REMARK    6  A    between atoms: N_5  and  C_6
REMARK    7  A    between atoms: C_6  and  C_7
REMARK    8  A    between atoms: C_10  and  C_11
REMARK    9  A    between atoms: C_11  and  N_12
REMARK   10  A    between atoms: N_12  and  C_13
REMARK   11  A    between atoms: C_13  and  C_14
REMARK                            x       y       z     vdW  Elec       q    Type
REMARK                         _______ _______ _______ _____ _____    ______ ____
ROOT
ATOM      1  N   UNL     1      47.082   7.466  13.900  0.00  0.00    +0.000 NA
ATOM      2  H   UNL     1      46.832   7.792  14.829  0.00  0.00    +0.000 HD
ENDROOT
BRANCH   1   3
ATOM      3  C   UNL     1      48.368   8.072  13.496  0.00  0.00    +0.000 C 
BRANCH   3   4
ATOM      4  C   UNL     1      49.130   8.498  14.756  0.00  0.00    +0.000 A 
ATOM      5  C   UNL     1      49.597   9.787  14.972  0.00  0.00    +0.000 A 
ATOM      6  S   UNL     1      50.541   9.963  16.377  0.00  0.00    +0.000 S 
ATOM      7  C   UNL     1      50.340   8.322  16.773  0.00  0.00    +0.000 A 
ATOM      8  N   UNL     1      50.947   7.805  17.875  0.00  0.00    +0.000 NA
ATOM      9  C   UNL     1      50.731   6.548  18.054  0.00  0.00    +0.000 A 
ATOM     10  N   UNL     1      49.942   5.766  17.247  0.00  0.00    +0.000 N 
ATOM     11  C   UNL     1      49.250   6.262  16.159  0.00  0.00    +0.000 A 
ATOM     12  O   UNL     1      48.435   5.570  15.556  0.00  0.00    +0.000 OA
ATOM     13  C   UNL     1      49.526   7.660  15.871  0.00  0.00    +0.000 A 
ATOM     14  H   UNL     1      49.771   4.801  17.484  0.00  0.00    +0.000 HD
ENDBRANCH   3   4
BRANCH   3  15
ATOM     15  C   UNL     1      49.246   7.176  12.569  0.00  0.00    +0.000 C 
BRANCH  15  16
ATOM     16  C   UNL     1      50.162   7.897  11.586  0.00  0.00    +0.000 C 
BRANCH  16  17
ATOM     17  N   UNL     1      51.535   7.840  12.093  0.00  0.00    +0.000 NA
ATOM     18  H   UNL     1      51.534   7.778  13.110  0.00  0.00    +0.000 HD
ATOM     19  H   UNL     1      52.033   8.700  11.860  0.00  0.00    +0.000 HD
ENDBRANCH  16  17
ENDBRANCH  15  16
ENDBRANCH   3  15
ENDBRANCH   1   3
BRANCH   1  20
ATOM     20  C   UNL     1      45.973   7.706  12.964  0.00  0.00    +0.000 C 
BRANCH  20  21
ATOM     21  C   UNL     1      45.219   6.468  12.514  0.00  0.00    +0.000 A 
ATOM     22  C   UNL     1      44.185   6.553  11.585  0.00  0.00    +0.000 A 
ATOM     23  C   UNL     1      43.611   5.376  11.106  0.00  0.00    +0.000 A 
ATOM     24  C   UNL     1      44.088   4.138  11.546  0.00  0.00    +0.000 A 
ATOM     25  C   UNL     1      45.114   4.150  12.479  0.00  0.00    +0.000 A 
ATOM     26  N   UNL     1      45.686   5.275  12.963  0.00  0.00    +0.000 NA
BRANCH  24  27
ATOM     27  C   UNL     1      43.515   2.847  11.032  0.00  0.00    +0.000 C 
BRANCH  27  28
ATOM     28  N   UNL     1      44.445   2.182  10.119  0.00  0.00    +0.000 NA
ATOM     29  H   UNL     1      44.070   1.266   9.870  0.00  0.00    +0.000 HD
BRANCH  28  30
ATOM     30  C   UNL     1      44.645   2.965   8.907  0.00  0.00    +0.000 C 
BRANCH  30  31
ATOM     31  C   UNL     1      45.810   2.439   8.107  0.00  0.00    +0.000 A 
ATOM     32  C   UNL     1      46.576   3.294   7.309  0.00  0.00    +0.000 A 
ATOM     33  C   UNL     1      47.646   2.765   6.603  0.00  0.00    +0.000 A 
ATOM     34  N   UNL     1      48.002   1.463   6.639  0.00  0.00    +0.000 NA
ATOM     35  C   UNL     1      47.250   0.652   7.413  0.00  0.00    +0.000 A 
ATOM     36  C   UNL     1      46.163   1.087   8.157  0.00  0.00    +0.000 A 
ENDBRANCH  30  31
ENDBRANCH  28  30
ENDBRANCH  27  28
ENDBRANCH  24  27
ENDBRANCH  20  21
ENDBRANCH   1  20
TORSDOF 11
ENDMDL
MODEL 9
REMARK VINA RESULT:    -6.729      3.498      8.853
REMARK INTER + INTRA:         -11.972
REMARK INTER:                 -10.571
REMARK INTRA:                  -1.401
REMARK UNBOUND:                -1.112
REMARK  Name = 
REMARK  11 active torsions:
REMARK  status: ('A' for Active; 'I' for Inactive)
REMARK    1  A    between atoms: N_1  and  C_2
REMARK    2  A    between atoms: C_2  and  C_3
REMARK    3  A    between atoms: C_3  and  C_4
REMARK    4  A    between atoms: C_4  and  N_5
REMARK    5  A    between atoms: C_4  and  C_22
REMARK    6  A    between atoms: N_5  and  C_6
REMARK    7  A    between atoms: C_6  and  C_7
REMARK    8  A    between atoms: C_10  and  C_11
REMARK    9  A    between atoms: C_11  and  N_12
REMARK   10  A    between atoms: N_12  and  C_13
REMARK   11  A    between atoms: C_13  and  C_14
REMARK                            x       y       z     vdW  Elec       q    Type
REMARK                         _______ _______ _______ _____ _____    ______ ____
ROOT
ATOM      1  N   UNL     1      47.343   6.672  11.568  0.00  0.00    +0.000 NA
ATOM      2  H   UNL     1      47.591   6.245  10.680  0.00  0.00    +0.000 HD
ENDROOT
BRANCH   1   3
ATOM      3  C   UNL     1      45.946   7.152  11.509  0.00  0.00    +0.000 C 
BRANCH   3   4
ATOM      4  C   UNL     1      45.006   5.948  11.650  0.00  0.00    +0.000 A 
ATOM      5  C   UNL     1      44.189   5.736  12.751  0.00  0.00    +0.000 A 
ATOM      6  S   UNL     1      43.357   4.252  12.731  0.00  0.00    +0.000 S 
ATOM      7  C   UNL     1      44.035   3.842  11.227  0.00  0.00    +0.000 A 
ATOM      8  N   UNL     1      43.750   2.641  10.652  0.00  0.00    +0.000 NA
ATOM      9  C   UNL     1      44.340   2.444   9.525  0.00  0.00    +0.000 A 
ATOM     10  N   UNL     1      45.167   3.347   8.905  0.00  0.00    +0.000 N 
ATOM     11  C   UNL     1      45.429   4.604   9.414  0.00  0.00    +0.000 A 
ATOM     12  O   UNL     1      46.046   5.439   8.759  0.00  0.00    +0.000 OA
ATOM     13  C   UNL     1      44.848   4.843  10.725  0.00  0.00    +0.000 A 
ATOM     14  H   UNL     1      45.547   3.147   7.992  0.00  0.00    +0.000 HD
ENDBRANCH   3   4
BRANCH   3  15
ATOM     15  C   UNL     1      45.600   8.273  12.535  0.00  0.00    +0.000 C 
BRANCH  15  16
ATOM     16  C   UNL     1      44.978   9.548  11.975  0.00  0.00    +0.000 C 
BRANCH  16  17
ATOM     17  N   UNL     1      45.860  10.677  12.279  0.00  0.00    +0.000 NA
ATOM     18  H   UNL     1      46.199  11.102  11.417  0.00  0.00    +0.000 HD
ATOM     19  H   UNL     1      46.687  10.353  12.781  0.00  0.00    +0.000 HD
ENDBRANCH  16  17
ENDBRANCH  15  16
ENDBRANCH   3  15
ENDBRANCH   1   3
BRANCH   1  20
ATOM     20  C   UNL     1      48.328   7.704  11.926  0.00  0.00    +0.000 C 
BRANCH  20  21
ATOM     21  C   UNL     1      49.136   7.429  13.182  0.00  0.00    +0.000 A 
ATOM     22  C   UNL     1      50.374   8.031  13.387  0.00  0.00    +0.000 A 
ATOM     23  C   UNL     1      51.017   7.849  14.610  0.00  0.00    +0.000 A 
ATOM     24  C   UNL     1      50.407   7.090  15.613  0.00  0.00    +0.000 A 
ATOM     25  C   UNL     1      49.177   6.520  15.316  0.00  0.00    +0.000 A 
ATOM     26  N   UNL     1      48.534   6.677  14.138  0.00  0.00    +0.000 NA
BRANCH  24  27
ATOM     27  C   UNL     1      51.054   6.894  16.955  0.00  0.00    +0.000 C 
BRANCH  27  28
ATOM     28  N   UNL     1      51.462   5.502  17.147  0.00  0.00    +0.000 NA
ATOM     29  H   UNL     1      52.474   5.466  17.276  0.00  0.00    +0.000 HD
BRANCH  28  30
ATOM     30  C   UNL     1      50.808   4.916  18.310  0.00  0.00    +0.000 C 
BRANCH  30  31
ATOM     31  C   UNL     1      49.442   4.386  17.955  0.00  0.00    +0.000 A 
ATOM     32  C   UNL     1      49.301   3.206  17.219  0.00  0.00    +0.000 A 
ATOM     33  C   UNL     1      48.023   2.751  16.928  0.00  0.00    +0.000 A 
ATOM     34  N   UNL     1      46.894   3.380  17.318  0.00  0.00    +0.000 NA
ATOM     35  C   UNL     1      47.050   4.519  18.026  0.00  0.00    +0.000 A 
ATOM     36  C   UNL     1      48.284   5.052  18.367  0.00  0.00    +0.000 A 
ENDBRANCH  30  31
ENDBRANCH  28  30
ENDBRANCH  27  28
ENDBRANCH  24  27
ENDBRANCH  20  21
ENDBRANCH   1  20
TORSDOF 11
ENDMDL
