MODEL 1
REMARK VINA RESULT:    -7.885      0.000      0.000
REMARK INTER + INTRA:         -13.270
REMARK INTER:                 -12.264
REMARK INTRA:                  -1.006
REMARK UNBOUND:                -1.006
REMARK  Name = 
REMARK  12 active torsions:
REMARK  status: ('A' for Active; 'I' for Inactive)
REMARK    1  A    between atoms: C_1  and  C_2
REMARK    2  A    between atoms: C_2  and  C_3
REMARK    3  A    between atoms: C_3  and  N_4
REMARK    4  A    between atoms: C_3  and  C_5
REMARK    5  A    between atoms: C_5  and  O_6
REMARK    6  A    between atoms: O_6  and  C_7
REMARK    7  A    between atoms: C_7  and  C_8
REMARK    8  A    between atoms: C_7  and  C_9
REMARK    9  A    between atoms: C_12  and  C_13
REMARK   10  A    between atoms: C_13  and  O_14
REMARK   11  A    between atoms: O_14  and  C_15
REMARK   12  A    between atoms: C_18  and  C_19
REMARK                            x       y       z     vdW  Elec       q    Type
REMARK                         _______ _______ _______ _____ _____    ______ ____
ROOT
ATOM      1  C   UNL     1      47.015   5.758  13.627  0.00  0.00    +0.000 A 
ATOM      2  C   UNL     1      46.280   6.568  12.760  0.00  0.00    +0.000 A 
ATOM      3  C   UNL     1      45.167   6.049  12.104  0.00  0.00    +0.000 A 
ATOM      4  C   UNL     1      44.814   4.721  12.332  0.00  0.00    +0.000 A 
ATOM      5  N   UNL     1      45.487   3.928  13.204  0.00  0.00    +0.000 NA
ATOM      6  C   UNL     1      46.557   4.464  13.832  0.00  0.00    +0.000 A 
ENDROOT
BRANCH   1   7
ATOM      7  C   UNL     1      48.271   6.241  14.315  0.00  0.00    +0.000 C 
ATOM      8  C   UNL     1      48.102   7.703  14.735  0.00  0.00    +0.000 C 
BRANCH   7   9
ATOM      9  O   UNL     1      48.574   5.461  15.480  0.00  0.00    +0.000 OA
BRANCH   9  10
ATOM     10  C   UNL     1      48.405   6.201  16.700  0.00  0.00    +0.000 C 
BRANCH  10  11
ATOM     11  C   UNL     1      48.134   5.249  17.887  0.00  0.00    +0.000 C 
BRANCH  11  12
ATOM     12  N   UNL     1      46.712   5.286  18.267  0.00  0.00    +0.000 NA
ATOM     13  H   UNL     1      46.592   6.058  18.926  0.00  0.00    +0.000 HD
ATOM     14  H   UNL     1      46.482   4.446  18.796  0.00  0.00    +0.000 HD
ENDBRANCH  11  12
BRANCH  11  16
ATOM     15  C   UNL     1      47.393   2.829  17.504  0.00  0.00    +0.000 C 
ATOM     16  C   UNL     1      48.559   3.810  17.553  0.00  0.00    +0.000 C 
ENDBRANCH  11  16
ENDBRANCH  10  11
ENDBRANCH   9  10
ENDBRANCH   7   9
ENDBRANCH   1   7
BRANCH   4  17
ATOM     17  C   UNL     1      43.646   4.105  11.596  0.00  0.00    +0.000 C 
BRANCH  17  18
ATOM     18  O   UNL     1      43.727   4.465  10.219  0.00  0.00    +0.000 OA
BRANCH  18  19
ATOM     19  C   UNL     1      44.567   3.725   9.436  0.00  0.00    +0.000 A 
ATOM     20  C   UNL     1      44.730   2.340   9.477  0.00  0.00    +0.000 A 
ATOM     21  C   UNL     1      45.654   1.717   8.629  0.00  0.00    +0.000 A 
ATOM     22  C   UNL     1      46.409   2.471   7.724  0.00  0.00    +0.000 A 
ATOM     23  C   UNL     1      46.248   3.860   7.684  0.00  0.00    +0.000 A 
ATOM     24  C   UNL     1      45.328   4.477   8.536  0.00  0.00    +0.000 A 
BRANCH  22  25
ATOM     25  C   UNL     1      47.388   1.762   6.859  0.00  0.00    +0.000 C 
ATOM     26  N   UNL     1      48.489   2.464   6.449  0.00  0.00    +0.000 N 
ATOM     27  O   UNL     1      47.207   0.607   6.493  0.00  0.00    +0.000 OA
ATOM     28  H   UNL     1      48.560   3.466   6.527  0.00  0.00    +0.000 HD
ATOM     29  H   UNL     1      49.092   2.000   5.778  0.00  0.00    +0.000 HD
ENDBRANCH  22  25
ENDBRANCH  18  19
ENDBRANCH  17  18
ENDBRANCH   4  17
TORSDOF 10
ENDMDL
MODEL 2
REMARK VINA RESULT:    -7.706      1.644      3.095
REMARK INTER + INTRA:         -12.992
REMARK INTER:                 -11.900
REMARK INTRA:                  -1.093
REMARK UNBOUND:                -1.006
REMARK  Name = 
REMARK  12 active torsions:
REMARK  status: ('A' for Active; 'I' for Inactive)
REMARK    1  A    between atoms: C_1  and  C_2
REMARK    2  A    between atoms: C_2  and  C_3
REMARK    3  A    between atoms: C_3  and  N_4
REMARK    4  A    between atoms: C_3  and  C_5
REMARK    5  A    between atoms: C_5  and  O_6
REMARK    6  A    between atoms: O_6  and  C_7
REMARK    7  A    between atoms: C_7  and  C_8
REMARK    8  A    between atoms: C_7  and  C_9
REMARK    9  A    between atoms: C_12  and  C_13
REMARK   10  A    between atoms: C_13  and  O_14
REMARK   11  A    between atoms: O_14  and  C_15
REMARK   12  A    between atoms: C_18  and  C_19
REMARK                            x       y       z     vdW  Elec       q    Type
REMARK                         _______ _______ _______ _____ _____    ______ ____
ROOT
ATOM      1  C   UNL     1      46.401   5.036  13.795  0.00  0.00    +0.000 A 
ATOM      2  C   UNL     1      45.254   5.667  13.312  0.00  0.00    +0.000 A 
ATOM      3  C   UNL     1      44.339   4.949  12.546  0.00  0.00    +0.000 A 
ATOM      4  C   UNL     1      44.596   3.606  12.280  0.00  0.00    +0.000 A 
ATOM      5  N   UNL     1      45.681   2.960  12.776  0.00  0.00    +0.000 NA
ATOM      6  C   UNL     1      46.546   3.682  13.523  0.00  0.00    +0.000 A 
ENDROOT
BRANCH   1   7
ATOM      7  C   UNL     1      47.465   5.775  14.572  0.00  0.00    +0.000 C 
ATOM      8  C   UNL     1      47.951   4.910  15.738  0.00  0.00    +0.000 C 
BRANCH   7   9
ATOM      9  O   UNL     1      48.591   6.110  13.750  0.00  0.00    +0.000 OA
BRANCH   9  10
ATOM     10  C   UNL     1      48.858   7.521  13.727  0.00  0.00    +0.000 C 
BRANCH  10  11
ATOM     11  C   UNL     1      47.558   8.331  13.934  0.00  0.00    +0.000 C 
BRANCH  11  12
ATOM     12  N   UNL     1      47.687   9.234  15.089  0.00  0.00    +0.000 NA
ATOM     13  H   UNL     1      48.118  10.098  14.755  0.00  0.00    +0.000 HD
ATOM     14  H   UNL     1      48.355   8.841  15.752  0.00  0.00    +0.000 HD
ENDBRANCH  11  12
BRANCH  11  16
ATOM     15  C   UNL     1      45.691   9.264  12.451  0.00  0.00    +0.000 C 
ATOM     16  C   UNL     1      47.194   9.129  12.671  0.00  0.00    +0.000 C 
ENDBRANCH  11  16
ENDBRANCH  10  11
ENDBRANCH   9  10
ENDBRANCH   7   9
ENDBRANCH   1   7
BRANCH   4  17
ATOM     17  C   UNL     1      43.654   2.808  11.407  0.00  0.00    +0.000 C 
BRANCH  17  18
ATOM     18  O   UNL     1      43.526   3.465  10.148  0.00  0.00    +0.000 OA
BRANCH  18  19
ATOM     19  C   UNL     1      44.539   3.283   9.250  0.00  0.00    +0.000 A 
ATOM     20  C   UNL     1      45.159   4.277   8.492  0.00  0.00    +0.000 A 
ATOM     21  C   UNL     1      46.170   3.938   7.585  0.00  0.00    +0.000 A 
ATOM     22  C   UNL     1      46.578   2.607   7.440  0.00  0.00    +0.000 A 
ATOM     23  C   UNL     1      45.956   1.610   8.197  0.00  0.00    +0.000 A 
ATOM     24  C   UNL     1      44.943   1.954   9.098  0.00  0.00    +0.000 A 
BRANCH  22  25
ATOM     25  C   UNL     1      47.644   2.300   6.450  0.00  0.00    +0.000 C 
ATOM     26  N   UNL     1      47.721   3.099   5.341  0.00  0.00    +0.000 N 
ATOM     27  O   UNL     1      48.404   1.351   6.594  0.00  0.00    +0.000 OA
ATOM     28  H   UNL     1      46.984   3.730   5.068  0.00  0.00    +0.000 HD
ATOM     29  H   UNL     1      48.384   2.814   4.628  0.00  0.00    +0.000 HD
ENDBRANCH  22  25
ENDBRANCH  18  19
ENDBRANCH  17  18
ENDBRANCH   4  17
TORSDOF 10
ENDMDL
MODEL 3
REMARK VINA RESULT:    -7.176      2.293      3.661
REMARK INTER + INTRA:         -12.167
REMARK INTER:                 -11.283
REMARK INTRA:                  -0.884
REMARK UNBOUND:                -1.006
REMARK  Name = 
REMARK  12 active torsions:
REMARK  status: ('A' for Active; 'I' for Inactive)
REMARK    1  A    between atoms: C_1  and  C_2
REMARK    2  A    between atoms: C_2  and  C_3
REMARK    3  A    between atoms: C_3  and  N_4
REMARK    4  A    between atoms: C_3  and  C_5
REMARK    5  A    between atoms: C_5  and  O_6
REMARK    6  A    between atoms: O_6  and  C_7
REMARK    7  A    between atoms: C_7  and  C_8
REMARK    8  A    between atoms: C_7  and  C_9
REMARK    9  A    between atoms: C_12  and  C_13
REMARK   10  A    between atoms: C_13  and  O_14
REMARK   11  A    between atoms: O_14  and  C_15
REMARK   12  A    between atoms: C_18  and  C_19
REMARK                            x       y       z     vdW  Elec       q    Type
REMARK                         _______ _______ _______ _____ _____    ______ ____
ROOT
ATOM      1  C   UNL     1      46.806   5.368  13.529  0.00  0.00    +0.000 A 
ATOM      2  C   UNL     1      46.912   3.979  13.443  0.00  0.00    +0.000 A 
ATOM      3  C   UNL     1      45.904   3.244  12.823  0.00  0.00    +0.000 A 
ATOM      4  C   UNL     1      44.806   3.922  12.301  0.00  0.00    +0.000 A 
ATOM      5  N   UNL     1      44.702   5.275  12.333  0.00  0.00    +0.000 NA
ATOM      6  C   UNL     1      45.700   5.960  12.933  0.00  0.00    +0.000 A 
ENDROOT
BRANCH   1   7
ATOM      7  C   UNL     1      47.829   6.215  14.248  0.00  0.00    +0.000 C 
ATOM      8  C   UNL     1      48.190   5.565  15.586  0.00  0.00    +0.000 C 
BRANCH   7   9
ATOM      9  O   UNL     1      49.027   6.374  13.477  0.00  0.00    +0.000 OA
BRANCH   9  10
ATOM     10  C   UNL     1      48.952   7.477  12.560  0.00  0.00    +0.000 C 
BRANCH  10  11
ATOM     11  C   UNL     1      50.189   8.394  12.700  0.00  0.00    +0.000 C 
BRANCH  11  12
ATOM     12  N   UNL     1      51.266   7.706  13.430  0.00  0.00    +0.000 NA
ATOM     13  H   UNL     1      52.148   7.951  12.976  0.00  0.00    +0.000 HD
ATOM     14  H   UNL     1      51.170   6.699  13.303  0.00  0.00    +0.000 HD
ENDBRANCH  11  12
BRANCH  11  16
ATOM     15  C   UNL     1      51.866   8.045  10.798  0.00  0.00    +0.000 C 
ATOM     16  C   UNL     1      50.690   8.862  11.324  0.00  0.00    +0.000 C 
ENDBRANCH  11  16
ENDBRANCH  10  11
ENDBRANCH   9  10
ENDBRANCH   7   9
ENDBRANCH   1   7
BRANCH   4  17
ATOM     17  C   UNL     1      43.666   3.155  11.669  0.00  0.00    +0.000 C 
BRANCH  17  18
ATOM     18  O   UNL     1      43.468   3.635  10.341  0.00  0.00    +0.000 OA
BRANCH  18  19
ATOM     19  C   UNL     1      44.459   3.376   9.437  0.00  0.00    +0.000 A 
ATOM     20  C   UNL     1      45.140   4.317   8.665  0.00  0.00    +0.000 A 
ATOM     21  C   UNL     1      46.117   3.901   7.753  0.00  0.00    +0.000 A 
ATOM     22  C   UNL     1      46.431   2.544   7.618  0.00  0.00    +0.000 A 
ATOM     23  C   UNL     1      45.747   1.599   8.389  0.00  0.00    +0.000 A 
ATOM     24  C   UNL     1      44.769   2.020   9.295  0.00  0.00    +0.000 A 
BRANCH  22  25
ATOM     25  C   UNL     1      47.464   2.155   6.622  0.00  0.00    +0.000 C 
ATOM     26  N   UNL     1      47.466   2.820   5.425  0.00  0.00    +0.000 N 
ATOM     27  O   UNL     1      48.263   1.253   6.840  0.00  0.00    +0.000 OA
ATOM     28  H   UNL     1      46.696   3.392   5.115  0.00  0.00    +0.000 HD
ATOM     29  H   UNL     1      48.108   2.473   4.721  0.00  0.00    +0.000 HD
ENDBRANCH  22  25
ENDBRANCH  18  19
ENDBRANCH  17  18
ENDBRANCH   4  17
TORSDOF 10
ENDMDL
MODEL 4
REMARK VINA RESULT:    -6.856      1.983      2.505
REMARK INTER + INTRA:         -11.670
REMARK INTER:                 -10.826
REMARK INTRA:                  -0.844
REMARK UNBOUND:                -1.006
REMARK  Name = 
REMARK  12 active torsions:
REMARK  status: ('A' for Active; 'I' for Inactive)
REMARK    1  A    between atoms: C_1  and  C_2
REMARK    2  A    between atoms: C_2  and  C_3
REMARK    3  A    between atoms: C_3  and  N_4
REMARK    4  A    between atoms: C_3  and  C_5
REMARK    5  A    between atoms: C_5  and  O_6
REMARK    6  A    between atoms: O_6  and  C_7
REMARK    7  A    between atoms: C_7  and  C_8
REMARK    8  A    between atoms: C_7  and  C_9
REMARK    9  A    between atoms: C_12  and  C_13
REMARK   10  A    between atoms: C_13  and  O_14
REMARK   11  A    between atoms: O_14  and  C_15
REMARK   12  A    between atoms: C_18  and  C_19
REMARK                            x       y       z     vdW  Elec       q    Type
REMARK                         _______ _______ _______ _____ _____    ______ ____
ROOT
ATOM      1  C   UNL     1      47.372   6.190  12.779  0.00  0.00    +0.000 A 
ATOM      2  C   UNL     1      46.953   4.924  13.191  0.00  0.00    +0.000 A 
ATOM      3  C   UNL     1      45.755   4.401  12.712  0.00  0.00    +0.000 A 
ATOM      4  C   UNL     1      44.999   5.163  11.825  0.00  0.00    +0.000 A 
ATOM      5  N   UNL     1      45.408   6.377  11.375  0.00  0.00    +0.000 NA
ATOM      6  C   UNL     1      46.579   6.853  11.852  0.00  0.00    +0.000 A 
ENDROOT
BRANCH   1   7
ATOM      7  C   UNL     1      48.626   6.841  13.316  0.00  0.00    +0.000 C 
ATOM      8  C   UNL     1      49.220   7.771  12.255  0.00  0.00    +0.000 C 
BRANCH   7   9
ATOM      9  O   UNL     1      48.365   7.605  14.501  0.00  0.00    +0.000 OA
BRANCH   9  10
ATOM     10  C   UNL     1      48.737   6.908  15.700  0.00  0.00    +0.000 C 
BRANCH  10  11
ATOM     11  C   UNL     1      49.382   7.874  16.720  0.00  0.00    +0.000 C 
BRANCH  11  12
ATOM     12  N   UNL     1      50.096   8.959  16.027  0.00  0.00    +0.000 NA
ATOM     13  H   UNL     1      51.081   8.896  16.294  0.00  0.00    +0.000 HD
ATOM     14  H   UNL     1      49.779   9.857  16.389  0.00  0.00    +0.000 HD
ENDBRANCH  11  12
BRANCH  11  16
ATOM     15  C   UNL     1      47.974   9.907  17.379  0.00  0.00    +0.000 C 
ATOM     16  C   UNL     1      48.329   8.455  17.678  0.00  0.00    +0.000 C 
ENDBRANCH  11  16
ENDBRANCH  10  11
ENDBRANCH   9  10
ENDBRANCH   7   9
ENDBRANCH   1   7
BRANCH   4  17
ATOM     17  C   UNL     1      43.666   4.654  11.324  0.00  0.00    +0.000 C 
BRANCH  17  18
ATOM     18  O   UNL     1      43.663   4.694   9.900  0.00  0.00    +0.000 OA
BRANCH  18  19
ATOM     19  C   UNL     1      44.491   3.819   9.255  0.00  0.00    +0.000 A 
ATOM     20  C   UNL     1      44.531   2.436   9.434  0.00  0.00    +0.000 A 
ATOM     21  C   UNL     1      45.455   1.663   8.721  0.00  0.00    +0.000 A 
ATOM     22  C   UNL     1      46.335   2.265   7.814  0.00  0.00    +0.000 A 
ATOM     23  C   UNL     1      46.297   3.652   7.636  0.00  0.00    +0.000 A 
ATOM     24  C   UNL     1      45.375   4.419   8.354  0.00  0.00    +0.000 A 
BRANCH  22  25
ATOM     25  C   UNL     1      47.309   1.401   7.097  0.00  0.00    +0.000 C 
ATOM     26  N   UNL     1      48.410   2.009   6.556  0.00  0.00    +0.000 N 
ATOM     27  O   UNL     1      47.124   0.198   6.958  0.00  0.00    +0.000 OA
ATOM     28  H   UNL     1      48.484   3.007   6.442  0.00  0.00    +0.000 HD
ATOM     29  H   UNL     1      49.010   1.424   5.984  0.00  0.00    +0.000 HD
ENDBRANCH  22  25
ENDBRANCH  18  19
ENDBRANCH  17  18
ENDBRANCH   4  17
TORSDOF 10
ENDMDL
MODEL 5
REMARK VINA RESULT:    -6.532      2.632      8.406
REMARK INTER + INTRA:         -11.165
REMARK INTER:                 -10.522
REMARK INTRA:                  -0.644
REMARK UNBOUND:                -1.006
REMARK  Name = 
REMARK  12 active torsions:
REMARK  status: ('A' for Active; 'I' for Inactive)
REMARK    1  A    between atoms: C_1  and  C_2
REMARK    2  A    between atoms: C_2  and  C_3
REMARK    3  A    between atoms: C_3  and  N_4
REMARK    4  A    between atoms: C_3  and  C_5
REMARK    5  A    between atoms: C_5  and  O_6
REMARK    6  A    between atoms: O_6  and  C_7
REMARK    7  A    between atoms: C_7  and  C_8
REMARK    8  A    between atoms: C_7  and  C_9
REMARK    9  A    between atoms: C_12  and  C_13
REMARK   10  A    between atoms: C_13  and  O_14
REMARK   11  A    between atoms: O_14  and  C_15
REMARK   12  A    between atoms: C_18  and  C_19
REMARK                            x       y       z     vdW  Elec       q    Type
REMARK                         _______ _______ _______ _____ _____    ______ ____
ROOT
ATOM      1  C   UNL     1      45.580   4.881  12.023  0.00  0.00    +0.000 A 
ATOM      2  C   UNL     1      46.420   5.995  11.972  0.00  0.00    +0.000 A 
ATOM      3  C   UNL     1      47.213   6.315  13.070  0.00  0.00    +0.000 A 
ATOM      4  C   UNL     1      47.147   5.507  14.202  0.00  0.00    +0.000 A 
ATOM      5  N   UNL     1      46.373   4.394  14.259  0.00  0.00    +0.000 NA
ATOM      6  C   UNL     1      45.621   4.105  13.174  0.00  0.00    +0.000 A 
ENDROOT
BRANCH   1   7
ATOM      7  C   UNL     1      44.644   4.521  10.893  0.00  0.00    +0.000 C 
ATOM      8  C   UNL     1      43.309   5.245  11.076  0.00  0.00    +0.000 C 
BRANCH   7   9
ATOM      9  O   UNL     1      45.188   4.878   9.615  0.00  0.00    +0.000 OA
BRANCH   9  10
ATOM     10  C   UNL     1      44.822   3.951   8.580  0.00  0.00    +0.000 C 
BRANCH  10  11
ATOM     11  C   UNL     1      45.686   2.671   8.658  0.00  0.00    +0.000 C 
BRANCH  11  12
ATOM     12  N   UNL     1      44.852   1.500   8.972  0.00  0.00    +0.000 NA
ATOM     13  H   UNL     1      43.920   1.678   8.594  0.00  0.00    +0.000 HD
ATOM     14  H   UNL     1      44.724   1.438   9.981  0.00  0.00    +0.000 HD
ENDBRANCH  11  12
BRANCH  11  16
ATOM     15  C   UNL     1      47.212   1.118   7.312  0.00  0.00    +0.000 C 
ATOM     16  C   UNL     1      46.456   2.442   7.347  0.00  0.00    +0.000 C 
ENDBRANCH  11  16
ENDBRANCH  10  11
ENDBRANCH   9  10
ENDBRANCH   7   9
ENDBRANCH   1   7
BRANCH   4  17
ATOM     17  C   UNL     1      47.952   5.853  15.435  0.00  0.00    +0.000 C 
BRANCH  17  18
ATOM     18  O   UNL     1      47.737   4.847  16.422  0.00  0.00    +0.000 OA
BRANCH  18  19
ATOM     19  C   UNL     1      48.821   4.101  16.790  0.00  0.00    +0.000 A 
ATOM     20  C   UNL     1      50.021   4.587  17.310  0.00  0.00    +0.000 A 
ATOM     21  C   UNL     1      51.061   3.701  17.617  0.00  0.00    +0.000 A 
ATOM     22  C   UNL     1      50.903   2.325  17.422  0.00  0.00    +0.000 A 
ATOM     23  C   UNL     1      49.701   1.837  16.900  0.00  0.00    +0.000 A 
ATOM     24  C   UNL     1      48.668   2.726  16.590  0.00  0.00    +0.000 A 
BRANCH  22  25
ATOM     25  C   UNL     1      52.045   1.431  17.749  0.00  0.00    +0.000 C 
ATOM     26  N   UNL     1      51.752   0.146  18.120  0.00  0.00    +0.000 N 
ATOM     27  O   UNL     1      53.203   1.829  17.725  0.00  0.00    +0.000 OA
ATOM     28  H   UNL     1      50.825  -0.152  18.378  0.00  0.00    +0.000 HD
ATOM     29  H   UNL     1      52.533  -0.418  18.437  0.00  0.00    +0.000 HD
ENDBRANCH  22  25
ENDBRANCH  18  19
ENDBRANCH  17  18
ENDBRANCH   4  17
TORSDOF 10
ENDMDL
MODEL 6
REMARK VINA RESULT:    -6.220      2.848      4.354
REMARK INTER + INTRA:         -10.680
REMARK INTER:                  -9.780
REMARK INTRA:                  -0.900
REMARK UNBOUND:                -1.006
REMARK  Name = 
REMARK  12 active torsions:
REMARK  status: ('A' for Active; 'I' for Inactive)
REMARK    1  A    between atoms: C_1  and  C_2
REMARK    2  A    between atoms: C_2  and  C_3
REMARK    3  A    between atoms: C_3  and  N_4
REMARK    4  A    between atoms: C_3  and  C_5
REMARK    5  A    between atoms: C_5  and  O_6
REMARK    6  A    between atoms: O_6  and  C_7
REMARK    7  A    between atoms: C_7  and  C_8
REMARK    8  A    between atoms: C_7  and  C_9
REMARK    9  A    between atoms: C_12  and  C_13
REMARK   10  A    between atoms: C_13  and  O_14
REMARK   11  A    between atoms: O_14  and  C_15
REMARK   12  A    between atoms: C_18  and  C_19
REMARK                            x       y       z     vdW  Elec       q    Type
REMARK                         _______ _______ _______ _____ _____    ______ ____
ROOT
ATOM      1  C   UNL     1      46.476   7.312  13.061  0.00  0.00    +0.000 A 
ATOM      2  C   UNL     1      46.754   5.947  13.152  0.00  0.00    +0.000 A 
ATOM      3  C   UNL     1      45.878   5.022  12.589  0.00  0.00    +0.000 A 
ATOM      4  C   UNL     1      44.736   5.489  11.944  0.00  0.00    +0.000 A 
ATOM      5  N   UNL     1      44.467   6.812  11.803  0.00  0.00    +0.000 NA
ATOM      6  C   UNL     1      45.341   7.684  12.353  0.00  0.00    +0.000 A 
ENDROOT
BRANCH   1   7
ATOM      7  C   UNL     1      47.348   8.360  13.710  0.00  0.00    +0.000 C 
ATOM      8  C   UNL     1      48.351   7.689  14.652  0.00  0.00    +0.000 C 
BRANCH   7   9
ATOM      9  O   UNL     1      48.074   9.126  12.739  0.00  0.00    +0.000 OA
BRANCH   9  10
ATOM     10  C   UNL     1      48.465  10.417  13.233  0.00  0.00    +0.000 C 
BRANCH  10  11
ATOM     11  C   UNL     1      49.626  10.999  12.394  0.00  0.00    +0.000 C 
BRANCH  11  12
ATOM     12  N   UNL     1      50.918  10.463  12.853  0.00  0.00    +0.000 NA
ATOM     13  H   UNL     1      51.652  11.055  12.459  0.00  0.00    +0.000 HD
ATOM     14  H   UNL     1      51.068   9.543  12.439  0.00  0.00    +0.000 HD
ENDBRANCH  11  12
BRANCH  11  16
ATOM     15  C   UNL     1      48.299  11.516  10.267  0.00  0.00    +0.000 C 
ATOM     16  C   UNL     1      49.428  10.707  10.897  0.00  0.00    +0.000 C 
ENDBRANCH  11  16
ENDBRANCH  10  11
ENDBRANCH   9  10
ENDBRANCH   7   9
ENDBRANCH   1   7
BRANCH   4  17
ATOM     17  C   UNL     1      43.733   4.514  11.368  0.00  0.00    +0.000 C 
BRANCH  17  18
ATOM     18  O   UNL     1      43.700   4.671   9.951  0.00  0.00    +0.000 OA
BRANCH  18  19
ATOM     19  C   UNL     1      44.652   4.004   9.233  0.00  0.00    +0.000 A 
ATOM     20  C   UNL     1      45.668   4.581   8.472  0.00  0.00    +0.000 A 
ATOM     21  C   UNL     1      46.560   3.769   7.762  0.00  0.00    +0.000 A 
ATOM     22  C   UNL     1      46.452   2.375   7.820  0.00  0.00    +0.000 A 
ATOM     23  C   UNL     1      45.432   1.795   8.581  0.00  0.00    +0.000 A 
ATOM     24  C   UNL     1      44.542   2.612   9.285  0.00  0.00    +0.000 A 
BRANCH  22  25
ATOM     25  C   UNL     1      47.414   1.559   7.033  0.00  0.00    +0.000 C 
ATOM     26  N   UNL     1      48.072   2.181   6.006  0.00  0.00    +0.000 N 
ATOM     27  O   UNL     1      47.591   0.369   7.264  0.00  0.00    +0.000 OA
ATOM     28  H   UNL     1      47.789   3.074   5.635  0.00  0.00    +0.000 HD
ATOM     29  H   UNL     1      48.645   1.586   5.416  0.00  0.00    +0.000 HD
ENDBRANCH  22  25
ENDBRANCH  18  19
ENDBRANCH  17  18
ENDBRANCH   4  17
TORSDOF 10
ENDMDL
MODEL 7
REMARK VINA RESULT:    -6.189      2.724      8.964
REMARK INTER + INTRA:         -10.631
REMARK INTER:                  -9.279
REMARK INTRA:                  -1.352
REMARK UNBOUND:                -1.006
REMARK  Name = 
REMARK  12 active torsions:
REMARK  status: ('A' for Active; 'I' for Inactive)
REMARK    1  A    between atoms: C_1  and  C_2
REMARK    2  A    between atoms: C_2  and  C_3
REMARK    3  A    between atoms: C_3  and  N_4
REMARK    4  A    between atoms: C_3  and  C_5
REMARK    5  A    between atoms: C_5  and  O_6
REMARK    6  A    between atoms: O_6  and  C_7
REMARK    7  A    between atoms: C_7  and  C_8
REMARK    8  A    between atoms: C_7  and  C_9
REMARK    9  A    between atoms: C_12  and  C_13
REMARK   10  A    between atoms: C_13  and  O_14
REMARK   11  A    between atoms: O_14  and  C_15
REMARK   12  A    between atoms: C_18  and  C_19
REMARK                            x       y       z     vdW  Elec       q    Type
REMARK                         _______ _______ _______ _____ _____    ______ ____
ROOT
ATOM      1  C   UNL     1      45.159   5.058  13.199  0.00  0.00    +0.000 A 
ATOM      2  C   UNL     1      45.260   6.410  12.869  0.00  0.00    +0.000 A 
ATOM      3  C   UNL     1      46.491   7.055  12.960  0.00  0.00    +0.000 A 
ATOM      4  C   UNL     1      47.600   6.326  13.381  0.00  0.00    +0.000 A 
ATOM      5  N   UNL     1      47.535   5.000  13.664  0.00  0.00    +0.000 NA
ATOM      6  C   UNL     1      46.328   4.401  13.558  0.00  0.00    +0.000 A 
ENDROOT
BRANCH   1   7
ATOM      7  C   UNL     1      43.841   4.319  13.189  0.00  0.00    +0.000 C 
ATOM      8  C   UNL     1      42.790   5.146  12.445  0.00  0.00    +0.000 C 
BRANCH   7   9
ATOM      9  O   UNL     1      43.952   3.038  12.552  0.00  0.00    +0.000 OA
BRANCH   9  10
ATOM     10  C   UNL     1      43.460   3.047  11.203  0.00  0.00    +0.000 C 
BRANCH  10  11
ATOM     11  C   UNL     1      44.628   3.019  10.191  0.00  0.00    +0.000 C 
BRANCH  11  12
ATOM     12  N   UNL     1      44.635   1.751   9.442  0.00  0.00    +0.000 NA
ATOM     13  H   UNL     1      44.572   1.983   8.449  0.00  0.00    +0.000 HD
ATOM     14  H   UNL     1      43.782   1.232   9.649  0.00  0.00    +0.000 HD
ENDBRANCH  11  12
BRANCH  11  16
ATOM     15  C   UNL     1      45.712   5.189   9.376  0.00  0.00    +0.000 C 
ATOM     16  C   UNL     1      44.553   4.211   9.223  0.00  0.00    +0.000 C 
ENDBRANCH  11  16
ENDBRANCH  10  11
ENDBRANCH   9  10
ENDBRANCH   7   9
ENDBRANCH   1   7
BRANCH   4  17
ATOM     17  C   UNL     1      48.941   7.003  13.545  0.00  0.00    +0.000 C 
BRANCH  17  18
ATOM     18  O   UNL     1      49.469   6.676  14.828  0.00  0.00    +0.000 OA
BRANCH  18  19
ATOM     19  C   UNL     1      48.957   7.354  15.898  0.00  0.00    +0.000 A 
ATOM     20  C   UNL     1      48.582   8.697  15.923  0.00  0.00    +0.000 A 
ATOM     21  C   UNL     1      48.097   9.268  17.105  0.00  0.00    +0.000 A 
ATOM     22  C   UNL     1      47.968   8.497  18.266  0.00  0.00    +0.000 A 
ATOM     23  C   UNL     1      48.345   7.151  18.243  0.00  0.00    +0.000 A 
ATOM     24  C   UNL     1      48.834   6.587  17.060  0.00  0.00    +0.000 A 
BRANCH  22  25
ATOM     25  C   UNL     1      47.463   9.157  19.499  0.00  0.00    +0.000 C 
ATOM     26  N   UNL     1      47.394   8.397  20.635  0.00  0.00    +0.000 N 
ATOM     27  O   UNL     1      47.089  10.323  19.499  0.00  0.00    +0.000 OA
ATOM     28  H   UNL     1      47.465   7.392  20.627  0.00  0.00    +0.000 HD
ATOM     29  H   UNL     1      46.953   8.831  21.439  0.00  0.00    +0.000 HD
ENDBRANCH  22  25
ENDBRANCH  18  19
ENDBRANCH  17  18
ENDBRANCH   4  17
TORSDOF 10
ENDMDL
MODEL 8
REMARK VINA RESULT:    -6.173      1.896      9.049
REMARK INTER + INTRA:         -10.607
REMARK INTER:                  -9.880
REMARK INTRA:                  -0.727
REMARK UNBOUND:                -1.006
REMARK  Name = 
REMARK  12 active torsions:
REMARK  status: ('A' for Active; 'I' for Inactive)
REMARK    1  A    between atoms: C_1  and  C_2
REMARK    2  A    between atoms: C_2  and  C_3
REMARK    3  A    between atoms: C_3  and  N_4
REMARK    4  A    between atoms: C_3  and  C_5
REMARK    5  A    between atoms: C_5  and  O_6
REMARK    6  A    between atoms: O_6  and  C_7
REMARK    7  A    between atoms: C_7  and  C_8
REMARK    8  A    between atoms: C_7  and  C_9
REMARK    9  A    between atoms: C_12  and  C_13
REMARK   10  A    between atoms: C_13  and  O_14
REMARK   11  A    between atoms: O_14  and  C_15
REMARK   12  A    between atoms: C_18  and  C_19
REMARK                            x       y       z     vdW  Elec       q    Type
REMARK                         _______ _______ _______ _____ _____    ______ ____
ROOT
ATOM      1  C   UNL     1      44.982   3.563  10.518  0.00  0.00    +0.000 A 
ATOM      2  C   UNL     1      45.286   4.925  10.528  0.00  0.00    +0.000 A 
ATOM      3  C   UNL     1      45.695   5.536  11.710  0.00  0.00    +0.000 A 
ATOM      4  C   UNL     1      45.793   4.762  12.864  0.00  0.00    +0.000 A 
ATOM      5  N   UNL     1      45.546   3.427  12.869  0.00  0.00    +0.000 NA
ATOM      6  C   UNL     1      45.159   2.863  11.705  0.00  0.00    +0.000 A 
ENDROOT
BRANCH   1   7
ATOM      7  C   UNL     1      44.467   2.857   9.286  0.00  0.00    +0.000 C 
ATOM      8  C   UNL     1      44.182   3.881   8.184  0.00  0.00    +0.000 C 
BRANCH   7   9
ATOM      9  O   UNL     1      45.407   1.897   8.787  0.00  0.00    +0.000 OA
BRANCH   9  10
ATOM     10  C   UNL     1      46.380   2.481   7.906  0.00  0.00    +0.000 C 
BRANCH  10  11
ATOM     11  C   UNL     1      47.385   1.416   7.412  0.00  0.00    +0.000 C 
BRANCH  11  12
ATOM     12  N   UNL     1      46.813   0.065   7.536  0.00  0.00    +0.000 NA
ATOM     13  H   UNL     1      45.811   0.172   7.708  0.00  0.00    +0.000 HD
ATOM     14  H   UNL     1      47.181  -0.382   8.374  0.00  0.00    +0.000 HD
ENDBRANCH  11  12
BRANCH  11  16
ATOM     15  C   UNL     1      47.020   2.810   5.296  0.00  0.00    +0.000 C 
ATOM     16  C   UNL     1      47.809   1.685   5.959  0.00  0.00    +0.000 C 
ENDBRANCH  11  16
ENDBRANCH  10  11
ENDBRANCH   9  10
ENDBRANCH   7   9
ENDBRANCH   1   7
BRANCH   4  17
ATOM     17  C   UNL     1      46.181   5.399  14.179  0.00  0.00    +0.000 C 
BRANCH  17  18
ATOM     18  O   UNL     1      47.558   5.130  14.432  0.00  0.00    +0.000 OA
BRANCH  18  19
ATOM     19  C   UNL     1      47.915   4.904  15.732  0.00  0.00    +0.000 A 
ATOM     20  C   UNL     1      47.580   3.788  16.499  0.00  0.00    +0.000 A 
ATOM     21  C   UNL     1      47.995   3.706  17.834  0.00  0.00    +0.000 A 
ATOM     22  C   UNL     1      48.758   4.729  18.405  0.00  0.00    +0.000 A 
ATOM     23  C   UNL     1      49.092   5.849  17.638  0.00  0.00    +0.000 A 
ATOM     24  C   UNL     1      48.672   5.929  16.307  0.00  0.00    +0.000 A 
BRANCH  22  25
ATOM     25  C   UNL     1      49.157   4.599  19.832  0.00  0.00    +0.000 C 
ATOM     26  N   UNL     1      48.290   3.951  20.670  0.00  0.00    +0.000 N 
ATOM     27  O   UNL     1      50.199   5.082  20.257  0.00  0.00    +0.000 OA
ATOM     28  H   UNL     1      47.334   3.751  20.422  0.00  0.00    +0.000 HD
ATOM     29  H   UNL     1      48.528   3.961  21.656  0.00  0.00    +0.000 HD
ENDBRANCH  22  25
ENDBRANCH  18  19
ENDBRANCH  17  18
ENDBRANCH   4  17
TORSDOF 10
ENDMDL
MODEL 9
REMARK VINA RESULT:    -6.157      1.916      9.074
REMARK INTER + INTRA:         -10.582
REMARK INTER:                  -9.844
REMARK INTRA:                  -0.738
REMARK UNBOUND:                -1.006
REMARK  Name = 
REMARK  12 active torsions:
REMARK  status: ('A' for Active; 'I' for Inactive)
REMARK    1  A    between atoms: C_1  and  C_2
REMARK    2  A    between atoms: C_2  and  C_3
REMARK    3  A    between atoms: C_3  and  N_4
REMARK    4  A    between atoms: C_3  and  C_5
REMARK    5  A    between atoms: C_5  and  O_6
REMARK    6  A    between atoms: O_6  and  C_7
REMARK    7  A    between atoms: C_7  and  C_8
REMARK    8  A    between atoms: C_7  and  C_9
REMARK    9  A    between atoms: C_12  and  C_13
REMARK   10  A    between atoms: C_13  and  O_14
REMARK   11  A    between atoms: O_14  and  C_15
REMARK   12  A    between atoms: C_18  and  C_19
REMARK                            x       y       z     vdW  Elec       q    Type
REMARK                         _______ _______ _______ _____ _____    ______ ____
ROOT
ATOM      1  C   UNL     1      44.823   5.330  12.003  0.00  0.00    +0.000 A 
ATOM      2  C   UNL     1      45.330   6.572  11.616  0.00  0.00    +0.000 A 
ATOM      3  C   UNL     1      46.422   7.114  12.288  0.00  0.00    +0.000 A 
ATOM      4  C   UNL     1      46.986   6.395  13.339  0.00  0.00    +0.000 A 
ATOM      5  N   UNL     1      46.538   5.166  13.704  0.00  0.00    +0.000 NA
ATOM      6  C   UNL     1      45.483   4.664  13.027  0.00  0.00    +0.000 A 
ENDROOT
BRANCH   1   7
ATOM      7  C   UNL     1      43.599   4.720  11.360  0.00  0.00    +0.000 C 
ATOM      8  C   UNL     1      42.351   5.501  11.780  0.00  0.00    +0.000 C 
BRANCH   7   9
ATOM      9  O   UNL     1      43.686   4.730   9.929  0.00  0.00    +0.000 OA
BRANCH   9  10
ATOM     10  C   UNL     1      44.275   3.530   9.404  0.00  0.00    +0.000 C 
BRANCH  10  11
ATOM     11  C   UNL     1      45.150   3.843   8.168  0.00  0.00    +0.000 C 
BRANCH  11  12
ATOM     12  N   UNL     1      45.908   5.088   8.371  0.00  0.00    +0.000 NA
ATOM     13  H   UNL     1      45.280   5.866   8.161  0.00  0.00    +0.000 HD
ATOM     14  H   UNL     1      46.650   5.149   7.674  0.00  0.00    +0.000 HD
ENDBRANCH  11  12
BRANCH  11  16
ATOM     15  C   UNL     1      47.048   2.964   6.693  0.00  0.00    +0.000 C 
ATOM     16  C   UNL     1      46.107   2.680   7.858  0.00  0.00    +0.000 C 
ENDBRANCH  11  16
ENDBRANCH  10  11
ENDBRANCH   9  10
ENDBRANCH   7   9
ENDBRANCH   1   7
BRANCH   4  17
ATOM     17  C   UNL     1      48.138   6.974  14.129  0.00  0.00    +0.000 C 
BRANCH  17  18
ATOM     18  O   UNL     1      48.740   5.934  14.895  0.00  0.00    +0.000 OA
BRANCH  18  19
ATOM     19  C   UNL     1      48.554   5.976  16.248  0.00  0.00    +0.000 A 
ATOM     20  C   UNL     1      48.237   4.896  17.072  0.00  0.00    +0.000 A 
ATOM     21  C   UNL     1      48.046   5.094  18.445  0.00  0.00    +0.000 A 
ATOM     22  C   UNL     1      48.187   6.369  19.005  0.00  0.00    +0.000 A 
ATOM     23  C   UNL     1      48.502   7.452  18.180  0.00  0.00    +0.000 A 
ATOM     24  C   UNL     1      48.686   7.249  16.808  0.00  0.00    +0.000 A 
BRANCH  22  25
ATOM     25  C   UNL     1      47.957   6.527  20.466  0.00  0.00    +0.000 C 
ATOM     26  N   UNL     1      47.055   5.681  21.055  0.00  0.00    +0.000 N 
ATOM     27  O   UNL     1      48.519   7.399  21.116  0.00  0.00    +0.000 OA
ATOM     28  H   UNL     1      46.407   5.118  20.528  0.00  0.00    +0.000 HD
ATOM     29  H   UNL     1      46.834   5.869  22.027  0.00  0.00    +0.000 HD
ENDBRANCH  22  25
ENDBRANCH  18  19
ENDBRANCH  17  18
ENDBRANCH   4  17
TORSDOF 10
ENDMDL
