MODEL 1
REMARK VINA RESULT:    -9.297      0.000      0.000
REMARK INTER + INTRA:         -14.617
REMARK INTER:                 -13.646
REMARK INTRA:                  -0.971
REMARK UNBOUND:                -0.971
REMARK  Name = 
REMARK  8 active torsions:
REMARK  status: ('A' for Active; 'I' for Inactive)
REMARK    1  A    between atoms: C_2  and  C_4
REMARK    2  A    between atoms: N_8  and  C_9
REMARK    3  A    between atoms: C_9  and  C_10
REMARK    4  A    between atoms: C_10  and  C_13
REMARK    5  A    between atoms: C_17  and  O_18
REMARK    6  A    between atoms: O_18  and  C_19
REMARK    7  A    between atoms: N_21  and  C_22
REMARK    8  A    between atoms: C_22  and  C_23
REMARK                            x       y       z     vdW  Elec       q    Type
REMARK                         _______ _______ _______ _____ _____    ______ ____
ROOT
ATOM      1  C   UNL     1      43.623   5.686  11.999  0.00  0.00    +0.000 C 
ATOM      2  F   UNL     1      43.159   6.837  11.426  0.00  0.00    +0.000 F 
ATOM      3  F   UNL     1      42.855   5.503  13.115  0.00  0.00    +0.000 F 
ENDROOT
BRANCH   1   4
ATOM      4  C   UNL     1      45.097   5.806  12.366  0.00  0.00    +0.000 A 
ATOM      5  C   UNL     1      45.870   6.835  11.817  0.00  0.00    +0.000 A 
ATOM      6  C   UNL     1      47.220   6.966  12.165  0.00  0.00    +0.000 A 
ATOM      7  C   UNL     1      47.821   6.083  13.067  0.00  0.00    +0.000 A 
ATOM      8  C   UNL     1      47.065   5.061  13.617  0.00  0.00    +0.000 A 
ATOM      9  C   UNL     1      45.724   4.927  13.267  0.00  0.00    +0.000 A 
BRANCH   8  10
ATOM     10  O   UNL     1      47.486   4.145  14.547  0.00  0.00    +0.000 OA
BRANCH  10  11
ATOM     11  C   UNL     1      47.383   4.464  15.949  0.00  0.00    +0.000 C 
ATOM     12  C   UNL     1      48.459   5.379  16.565  0.00  0.00    +0.000 C 
ATOM     13  N   UNL     1      48.753   4.374  17.602  0.00  0.00    +0.000 NA
ATOM     14  C   UNL     1      47.928   3.372  16.902  0.00  0.00    +0.000 C 
BRANCH  13  15
ATOM     15  C   UNL     1      48.128   4.742  18.895  0.00  0.00    +0.000 C 
BRANCH  15  16
ATOM     16  C   UNL     1      49.084   4.830  20.104  0.00  0.00    +0.000 C 
ATOM     17  F   UNL     1      50.349   4.454  19.815  0.00  0.00    +0.000 F 
ATOM     18  F   UNL     1      49.134   6.093  20.589  0.00  0.00    +0.000 F 
ATOM     19  F   UNL     1      48.647   4.031  21.108  0.00  0.00    +0.000 F 
ENDBRANCH  15  16
ENDBRANCH  13  15
ENDBRANCH  10  11
ENDBRANCH   8  10
ENDBRANCH   1   4
BRANCH   1  20
ATOM     20  C   UNL     1      43.354   4.518  11.018  0.00  0.00    +0.000 C 
BRANCH  20  25
ATOM     21  C   UNL     1      46.436   2.268   7.702  0.00  0.00    +0.000 A 
ATOM     22  C   UNL     1      45.626   1.714   8.684  0.00  0.00    +0.000 A 
ATOM     23  C   UNL     1      44.733   2.539   9.365  0.00  0.00    +0.000 A 
ATOM     24  C   UNL     1      44.670   3.901   9.063  0.00  0.00    +0.000 A 
ATOM     25  N   UNL     1      43.736   4.754   9.628  0.00  0.00    +0.000 N 
ATOM     26  N   UNL     1      45.479   4.451   8.141  0.00  0.00    +0.000 NA
ATOM     27  C   UNL     1      46.346   3.634   7.486  0.00  0.00    +0.000 A 
ATOM     28  H   UNL     1      43.964   5.716   9.380  0.00  0.00    +0.000 HD
BRANCH  21  30
ATOM     29  N   UNL     1      48.560   2.054   6.546  0.00  0.00    +0.000 N 
ATOM     30  C   UNL     1      47.372   1.464   6.896  0.00  0.00    +0.000 C 
ATOM     31  O   UNL     1      47.120   0.310   6.583  0.00  0.00    +0.000 OA
ATOM     32  H   UNL     1      49.239   1.458   6.091  0.00  0.00    +0.000 HD
ATOM     33  H   UNL     1      48.905   2.887   7.002  0.00  0.00    +0.000 HD
ENDBRANCH  21  30
ENDBRANCH  20  25
ENDBRANCH   1  20
TORSDOF 8
ENDMDL
MODEL 2
REMARK VINA RESULT:    -8.260      3.943      5.090
REMARK INTER + INTRA:         -13.094
REMARK INTER:                 -12.183
REMARK INTRA:                  -0.911
REMARK UNBOUND:                -0.971
REMARK  Name = 
REMARK  8 active torsions:
REMARK  status: ('A' for Active; 'I' for Inactive)
REMARK    1  A    between atoms: C_2  and  C_4
REMARK    2  A    between atoms: N_8  and  C_9
REMARK    3  A    between atoms: C_9  and  C_10
REMARK    4  A    between atoms: C_10  and  C_13
REMARK    5  A    between atoms: C_17  and  O_18
REMARK    6  A    between atoms: O_18  and  C_19
REMARK    7  A    between atoms: N_21  and  C_22
REMARK    8  A    between atoms: C_22  and  C_23
REMARK                            x       y       z     vdW  Elec       q    Type
REMARK                         _______ _______ _______ _____ _____    ______ ____
ROOT
ATOM      1  C   UNL     1      43.443   5.435  12.060  0.00  0.00    +0.000 C 
ATOM      2  F   UNL     1      43.066   6.639  11.537  0.00  0.00    +0.000 F 
ATOM      3  F   UNL     1      42.496   5.136  13.000  0.00  0.00    +0.000 F 
ENDROOT
BRANCH   1   4
ATOM      4  C   UNL     1      44.828   5.514  12.690  0.00  0.00    +0.000 A 
ATOM      5  C   UNL     1      45.498   4.339  13.050  0.00  0.00    +0.000 A 
ATOM      6  C   UNL     1      46.780   4.400  13.609  0.00  0.00    +0.000 A 
ATOM      7  C   UNL     1      47.419   5.626  13.815  0.00  0.00    +0.000 A 
ATOM      8  C   UNL     1      46.766   6.797  13.463  0.00  0.00    +0.000 A 
ATOM      9  C   UNL     1      45.488   6.735  12.910  0.00  0.00    +0.000 A 
BRANCH   8  10
ATOM     10  O   UNL     1      47.266   8.070  13.553  0.00  0.00    +0.000 OA
BRANCH  10  11
ATOM     11  C   UNL     1      48.263   8.505  12.608  0.00  0.00    +0.000 C 
ATOM     12  C   UNL     1      48.819   7.470  11.611  0.00  0.00    +0.000 C 
ATOM     13  N   UNL     1      50.198   7.767  12.035  0.00  0.00    +0.000 NA
ATOM     14  C   UNL     1      49.704   8.568  13.171  0.00  0.00    +0.000 C 
BRANCH  13  15
ATOM     15  C   UNL     1      50.884   8.637  11.051  0.00  0.00    +0.000 C 
BRANCH  15  16
ATOM     16  C   UNL     1      52.127   8.030  10.366  0.00  0.00    +0.000 C 
ATOM     17  F   UNL     1      52.825   8.925   9.634  0.00  0.00    +0.000 F 
ATOM     18  F   UNL     1      52.973   7.501  11.281  0.00  0.00    +0.000 F 
ATOM     19  F   UNL     1      51.760   7.027   9.531  0.00  0.00    +0.000 F 
ENDBRANCH  15  16
ENDBRANCH  13  15
ENDBRANCH  10  11
ENDBRANCH   8  10
ENDBRANCH   1   4
BRANCH   1  20
ATOM     20  C   UNL     1      43.370   4.375  10.932  0.00  0.00    +0.000 C 
BRANCH  20  25
ATOM     21  C   UNL     1      46.687   2.726   7.492  0.00  0.00    +0.000 A 
ATOM     22  C   UNL     1      45.853   2.011   8.340  0.00  0.00    +0.000 A 
ATOM     23  C   UNL     1      44.899   2.700   9.085  0.00  0.00    +0.000 A 
ATOM     24  C   UNL     1      44.798   4.090   8.979  0.00  0.00    +0.000 A 
ATOM     25  N   UNL     1      43.807   4.823   9.611  0.00  0.00    +0.000 N 
ATOM     26  N   UNL     1      45.628   4.792   8.188  0.00  0.00    +0.000 NA
ATOM     27  C   UNL     1      46.555   4.106   7.468  0.00  0.00    +0.000 A 
ATOM     28  H   UNL     1      44.010   5.817   9.515  0.00  0.00    +0.000 HD
BRANCH  21  30
ATOM     29  N   UNL     1      48.047   2.739   5.481  0.00  0.00    +0.000 N 
ATOM     30  C   UNL     1      47.689   2.076   6.628  0.00  0.00    +0.000 C 
ATOM     31  O   UNL     1      48.207   1.014   6.935  0.00  0.00    +0.000 OA
ATOM     32  H   UNL     1      48.814   2.341   4.954  0.00  0.00    +0.000 HD
ATOM     33  H   UNL     1      47.843   3.717   5.335  0.00  0.00    +0.000 HD
ENDBRANCH  21  30
ENDBRANCH  20  25
ENDBRANCH   1  20
TORSDOF 8
ENDMDL
MODEL 3
REMARK VINA RESULT:    -7.813      2.233      2.807
REMARK INTER + INTRA:         -12.438
REMARK INTER:                 -11.684
REMARK INTRA:                  -0.754
REMARK UNBOUND:                -0.971
REMARK  Name = 
REMARK  8 active torsions:
REMARK  status: ('A' for Active; 'I' for Inactive)
REMARK    1  A    between atoms: C_2  and  C_4
REMARK    2  A    between atoms: N_8  and  C_9
REMARK    3  A    between atoms: C_9  and  C_10
REMARK    4  A    between atoms: C_10  and  C_13
REMARK    5  A    between atoms: C_17  and  O_18
REMARK    6  A    between atoms: O_18  and  C_19
REMARK    7  A    between atoms: N_21  and  C_22
REMARK    8  A    between atoms: C_22  and  C_23
REMARK                            x       y       z     vdW  Elec       q    Type
REMARK                         _______ _______ _______ _____ _____    ______ ____
ROOT
ATOM      1  C   UNL     1      44.462   4.739  12.264  0.00  0.00    +0.000 C 
ATOM      2  F   UNL     1      43.795   4.657  13.453  0.00  0.00    +0.000 F 
ATOM      3  F   UNL     1      45.325   3.680  12.260  0.00  0.00    +0.000 F 
ENDROOT
BRANCH   1   4
ATOM      4  C   UNL     1      45.217   6.056  12.142  0.00  0.00    +0.000 A 
ATOM      5  C   UNL     1      44.509   7.261  12.061  0.00  0.00    +0.000 A 
ATOM      6  C   UNL     1      45.194   8.479  11.971  0.00  0.00    +0.000 A 
ATOM      7  C   UNL     1      46.592   8.521  11.965  0.00  0.00    +0.000 A 
ATOM      8  C   UNL     1      47.304   7.334  12.044  0.00  0.00    +0.000 A 
ATOM      9  C   UNL     1      46.621   6.123  12.130  0.00  0.00    +0.000 A 
BRANCH   8  10
ATOM     10  O   UNL     1      48.667   7.204  12.099  0.00  0.00    +0.000 OA
BRANCH  10  11
ATOM     11  C   UNL     1      49.315   7.076  13.380  0.00  0.00    +0.000 C 
ATOM     12  C   UNL     1      48.432   6.808  14.615  0.00  0.00    +0.000 C 
ATOM     13  N   UNL     1      49.000   7.978  15.305  0.00  0.00    +0.000 NA
ATOM     14  C   UNL     1      49.665   8.420  14.065  0.00  0.00    +0.000 C 
BRANCH  13  15
ATOM     15  C   UNL     1      50.009   7.568  16.310  0.00  0.00    +0.000 C 
BRANCH  15  16
ATOM     16  C   UNL     1      49.616   7.786  17.787  0.00  0.00    +0.000 C 
ATOM     17  F   UNL     1      48.318   7.509  18.042  0.00  0.00    +0.000 F 
ATOM     18  F   UNL     1      50.367   7.013  18.606  0.00  0.00    +0.000 F 
ATOM     19  F   UNL     1      49.829   9.076  18.145  0.00  0.00    +0.000 F 
ENDBRANCH  15  16
ENDBRANCH  13  15
ENDBRANCH  10  11
ENDBRANCH   8  10
ENDBRANCH   1   4
BRANCH   1  20
ATOM     20  C   UNL     1      43.434   4.542  11.121  0.00  0.00    +0.000 C 
BRANCH  20  25
ATOM     21  C   UNL     1      46.461   2.509   7.620  0.00  0.00    +0.000 A 
ATOM     22  C   UNL     1      45.574   1.897   8.495  0.00  0.00    +0.000 A 
ATOM     23  C   UNL     1      44.721   2.694   9.255  0.00  0.00    +0.000 A 
ATOM     24  C   UNL     1      44.774   4.085   9.138  0.00  0.00    +0.000 A 
ATOM     25  N   UNL     1      43.886   4.929   9.786  0.00  0.00    +0.000 N 
ATOM     26  N   UNL     1      45.657   4.685   8.321  0.00  0.00    +0.000 NA
ATOM     27  C   UNL     1      46.483   3.895   7.586  0.00  0.00    +0.000 A 
ATOM     28  H   UNL     1      44.196   5.893   9.676  0.00  0.00    +0.000 HD
BRANCH  21  30
ATOM     29  N   UNL     1      48.415   2.428   6.181  0.00  0.00    +0.000 N 
ATOM     30  C   UNL     1      47.364   1.745   6.739  0.00  0.00    +0.000 C 
ATOM     31  O   UNL     1      47.207   0.550   6.542  0.00  0.00    +0.000 OA
ATOM     32  H   UNL     1      49.089   1.872   5.670  0.00  0.00    +0.000 HD
ATOM     33  H   UNL     1      48.720   3.327   6.525  0.00  0.00    +0.000 HD
ENDBRANCH  21  30
ENDBRANCH  20  25
ENDBRANCH   1  20
TORSDOF 8
ENDMDL
MODEL 4
REMARK VINA RESULT:    -7.673      3.520      9.414
REMARK INTER + INTRA:         -12.233
REMARK INTER:                 -12.029
REMARK INTRA:                  -0.204
REMARK UNBOUND:                -0.971
REMARK  Name = 
REMARK  8 active torsions:
REMARK  status: ('A' for Active; 'I' for Inactive)
REMARK    1  A    between atoms: C_2  and  C_4
REMARK    2  A    between atoms: N_8  and  C_9
REMARK    3  A    between atoms: C_9  and  C_10
REMARK    4  A    between atoms: C_10  and  C_13
REMARK    5  A    between atoms: C_17  and  O_18
REMARK    6  A    between atoms: O_18  and  C_19
REMARK    7  A    between atoms: N_21  and  C_22
REMARK    8  A    between atoms: C_22  and  C_23
REMARK                            x       y       z     vdW  Elec       q    Type
REMARK                         _______ _______ _______ _____ _____    ______ ____
ROOT
ATOM      1  C   UNL     1      46.472   6.140  12.502  0.00  0.00    +0.000 C 
ATOM      2  F   UNL     1      46.313   7.245  13.290  0.00  0.00    +0.000 F 
ATOM      3  F   UNL     1      47.261   6.548  11.463  0.00  0.00    +0.000 F 
ENDROOT
BRANCH   1   4
ATOM      4  C   UNL     1      45.131   5.623  11.996  0.00  0.00    +0.000 A 
ATOM      5  C   UNL     1      43.983   6.411  12.136  0.00  0.00    +0.000 A 
ATOM      6  C   UNL     1      42.750   5.955  11.654  0.00  0.00    +0.000 A 
ATOM      7  C   UNL     1      42.638   4.713  11.022  0.00  0.00    +0.000 A 
ATOM      8  C   UNL     1      43.769   3.924  10.877  0.00  0.00    +0.000 A 
ATOM      9  C   UNL     1      44.994   4.377  11.360  0.00  0.00    +0.000 A 
BRANCH   8  10
ATOM     10  O   UNL     1      43.841   2.711  10.242  0.00  0.00    +0.000 OA
BRANCH  10  11
ATOM     11  C   UNL     1      44.394   2.640   8.913  0.00  0.00    +0.000 C 
ATOM     12  C   UNL     1      45.841   2.133   8.757  0.00  0.00    +0.000 C 
ATOM     13  N   UNL     1      46.212   3.351   8.016  0.00  0.00    +0.000 NA
ATOM     14  C   UNL     1      44.926   3.985   8.362  0.00  0.00    +0.000 C 
BRANCH  13  15
ATOM     15  C   UNL     1      46.281   3.090   6.559  0.00  0.00    +0.000 C 
BRANCH  15  16
ATOM     16  C   UNL     1      47.548   2.359   6.065  0.00  0.00    +0.000 C 
ATOM     17  F   UNL     1      47.866   2.645   4.784  0.00  0.00    +0.000 F 
ATOM     18  F   UNL     1      48.618   2.674   6.832  0.00  0.00    +0.000 F 
ATOM     19  F   UNL     1      47.378   1.016   6.145  0.00  0.00    +0.000 F 
ENDBRANCH  15  16
ENDBRANCH  13  15
ENDBRANCH  10  11
ENDBRANCH   8  10
ENDBRANCH   1   4
BRANCH   1  20
ATOM     20  C   UNL     1      47.243   5.073  13.319  0.00  0.00    +0.000 C 
BRANCH  20  25
ATOM     21  C   UNL     1      48.508   4.465  18.176  0.00  0.00    +0.000 A 
ATOM     22  C   UNL     1      48.861   5.466  17.281  0.00  0.00    +0.000 A 
ATOM     23  C   UNL     1      48.243   5.503  16.034  0.00  0.00    +0.000 A 
ATOM     24  C   UNL     1      47.291   4.538  15.696  0.00  0.00    +0.000 A 
ATOM     25  N   UNL     1      46.566   4.578  14.516  0.00  0.00    +0.000 N 
ATOM     26  N   UNL     1      46.972   3.544  16.542  0.00  0.00    +0.000 NA
ATOM     27  C   UNL     1      47.585   3.520  17.756  0.00  0.00    +0.000 A 
ATOM     28  H   UNL     1      46.043   3.709  14.412  0.00  0.00    +0.000 HD
BRANCH  21  30
ATOM     29  N   UNL     1      48.414   3.574  20.432  0.00  0.00    +0.000 N 
ATOM     30  C   UNL     1      49.071   4.377  19.535  0.00  0.00    +0.000 C 
ATOM     31  O   UNL     1      50.097   4.964  19.842  0.00  0.00    +0.000 OA
ATOM     32  H   UNL     1      48.869   3.433  21.324  0.00  0.00    +0.000 HD
ATOM     33  H   UNL     1      47.735   2.884  20.143  0.00  0.00    +0.000 HD
ENDBRANCH  21  30
ENDBRANCH  20  25
ENDBRANCH   1  20
TORSDOF 8
ENDMDL
MODEL 5
REMARK VINA RESULT:    -7.626      3.858      4.839
REMARK INTER + INTRA:         -12.164
REMARK INTER:                 -11.678
REMARK INTRA:                  -0.486
REMARK UNBOUND:                -0.971
REMARK  Name = 
REMARK  8 active torsions:
REMARK  status: ('A' for Active; 'I' for Inactive)
REMARK    1  A    between atoms: C_2  and  C_4
REMARK    2  A    between atoms: N_8  and  C_9
REMARK    3  A    between atoms: C_9  and  C_10
REMARK    4  A    between atoms: C_10  and  C_13
REMARK    5  A    between atoms: C_17  and  O_18
REMARK    6  A    between atoms: O_18  and  C_19
REMARK    7  A    between atoms: N_21  and  C_22
REMARK    8  A    between atoms: C_22  and  C_23
REMARK                            x       y       z     vdW  Elec       q    Type
REMARK                         _______ _______ _______ _____ _____    ______ ____
ROOT
ATOM      1  C   UNL     1      44.010   5.746  11.971  0.00  0.00    +0.000 C 
ATOM      2  F   UNL     1      44.428   6.894  11.360  0.00  0.00    +0.000 F 
ATOM      3  F   UNL     1      43.032   6.135  12.842  0.00  0.00    +0.000 F 
ENDROOT
BRANCH   1   4
ATOM      4  C   UNL     1      45.155   5.063  12.708  0.00  0.00    +0.000 A 
ATOM      5  C   UNL     1      45.315   3.675  12.614  0.00  0.00    +0.000 A 
ATOM      6  C   UNL     1      46.376   3.040  13.271  0.00  0.00    +0.000 A 
ATOM      7  C   UNL     1      47.298   3.772  14.025  0.00  0.00    +0.000 A 
ATOM      8  C   UNL     1      47.150   5.147  14.125  0.00  0.00    +0.000 A 
ATOM      9  C   UNL     1      46.091   5.777  13.476  0.00  0.00    +0.000 A 
BRANCH   8  10
ATOM     10  O   UNL     1      47.988   6.012  14.780  0.00  0.00    +0.000 OA
BRANCH  10  11
ATOM     11  C   UNL     1      48.783   6.940  14.017  0.00  0.00    +0.000 C 
ATOM     12  C   UNL     1      48.495   8.446  14.180  0.00  0.00    +0.000 C 
ATOM     13  N   UNL     1      48.315   8.592  12.725  0.00  0.00    +0.000 NA
ATOM     14  C   UNL     1      48.328   7.128  12.549  0.00  0.00    +0.000 C 
BRANCH  13  15
ATOM     15  C   UNL     1      49.515   9.196  12.097  0.00  0.00    +0.000 C 
BRANCH  15  16
ATOM     16  C   UNL     1      49.314  10.590  11.465  0.00  0.00    +0.000 C 
ATOM     17  F   UNL     1      48.316  10.628  10.556  0.00  0.00    +0.000 F 
ATOM     18  F   UNL     1      49.038  11.515  12.414  0.00  0.00    +0.000 F 
ATOM     19  F   UNL     1      50.446  10.987  10.834  0.00  0.00    +0.000 F 
ENDBRANCH  15  16
ENDBRANCH  13  15
ENDBRANCH  10  11
ENDBRANCH   8  10
ENDBRANCH   1   4
BRANCH   1  20
ATOM     20  C   UNL     1      43.376   4.831  10.893  0.00  0.00    +0.000 C 
BRANCH  20  25
ATOM     21  C   UNL     1      46.427   2.312   7.746  0.00  0.00    +0.000 A 
ATOM     22  C   UNL     1      45.516   1.833   8.678  0.00  0.00    +0.000 A 
ATOM     23  C   UNL     1      44.664   2.735   9.311  0.00  0.00    +0.000 A 
ATOM     24  C   UNL     1      44.740   4.098   9.012  0.00  0.00    +0.000 A 
ATOM     25  N   UNL     1      43.855   5.031   9.527  0.00  0.00    +0.000 N 
ATOM     26  N   UNL     1      45.645   4.573   8.139  0.00  0.00    +0.000 NA
ATOM     27  C   UNL     1      46.471   3.681   7.530  0.00  0.00    +0.000 A 
ATOM     28  H   UNL     1      44.182   5.969   9.296  0.00  0.00    +0.000 HD
BRANCH  21  30
ATOM     29  N   UNL     1      48.318   2.028   6.251  0.00  0.00    +0.000 N 
ATOM     30  C   UNL     1      47.331   1.427   6.990  0.00  0.00    +0.000 C 
ATOM     31  O   UNL     1      47.232   0.211   7.047  0.00  0.00    +0.000 OA
ATOM     32  H   UNL     1      48.999   1.411   5.827  0.00  0.00    +0.000 HD
ATOM     33  H   UNL     1      48.588   2.991   6.390  0.00  0.00    +0.000 HD
ENDBRANCH  21  30
ENDBRANCH  20  25
ENDBRANCH   1  20
TORSDOF 8
ENDMDL
MODEL 6
REMARK VINA RESULT:    -7.490      4.331      5.463
REMARK INTER + INTRA:         -11.964
REMARK INTER:                 -11.146
REMARK INTRA:                  -0.818
REMARK UNBOUND:                -0.971
REMARK  Name = 
REMARK  8 active torsions:
REMARK  status: ('A' for Active; 'I' for Inactive)
REMARK    1  A    between atoms: C_2  and  C_4
REMARK    2  A    between atoms: N_8  and  C_9
REMARK    3  A    between atoms: C_9  and  C_10
REMARK    4  A    between atoms: C_10  and  C_13
REMARK    5  A    between atoms: C_17  and  O_18
REMARK    6  A    between atoms: O_18  and  C_19
REMARK    7  A    between atoms: N_21  and  C_22
REMARK    8  A    between atoms: C_22  and  C_23
REMARK                            x       y       z     vdW  Elec       q    Type
REMARK                         _______ _______ _______ _____ _____    ______ ____
ROOT
ATOM      1  C   UNL     1      44.630   5.279  12.124  0.00  0.00    +0.000 C 
ATOM      2  F   UNL     1      44.086   5.028  13.352  0.00  0.00    +0.000 F 
ATOM      3  F   UNL     1      45.743   4.489  12.053  0.00  0.00    +0.000 F 
ENDROOT
BRANCH   1   4
ATOM      4  C   UNL     1      44.997   6.750  11.971  0.00  0.00    +0.000 A 
ATOM      5  C   UNL     1      44.033   7.667  11.536  0.00  0.00    +0.000 A 
ATOM      6  C   UNL     1      44.354   9.024  11.413  0.00  0.00    +0.000 A 
ATOM      7  C   UNL     1      45.634   9.493  11.725  0.00  0.00    +0.000 A 
ATOM      8  C   UNL     1      46.596   8.595  12.156  0.00  0.00    +0.000 A 
ATOM      9  C   UNL     1      46.278   7.244  12.274  0.00  0.00    +0.000 A 
BRANCH   8  10
ATOM     10  O   UNL     1      47.876   8.895  12.546  0.00  0.00    +0.000 OA
BRANCH  10  11
ATOM     11  C   UNL     1      48.973   8.598  11.659  0.00  0.00    +0.000 C 
ATOM     12  C   UNL     1      49.935   7.459  12.053  0.00  0.00    +0.000 C 
ATOM     13  N   UNL     1      51.091   8.364  11.936  0.00  0.00    +0.000 NA
ATOM     14  C   UNL     1      50.198   9.532  11.811  0.00  0.00    +0.000 C 
BRANCH  13  15
ATOM     15  C   UNL     1      51.821   8.137  10.665  0.00  0.00    +0.000 C 
BRANCH  15  16
ATOM     16  C   UNL     1      53.359   8.247  10.744  0.00  0.00    +0.000 C 
ATOM     17  F   UNL     1      53.800   9.520  10.837  0.00  0.00    +0.000 F 
ATOM     18  F   UNL     1      53.838   7.569  11.812  0.00  0.00    +0.000 F 
ATOM     19  F   UNL     1      53.925   7.706   9.637  0.00  0.00    +0.000 F 
ENDBRANCH  15  16
ENDBRANCH  13  15
ENDBRANCH  10  11
ENDBRANCH   8  10
ENDBRANCH   1   4
BRANCH   1  20
ATOM     20  C   UNL     1      43.621   4.809  11.045  0.00  0.00    +0.000 C 
BRANCH  20  25
ATOM     21  C   UNL     1      46.468   2.362   7.660  0.00  0.00    +0.000 A 
ATOM     22  C   UNL     1      45.613   1.862   8.633  0.00  0.00    +0.000 A 
ATOM     23  C   UNL     1      44.804   2.750   9.338  0.00  0.00    +0.000 A 
ATOM     24  C   UNL     1      44.867   4.120   9.068  0.00  0.00    +0.000 A 
ATOM     25  N   UNL     1      44.019   5.042   9.659  0.00  0.00    +0.000 N 
ATOM     26  N   UNL     1      45.720   4.614   8.155  0.00  0.00    +0.000 NA
ATOM     27  C   UNL     1      46.505   3.736   7.476  0.00  0.00    +0.000 A 
ATOM     28  H   UNL     1      44.334   5.984   9.432  0.00  0.00    +0.000 HD
BRANCH  21  30
ATOM     29  N   UNL     1      48.412   2.076   6.234  0.00  0.00    +0.000 N 
ATOM     30  C   UNL     1      47.322   1.493   6.830  0.00  0.00    +0.000 C 
ATOM     31  O   UNL     1      47.094   0.300   6.706  0.00  0.00    +0.000 OA
ATOM     32  H   UNL     1      49.051   1.451   5.760  0.00  0.00    +0.000 HD
ATOM     33  H   UNL     1      48.771   2.975   6.524  0.00  0.00    +0.000 HD
ENDBRANCH  21  30
ENDBRANCH  20  25
ENDBRANCH   1  20
TORSDOF 8
ENDMDL
MODEL 7
REMARK VINA RESULT:    -7.116      3.760      9.274
REMARK INTER + INTRA:         -11.415
REMARK INTER:                 -10.831
REMARK INTRA:                  -0.584
REMARK UNBOUND:                -0.971
REMARK  Name = 
REMARK  8 active torsions:
REMARK  status: ('A' for Active; 'I' for Inactive)
REMARK    1  A    between atoms: C_2  and  C_4
REMARK    2  A    between atoms: N_8  and  C_9
REMARK    3  A    between atoms: C_9  and  C_10
REMARK    4  A    between atoms: C_10  and  C_13
REMARK    5  A    between atoms: C_17  and  O_18
REMARK    6  A    between atoms: O_18  and  C_19
REMARK    7  A    between atoms: N_21  and  C_22
REMARK    8  A    between atoms: C_22  and  C_23
REMARK                            x       y       z     vdW  Elec       q    Type
REMARK                         _______ _______ _______ _____ _____    ______ ____
ROOT
ATOM      1  C   UNL     1      48.407   7.263  12.533  0.00  0.00    +0.000 C 
ATOM      2  F   UNL     1      49.224   7.856  11.613  0.00  0.00    +0.000 F 
ATOM      3  F   UNL     1      48.778   5.948  12.551  0.00  0.00    +0.000 F 
ENDROOT
BRANCH   1   4
ATOM      4  C   UNL     1      46.940   7.409  12.146  0.00  0.00    +0.000 A 
ATOM      5  C   UNL     1      46.329   8.667  12.194  0.00  0.00    +0.000 A 
ATOM      6  C   UNL     1      44.988   8.815  11.819  0.00  0.00    +0.000 A 
ATOM      7  C   UNL     1      44.235   7.719  11.387  0.00  0.00    +0.000 A 
ATOM      8  C   UNL     1      44.829   6.468  11.336  0.00  0.00    +0.000 A 
ATOM      9  C   UNL     1      46.162   6.321  11.713  0.00  0.00    +0.000 A 
BRANCH   8  10
ATOM     10  O   UNL     1      44.250   5.307  10.893  0.00  0.00    +0.000 OA
BRANCH  10  11
ATOM     11  C   UNL     1      45.074   4.292  10.288  0.00  0.00    +0.000 C 
ATOM     12  C   UNL     1      45.383   4.411   8.783  0.00  0.00    +0.000 C 
ATOM     13  N   UNL     1      44.871   3.050   8.547  0.00  0.00    +0.000 NA
ATOM     14  C   UNL     1      44.326   2.989   9.916  0.00  0.00    +0.000 C 
BRANCH  13  15
ATOM     15  C   UNL     1      45.983   2.081   8.392  0.00  0.00    +0.000 C 
BRANCH  15  16
ATOM     16  C   UNL     1      46.758   2.153   7.058  0.00  0.00    +0.000 C 
ATOM     17  F   UNL     1      47.987   2.697   7.183  0.00  0.00    +0.000 F 
ATOM     18  F   UNL     1      46.909   0.920   6.521  0.00  0.00    +0.000 F 
ATOM     19  F   UNL     1      46.076   2.903   6.158  0.00  0.00    +0.000 F 
ENDBRANCH  15  16
ENDBRANCH  13  15
ENDBRANCH  10  11
ENDBRANCH   8  10
ENDBRANCH   1   4
BRANCH   1  20
ATOM     20  C   UNL     1      48.714   7.882  13.920  0.00  0.00    +0.000 C 
BRANCH  20  25
ATOM     21  C   UNL     1      50.626   4.909  17.534  0.00  0.00    +0.000 A 
ATOM     22  C   UNL     1      51.170   6.029  16.921  0.00  0.00    +0.000 A 
ATOM     23  C   UNL     1      50.370   6.784  16.065  0.00  0.00    +0.000 A 
ATOM     24  C   UNL     1      49.047   6.403  15.827  0.00  0.00    +0.000 A 
ATOM     25  N   UNL     1      48.171   7.163  15.071  0.00  0.00    +0.000 N 
ATOM     26  N   UNL     1      48.526   5.297  16.386  0.00  0.00    +0.000 NA
ATOM     27  C   UNL     1      49.319   4.571  17.219  0.00  0.00    +0.000 A 
ATOM     28  H   UNL     1      47.316   6.632  14.909  0.00  0.00    +0.000 HD
BRANCH  21  30
ATOM     29  N   UNL     1      51.650   2.788  18.124  0.00  0.00    +0.000 N 
ATOM     30  C   UNL     1      51.380   4.082  18.493  0.00  0.00    +0.000 C 
ATOM     31  O   UNL     1      51.781   4.536  19.554  0.00  0.00    +0.000 OA
ATOM     32  H   UNL     1      52.261   2.265  18.738  0.00  0.00    +0.000 HD
ATOM     33  H   UNL     1      51.568   2.470  17.169  0.00  0.00    +0.000 HD
ENDBRANCH  21  30
ENDBRANCH  20  25
ENDBRANCH   1  20
TORSDOF 8
ENDMDL
MODEL 8
REMARK VINA RESULT:    -7.109      3.611      9.717
REMARK INTER + INTRA:         -11.405
REMARK INTER:                 -10.571
REMARK INTRA:                  -0.834
REMARK UNBOUND:                -0.971
REMARK  Name = 
REMARK  8 active torsions:
REMARK  status: ('A' for Active; 'I' for Inactive)
REMARK    1  A    between atoms: C_2  and  C_4
REMARK    2  A    between atoms: N_8  and  C_9
REMARK    3  A    between atoms: C_9  and  C_10
REMARK    4  A    between atoms: C_10  and  C_13
REMARK    5  A    between atoms: C_17  and  O_18
REMARK    6  A    between atoms: O_18  and  C_19
REMARK    7  A    between atoms: N_21  and  C_22
REMARK    8  A    between atoms: C_22  and  C_23
REMARK                            x       y       z     vdW  Elec       q    Type
REMARK                         _______ _______ _______ _____ _____    ______ ____
ROOT
ATOM      1  C   UNL     1      47.607   7.310  13.134  0.00  0.00    +0.000 C 
ATOM      2  F   UNL     1      46.894   8.165  13.926  0.00  0.00    +0.000 F 
ATOM      3  F   UNL     1      47.825   7.992  11.971  0.00  0.00    +0.000 F 
ENDROOT
BRANCH   1   4
ATOM      4  C   UNL     1      46.835   6.023  12.873  0.00  0.00    +0.000 A 
ATOM      5  C   UNL     1      47.115   4.877  13.626  0.00  0.00    +0.000 A 
ATOM      6  C   UNL     1      46.396   3.695  13.409  0.00  0.00    +0.000 A 
ATOM      7  C   UNL     1      45.384   3.634  12.445  0.00  0.00    +0.000 A 
ATOM      8  C   UNL     1      45.098   4.762  11.693  0.00  0.00    +0.000 A 
ATOM      9  C   UNL     1      45.817   5.936  11.907  0.00  0.00    +0.000 A 
BRANCH   8  10
ATOM     10  O   UNL     1      44.112   4.885  10.749  0.00  0.00    +0.000 OA
BRANCH  10  11
ATOM     11  C   UNL     1      44.344   4.389   9.416  0.00  0.00    +0.000 C 
ATOM     12  C   UNL     1      44.756   2.913   9.253  0.00  0.00    +0.000 C 
ATOM     13  N   UNL     1      45.951   3.307   8.487  0.00  0.00    +0.000 NA
ATOM     14  C   UNL     1      45.739   4.725   8.835  0.00  0.00    +0.000 C 
BRANCH  13  15
ATOM     15  C   UNL     1      45.747   3.099   7.034  0.00  0.00    +0.000 C 
BRANCH  15  16
ATOM     16  C   UNL     1      46.945   2.502   6.264  0.00  0.00    +0.000 C 
ATOM     17  F   UNL     1      48.141   2.836   6.795  0.00  0.00    +0.000 F 
ATOM     18  F   UNL     1      46.874   1.151   6.232  0.00  0.00    +0.000 F 
ATOM     19  F   UNL     1      46.941   2.935   4.979  0.00  0.00    +0.000 F 
ENDBRANCH  15  16
ENDBRANCH  13  15
ENDBRANCH  10  11
ENDBRANCH   8  10
ENDBRANCH   1   4
BRANCH   1  20
ATOM     20  C   UNL     1      48.973   7.048  13.817  0.00  0.00    +0.000 C 
BRANCH  20  25
ATOM     21  C   UNL     1      48.403   5.839  18.693  0.00  0.00    +0.000 A 
ATOM     22  C   UNL     1      48.820   5.058  17.624  0.00  0.00    +0.000 A 
ATOM     23  C   UNL     1      49.060   5.670  16.395  0.00  0.00    +0.000 A 
ATOM     24  C   UNL     1      48.871   7.047  16.251  0.00  0.00    +0.000 A 
ATOM     25  N   UNL     1      49.189   7.732  15.090  0.00  0.00    +0.000 N 
ATOM     26  N   UNL     1      48.430   7.803  17.272  0.00  0.00    +0.000 NA
ATOM     27  C   UNL     1      48.199   7.191  18.464  0.00  0.00    +0.000 A 
ATOM     28  H   UNL     1      48.838   8.687  15.155  0.00  0.00    +0.000 HD
BRANCH  21  30
ATOM     29  N   UNL     1      48.606   4.005  20.270  0.00  0.00    +0.000 N 
ATOM     30  C   UNL     1      48.175   5.287  20.040  0.00  0.00    +0.000 C 
ATOM     31  O   UNL     1      47.660   5.952  20.926  0.00  0.00    +0.000 OA
ATOM     32  H   UNL     1      48.547   3.677  21.225  0.00  0.00    +0.000 HD
ATOM     33  H   UNL     1      49.258   3.536  19.658  0.00  0.00    +0.000 HD
ENDBRANCH  21  30
ENDBRANCH  20  25
ENDBRANCH   1  20
TORSDOF 8
ENDMDL
MODEL 9
REMARK VINA RESULT:    -6.845      3.642      6.737
REMARK INTER + INTRA:         -11.018
REMARK INTER:                 -10.383
REMARK INTRA:                  -0.635
REMARK UNBOUND:                -0.971
REMARK  Name = 
REMARK  8 active torsions:
REMARK  status: ('A' for Active; 'I' for Inactive)
REMARK    1  A    between atoms: C_2  and  C_4
REMARK    2  A    between atoms: N_8  and  C_9
REMARK    3  A    between atoms: C_9  and  C_10
REMARK    4  A    between atoms: C_10  and  C_13
REMARK    5  A    between atoms: C_17  and  O_18
REMARK    6  A    between atoms: O_18  and  C_19
REMARK    7  A    between atoms: N_21  and  C_22
REMARK    8  A    between atoms: C_22  and  C_23
REMARK                            x       y       z     vdW  Elec       q    Type
REMARK                         _______ _______ _______ _____ _____    ______ ____
ROOT
ATOM      1  C   UNL     1      48.315   2.948  16.859  0.00  0.00    +0.000 C 
ATOM      2  F   UNL     1      47.577   2.601  17.954  0.00  0.00    +0.000 F 
ATOM      3  F   UNL     1      48.657   1.766  16.264  0.00  0.00    +0.000 F 
ENDROOT
BRANCH   1   4
ATOM      4  C   UNL     1      49.558   3.735  17.256  0.00  0.00    +0.000 A 
ATOM      5  C   UNL     1      50.752   3.059  17.532  0.00  0.00    +0.000 A 
ATOM      6  C   UNL     1      51.905   3.775  17.876  0.00  0.00    +0.000 A 
ATOM      7  C   UNL     1      51.893   5.171  17.947  0.00  0.00    +0.000 A 
ATOM      8  C   UNL     1      50.717   5.852  17.675  0.00  0.00    +0.000 A 
ATOM      9  C   UNL     1      49.569   5.139  17.337  0.00  0.00    +0.000 A 
BRANCH   8  10
ATOM     10  O   UNL     1      50.548   7.212  17.652  0.00  0.00    +0.000 OA
BRANCH  10  11
ATOM     11  C   UNL     1      50.234   7.864  16.405  0.00  0.00    +0.000 C 
ATOM     12  C   UNL     1      49.049   7.323  15.582  0.00  0.00    +0.000 C 
ATOM     13  N   UNL     1      49.912   7.168  14.398  0.00  0.00    +0.000 NA
ATOM     14  C   UNL     1      51.116   7.431  15.209  0.00  0.00    +0.000 C 
BRANCH  13  15
ATOM     15  C   UNL     1      49.694   8.269  13.430  0.00  0.00    +0.000 C 
BRANCH  15  16
ATOM     16  C   UNL     1      49.321   7.839  11.995  0.00  0.00    +0.000 C 
ATOM     17  F   UNL     1      50.362   7.328  11.302  0.00  0.00    +0.000 F 
ATOM     18  F   UNL     1      48.341   6.905  12.009  0.00  0.00    +0.000 F 
ATOM     19  F   UNL     1      48.854   8.900  11.292  0.00  0.00    +0.000 F 
ENDBRANCH  15  16
ENDBRANCH  13  15
ENDBRANCH  10  11
ENDBRANCH   8  10
ENDBRANCH   1   4
BRANCH   1  20
ATOM     20  C   UNL     1      47.400   3.741  15.892  0.00  0.00    +0.000 C 
BRANCH  20  25
ATOM     21  C   UNL     1      44.593   4.777  11.818  0.00  0.00    +0.000 A 
ATOM     22  C   UNL     1      45.105   5.628  12.787  0.00  0.00    +0.000 A 
ATOM     23  C   UNL     1      45.999   5.119  13.727  0.00  0.00    +0.000 A 
ATOM     24  C   UNL     1      46.358   3.769  13.690  0.00  0.00    +0.000 A 
ATOM     25  N   UNL     1      47.316   3.223  14.528  0.00  0.00    +0.000 N 
ATOM     26  N   UNL     1      45.835   2.931  12.779  0.00  0.00    +0.000 NA
ATOM     27  C   UNL     1      44.964   3.442  11.869  0.00  0.00    +0.000 A 
ATOM     28  H   UNL     1      47.312   2.209  14.430  0.00  0.00    +0.000 HD
BRANCH  21  30
ATOM     29  N   UNL     1      43.943   4.803   9.479  0.00  0.00    +0.000 N 
ATOM     30  C   UNL     1      43.683   5.239  10.754  0.00  0.00    +0.000 C 
ATOM     31  O   UNL     1      42.719   5.947  10.999  0.00  0.00    +0.000 OA
ATOM     32  H   UNL     1      43.251   5.033   8.778  0.00  0.00    +0.000 HD
ATOM     33  H   UNL     1      44.555   4.023   9.288  0.00  0.00    +0.000 HD
ENDBRANCH  21  30
ENDBRANCH  20  25
ENDBRANCH   1  20
TORSDOF 8
ENDMDL
