MODEL 1
REMARK VINA RESULT:    -8.150      0.000      0.000
REMARK INTER + INTRA:         -10.737
REMARK INTER:                 -10.056
REMARK INTRA:                  -0.680
REMARK UNBOUND:                -0.680
REMARK  Name = 
REMARK  8 active torsions:
REMARK  status: ('A' for Active; 'I' for Inactive)
REMARK    1  A    between atoms: C_1  and  C_2
REMARK    2  A    between atoms: C_9  and  C_10
REMARK    3  A    between atoms: C_10  and  C_11
REMARK    4  A    between atoms: C_10  and  C_12
REMARK    5  A    between atoms: C_10  and  C_13
REMARK    6  A    between atoms: C_13  and  N_14
REMARK    7  A    between atoms: C_18  and  C_19
REMARK    8  A    between atoms: C_26  and  C_27
REMARK                            x       y       z     vdW  Elec       q    Type
REMARK                         _______ _______ _______ _____ _____    ______ ____
ROOT
ATOM      1  C   UNL     1      44.270   5.321  11.998  0.00  0.00    +0.000 C 
ATOM      2  C   UNL     1      45.329   4.374  12.602  0.00  0.00    +0.000 C 
ATOM      3  C   UNL     1      43.066   5.419  12.964  0.00  0.00    +0.000 C 
ENDROOT
BRANCH   1  12
ATOM      4  C   UNL     1      50.449  10.580  13.855  0.00  0.00    +0.000 C 
ATOM      5  C   UNL     1      49.473   9.413  13.762  0.00  0.00    +0.000 C 
ATOM      6  C   UNL     1      48.931   9.270  12.321  0.00  0.00    +0.000 C 
ATOM      7  N   UNL     1      48.207   8.010  12.159  0.00  0.00    +0.000 N 
ATOM      8  C   UNL     1      46.843   7.990  12.007  0.00  0.00    +0.000 A 
ATOM      9  N   UNL     1      46.180   9.136  11.817  0.00  0.00    +0.000 NA
ATOM     10  C   UNL     1      44.850   9.055  11.642  0.00  0.00    +0.000 A 
ATOM     11  C   UNL     1      44.142   7.876  11.661  0.00  0.00    +0.000 A 
ATOM     12  C   UNL     1      44.878   6.730  11.878  0.00  0.00    +0.000 A 
ATOM     13  N   UNL     1      46.219   6.802  12.036  0.00  0.00    +0.000 NA
ATOM     14  C   UNL     1      48.898   6.819  12.652  0.00  0.00    +0.000 C 
ATOM     15  C   UNL     1      49.405   7.034  14.092  0.00  0.00    +0.000 C 
ATOM     16  C   UNL     1      48.301   6.997  15.147  0.00  0.00    +0.000 C 
ATOM     17  O   UNL     1      50.188   8.238  14.195  0.00  0.00    +0.000 OA
ENDBRANCH   1  12
BRANCH   1  18
ATOM     18  C   UNL     1      43.797   4.770  10.625  0.00  0.00    +0.000 C 
BRANCH  18  19
ATOM     19  N   UNL     1      44.080   3.341  10.433  0.00  0.00    +0.000 N 
ATOM     20  C   UNL     1      44.951   3.094   9.353  0.00  0.00    +0.000 A 
ATOM     21  C   UNL     1      45.287   1.771   9.070  0.00  0.00    +0.000 A 
ATOM     22  C   UNL     1      46.152   1.490   8.012  0.00  0.00    +0.000 A 
ATOM     23  C   UNL     1      46.664   2.543   7.260  0.00  0.00    +0.000 A 
ATOM     24  C   UNL     1      46.278   3.829   7.599  0.00  0.00    +0.000 A 
ATOM     25  N   UNL     1      45.450   4.119   8.633  0.00  0.00    +0.000 NA
ATOM     26  H   UNL     1      43.237   2.793  10.279  0.00  0.00    +0.000 HD
BRANCH  23  27
ATOM     27  C   UNL     1      47.579   2.357   6.113  0.00  0.00    +0.000 C 
ATOM     28  N   UNL     1      47.492   3.258   5.092  0.00  0.00    +0.000 N 
ATOM     29  O   UNL     1      48.359   1.418   6.066  0.00  0.00    +0.000 OA
ATOM     30  H   UNL     1      46.712   3.887   4.978  0.00  0.00    +0.000 HD
ATOM     31  H   UNL     1      48.051   3.055   4.270  0.00  0.00    +0.000 HD
ENDBRANCH  23  27
ENDBRANCH  18  19
ENDBRANCH   1  18
TORSDOF 4
ENDMDL
MODEL 2
REMARK VINA RESULT:    -7.487      3.109      5.553
REMARK INTER + INTRA:          -9.918
REMARK INTER:                  -8.807
REMARK INTRA:                  -1.111
REMARK UNBOUND:                -0.680
REMARK  Name = 
REMARK  8 active torsions:
REMARK  status: ('A' for Active; 'I' for Inactive)
REMARK    1  A    between atoms: C_1  and  C_2
REMARK    2  A    between atoms: C_9  and  C_10
REMARK    3  A    between atoms: C_10  and  C_11
REMARK    4  A    between atoms: C_10  and  C_12
REMARK    5  A    between atoms: C_10  and  C_13
REMARK    6  A    between atoms: C_13  and  N_14
REMARK    7  A    between atoms: C_18  and  C_19
REMARK    8  A    between atoms: C_26  and  C_27
REMARK                            x       y       z     vdW  Elec       q    Type
REMARK                         _______ _______ _______ _____ _____    ______ ____
ROOT
ATOM      1  C   UNL     1      48.164   4.259  17.186  0.00  0.00    +0.000 C 
ATOM      2  C   UNL     1      48.519   2.957  17.935  0.00  0.00    +0.000 C 
ATOM      3  C   UNL     1      47.221   5.111  18.068  0.00  0.00    +0.000 C 
ENDROOT
BRANCH   1  12
ATOM      4  C   UNL     1      52.326   9.933  12.740  0.00  0.00    +0.000 C 
ATOM      5  C   UNL     1      51.337   8.905  13.279  0.00  0.00    +0.000 C 
ATOM      6  C   UNL     1      51.281   8.962  14.823  0.00  0.00    +0.000 C 
ATOM      7  N   UNL     1      50.160   8.176  15.333  0.00  0.00    +0.000 N 
ATOM      8  C   UNL     1      50.367   6.998  16.007  0.00  0.00    +0.000 A 
ATOM      9  N   UNL     1      51.607   6.649  16.368  0.00  0.00    +0.000 NA
ATOM     10  C   UNL     1      51.748   5.501  17.053  0.00  0.00    +0.000 A 
ATOM     11  C   UNL     1      50.704   4.671  17.386  0.00  0.00    +0.000 A 
ATOM     12  C   UNL     1      49.452   5.074  16.971  0.00  0.00    +0.000 A 
ATOM     13  N   UNL     1      49.299   6.237  16.298  0.00  0.00    +0.000 NA
ATOM     14  C   UNL     1      48.872   8.422  14.686  0.00  0.00    +0.000 C 
ATOM     15  C   UNL     1      49.004   8.346  13.152  0.00  0.00    +0.000 C 
ATOM     16  C   UNL     1      49.156   6.923  12.615  0.00  0.00    +0.000 C 
ATOM     17  O   UNL     1      50.061   9.200  12.676  0.00  0.00    +0.000 OA
ENDBRANCH   1  12
BRANCH   1  18
ATOM     18  C   UNL     1      47.459   3.917  15.844  0.00  0.00    +0.000 C 
BRANCH  18  19
ATOM     19  N   UNL     1      46.900   5.089  15.156  0.00  0.00    +0.000 N 
ATOM     20  C   UNL     1      46.244   4.759  13.955  0.00  0.00    +0.000 A 
ATOM     21  C   UNL     1      45.679   5.793  13.210  0.00  0.00    +0.000 A 
ATOM     22  C   UNL     1      45.016   5.502  12.017  0.00  0.00    +0.000 A 
ATOM     23  C   UNL     1      44.932   4.178  11.596  0.00  0.00    +0.000 A 
ATOM     24  C   UNL     1      45.524   3.209  12.387  0.00  0.00    +0.000 A 
ATOM     25  N   UNL     1      46.159   3.473  13.556  0.00  0.00    +0.000 NA
ATOM     26  H   UNL     1      47.606   5.787  14.939  0.00  0.00    +0.000 HD
BRANCH  23  27
ATOM     27  C   UNL     1      44.262   3.761  10.345  0.00  0.00    +0.000 C 
ATOM     28  N   UNL     1      44.131   4.699   9.363  0.00  0.00    +0.000 N 
ATOM     29  O   UNL     1      43.817   2.631  10.208  0.00  0.00    +0.000 OA
ATOM     30  H   UNL     1      44.259   5.687   9.525  0.00  0.00    +0.000 HD
ATOM     31  H   UNL     1      43.579   4.426   8.557  0.00  0.00    +0.000 HD
ENDBRANCH  23  27
ENDBRANCH  18  19
ENDBRANCH   1  18
TORSDOF 4
ENDMDL
MODEL 3
REMARK VINA RESULT:    -7.166      3.421      5.667
REMARK INTER + INTRA:          -9.522
REMARK INTER:                  -8.564
REMARK INTRA:                  -0.958
REMARK UNBOUND:                -0.680
REMARK  Name = 
REMARK  8 active torsions:
REMARK  status: ('A' for Active; 'I' for Inactive)
REMARK    1  A    between atoms: C_1  and  C_2
REMARK    2  A    between atoms: C_9  and  C_10
REMARK    3  A    between atoms: C_10  and  C_11
REMARK    4  A    between atoms: C_10  and  C_12
REMARK    5  A    between atoms: C_10  and  C_13
REMARK    6  A    between atoms: C_13  and  N_14
REMARK    7  A    between atoms: C_18  and  C_19
REMARK    8  A    between atoms: C_26  and  C_27
REMARK                            x       y       z     vdW  Elec       q    Type
REMARK                         _______ _______ _______ _____ _____    ______ ____
ROOT
ATOM      1  C   UNL     1      48.399   8.250  13.682  0.00  0.00    +0.000 C 
ATOM      2  C   UNL     1      48.805   9.589  13.030  0.00  0.00    +0.000 C 
ATOM      3  C   UNL     1      49.379   7.145  13.222  0.00  0.00    +0.000 C 
ENDROOT
BRANCH   1  12
ATOM      4  C   UNL     1      48.664   4.553  21.134  0.00  0.00    +0.000 C 
ATOM      5  C   UNL     1      48.504   4.909  19.661  0.00  0.00    +0.000 C 
ATOM      6  C   UNL     1      49.546   5.971  19.242  0.00  0.00    +0.000 C 
ATOM      7  N   UNL     1      49.576   6.127  17.789  0.00  0.00    +0.000 N 
ATOM      8  C   UNL     1      49.098   7.264  17.187  0.00  0.00    +0.000 A 
ATOM      9  N   UNL     1      48.769   8.324  17.935  0.00  0.00    +0.000 NA
ATOM     10  C   UNL     1      48.337   9.421  17.291  0.00  0.00    +0.000 A 
ATOM     11  C   UNL     1      48.202   9.508  15.926  0.00  0.00    +0.000 A 
ATOM     12  C   UNL     1      48.538   8.380  15.209  0.00  0.00    +0.000 A 
ATOM     13  N   UNL     1      48.993   7.277  15.848  0.00  0.00    +0.000 NA
ATOM     14  C   UNL     1      49.658   4.884  17.024  0.00  0.00    +0.000 C 
ATOM     15  C   UNL     1      48.590   3.877  17.493  0.00  0.00    +0.000 C 
ATOM     16  C   UNL     1      47.173   4.223  17.037  0.00  0.00    +0.000 C 
ATOM     17  O   UNL     1      48.647   3.681  18.919  0.00  0.00    +0.000 OA
ENDBRANCH   1  12
BRANCH   1  18
ATOM     18  C   UNL     1      46.952   7.876  13.257  0.00  0.00    +0.000 C 
BRANCH  18  19
ATOM     19  N   UNL     1      46.533   6.540  13.703  0.00  0.00    +0.000 N 
ATOM     20  C   UNL     1      46.014   5.750  12.659  0.00  0.00    +0.000 A 
ATOM     21  C   UNL     1      45.577   4.462  12.965  0.00  0.00    +0.000 A 
ATOM     22  C   UNL     1      45.062   3.649  11.954  0.00  0.00    +0.000 A 
ATOM     23  C   UNL     1      44.999   4.145  10.655  0.00  0.00    +0.000 A 
ATOM     24  C   UNL     1      45.447   5.437  10.432  0.00  0.00    +0.000 A 
ATOM     25  N   UNL     1      45.962   6.234  11.401  0.00  0.00    +0.000 NA
ATOM     26  H   UNL     1      45.832   6.576  14.438  0.00  0.00    +0.000 HD
BRANCH  23  27
ATOM     27  C   UNL     1      44.463   3.374   9.512  0.00  0.00    +0.000 C 
ATOM     28  N   UNL     1      44.116   4.073   8.393  0.00  0.00    +0.000 N 
ATOM     29  O   UNL     1      44.309   2.163   9.578  0.00  0.00    +0.000 OA
ATOM     30  H   UNL     1      43.997   5.075   8.386  0.00  0.00    +0.000 HD
ATOM     31  H   UNL     1      43.655   3.544   7.662  0.00  0.00    +0.000 HD
ENDBRANCH  23  27
ENDBRANCH  18  19
ENDBRANCH   1  18
TORSDOF 4
ENDMDL
MODEL 4
REMARK VINA RESULT:    -6.690      3.580      6.178
REMARK INTER + INTRA:          -8.934
REMARK INTER:                  -8.274
REMARK INTRA:                  -0.660
REMARK UNBOUND:                -0.680
REMARK  Name = 
REMARK  8 active torsions:
REMARK  status: ('A' for Active; 'I' for Inactive)
REMARK    1  A    between atoms: C_1  and  C_2
REMARK    2  A    between atoms: C_9  and  C_10
REMARK    3  A    between atoms: C_10  and  C_11
REMARK    4  A    between atoms: C_10  and  C_12
REMARK    5  A    between atoms: C_10  and  C_13
REMARK    6  A    between atoms: C_13  and  N_14
REMARK    7  A    between atoms: C_18  and  C_19
REMARK    8  A    between atoms: C_26  and  C_27
REMARK                            x       y       z     vdW  Elec       q    Type
REMARK                         _______ _______ _______ _____ _____    ______ ____
ROOT
ATOM      1  C   UNL     1      48.930   7.937  13.473  0.00  0.00    +0.000 C 
ATOM      2  C   UNL     1      48.848   9.478  13.465  0.00  0.00    +0.000 C 
ATOM      3  C   UNL     1      49.403   7.447  12.084  0.00  0.00    +0.000 C 
ENDROOT
BRANCH   1  12
ATOM      4  C   UNL     1      50.702   4.870  21.005  0.00  0.00    +0.000 C 
ATOM      5  C   UNL     1      50.049   5.462  19.761  0.00  0.00    +0.000 C 
ATOM      6  C   UNL     1      50.726   4.919  18.481  0.00  0.00    +0.000 C 
ATOM      7  N   UNL     1      49.950   5.268  17.293  0.00  0.00    +0.000 N 
ATOM      8  C   UNL     1      50.410   6.195  16.392  0.00  0.00    +0.000 A 
ATOM      9  N   UNL     1      51.663   6.654  16.493  0.00  0.00    +0.000 NA
ATOM     10  C   UNL     1      52.071   7.537  15.565  0.00  0.00    +0.000 A 
ATOM     11  C   UNL     1      51.279   7.998  14.540  0.00  0.00    +0.000 A 
ATOM     12  C   UNL     1      49.993   7.502  14.498  0.00  0.00    +0.000 A 
ATOM     13  N   UNL     1      49.580   6.599  15.417  0.00  0.00    +0.000 NA
ATOM     14  C   UNL     1      48.518   4.984  17.370  0.00  0.00    +0.000 C 
ATOM     15  C   UNL     1      47.912   5.556  18.667  0.00  0.00    +0.000 C 
ATOM     16  C   UNL     1      47.748   7.076  18.653  0.00  0.00    +0.000 C 
ATOM     17  O   UNL     1      48.649   5.120  19.825  0.00  0.00    +0.000 OA
ENDBRANCH   1  12
BRANCH   1  18
ATOM     18  C   UNL     1      47.532   7.338  13.791  0.00  0.00    +0.000 C 
BRANCH  18  19
ATOM     19  N   UNL     1      46.537   7.570  12.735  0.00  0.00    +0.000 N 
ATOM     20  C   UNL     1      45.898   6.388  12.313  0.00  0.00    +0.000 A 
ATOM     21  C   UNL     1      44.937   6.484  11.308  0.00  0.00    +0.000 A 
ATOM     22  C   UNL     1      44.279   5.333  10.870  0.00  0.00    +0.000 A 
ATOM     23  C   UNL     1      44.598   4.110  11.451  0.00  0.00    +0.000 A 
ATOM     24  C   UNL     1      45.568   4.096  12.439  0.00  0.00    +0.000 A 
ATOM     25  N   UNL     1      46.206   5.206  12.886  0.00  0.00    +0.000 NA
ATOM     26  H   UNL     1      46.937   8.013  11.912  0.00  0.00    +0.000 HD
BRANCH  23  27
ATOM     27  C   UNL     1      43.970   2.830  11.056  0.00  0.00    +0.000 C 
ATOM     28  N   UNL     1      44.522   2.163  10.001  0.00  0.00    +0.000 N 
ATOM     29  O   UNL     1      42.980   2.403  11.630  0.00  0.00    +0.000 OA
ATOM     30  H   UNL     1      45.171   2.591   9.358  0.00  0.00    +0.000 HD
ATOM     31  H   UNL     1      44.018   1.344   9.679  0.00  0.00    +0.000 HD
ENDBRANCH  23  27
ENDBRANCH  18  19
ENDBRANCH   1  18
TORSDOF 4
ENDMDL
MODEL 5
REMARK VINA RESULT:    -6.598      3.692      5.669
REMARK INTER + INTRA:          -8.822
REMARK INTER:                  -7.981
REMARK INTRA:                  -0.841
REMARK UNBOUND:                -0.680
REMARK  Name = 
REMARK  8 active torsions:
REMARK  status: ('A' for Active; 'I' for Inactive)
REMARK    1  A    between atoms: C_1  and  C_2
REMARK    2  A    between atoms: C_9  and  C_10
REMARK    3  A    between atoms: C_10  and  C_11
REMARK    4  A    between atoms: C_10  and  C_12
REMARK    5  A    between atoms: C_10  and  C_13
REMARK    6  A    between atoms: C_13  and  N_14
REMARK    7  A    between atoms: C_18  and  C_19
REMARK    8  A    between atoms: C_26  and  C_27
REMARK                            x       y       z     vdW  Elec       q    Type
REMARK                         _______ _______ _______ _____ _____    ______ ____
ROOT
ATOM      1  C   UNL     1      48.081   3.586  16.986  0.00  0.00    +0.000 C 
ATOM      2  C   UNL     1      49.490   2.964  17.090  0.00  0.00    +0.000 C 
ATOM      3  C   UNL     1      47.119   2.820  17.925  0.00  0.00    +0.000 C 
ENDROOT
BRANCH   1  12
ATOM      4  C   UNL     1      52.317  10.730  17.539  0.00  0.00    +0.000 C 
ATOM      5  C   UNL     1      51.854   9.293  17.325  0.00  0.00    +0.000 C 
ATOM      6  C   UNL     1      50.369   9.258  16.895  0.00  0.00    +0.000 C 
ATOM      7  N   UNL     1      49.991   7.923  16.437  0.00  0.00    +0.000 N 
ATOM      8  C   UNL     1      49.147   7.131  17.176  0.00  0.00    +0.000 A 
ATOM      9  N   UNL     1      48.512   7.646  18.235  0.00  0.00    +0.000 NA
ATOM     10  C   UNL     1      47.674   6.836  18.904  0.00  0.00    +0.000 A 
ATOM     11  C   UNL     1      47.448   5.521  18.572  0.00  0.00    +0.000 A 
ATOM     12  C   UNL     1      48.144   5.042  17.482  0.00  0.00    +0.000 A 
ATOM     13  N   UNL     1      48.975   5.856  16.792  0.00  0.00    +0.000 NA
ATOM     14  C   UNL     1      50.900   7.306  15.472  0.00  0.00    +0.000 C 
ATOM     15  C   UNL     1      52.358   7.375  15.969  0.00  0.00    +0.000 C 
ATOM     16  C   UNL     1      52.672   6.394  17.097  0.00  0.00    +0.000 C 
ATOM     17  O   UNL     1      52.725   8.720  16.328  0.00  0.00    +0.000 OA
ENDBRANCH   1  12
BRANCH   1  18
ATOM     18  C   UNL     1      47.572   3.489  15.522  0.00  0.00    +0.000 C 
BRANCH  18  19
ATOM     19  N   UNL     1      46.975   4.736  15.022  0.00  0.00    +0.000 N 
ATOM     20  C   UNL     1      46.257   4.559  13.823  0.00  0.00    +0.000 A 
ATOM     21  C   UNL     1      45.651   5.676  13.250  0.00  0.00    +0.000 A 
ATOM     22  C   UNL     1      44.926   5.536  12.065  0.00  0.00    +0.000 A 
ATOM     23  C   UNL     1      44.821   4.277  11.482  0.00  0.00    +0.000 A 
ATOM     24  C   UNL     1      45.456   3.218  12.109  0.00  0.00    +0.000 A 
ATOM     25  N   UNL     1      46.152   3.335  13.267  0.00  0.00    +0.000 NA
ATOM     26  H   UNL     1      47.668   5.462  14.860  0.00  0.00    +0.000 HD
BRANCH  23  27
ATOM     27  C   UNL     1      44.086   4.019  10.225  0.00  0.00    +0.000 C 
ATOM     28  N   UNL     1      44.225   2.784   9.661  0.00  0.00    +0.000 N 
ATOM     29  O   UNL     1      43.407   4.886   9.695  0.00  0.00    +0.000 OA
ATOM     30  H   UNL     1      44.954   2.138   9.925  0.00  0.00    +0.000 HD
ATOM     31  H   UNL     1      43.800   2.660   8.749  0.00  0.00    +0.000 HD
ENDBRANCH  23  27
ENDBRANCH  18  19
ENDBRANCH   1  18
TORSDOF 4
ENDMDL
MODEL 6
REMARK VINA RESULT:    -6.577      4.083      6.442
REMARK INTER + INTRA:          -8.795
REMARK INTER:                  -7.733
REMARK INTRA:                  -1.062
REMARK UNBOUND:                -0.680
REMARK  Name = 
REMARK  8 active torsions:
REMARK  status: ('A' for Active; 'I' for Inactive)
REMARK    1  A    between atoms: C_1  and  C_2
REMARK    2  A    between atoms: C_9  and  C_10
REMARK    3  A    between atoms: C_10  and  C_11
REMARK    4  A    between atoms: C_10  and  C_12
REMARK    5  A    between atoms: C_10  and  C_13
REMARK    6  A    between atoms: C_13  and  N_14
REMARK    7  A    between atoms: C_18  and  C_19
REMARK    8  A    between atoms: C_26  and  C_27
REMARK                            x       y       z     vdW  Elec       q    Type
REMARK                         _______ _______ _______ _____ _____    ______ ____
ROOT
ATOM      1  C   UNL     1      48.465   3.571  17.281  0.00  0.00    +0.000 C 
ATOM      2  C   UNL     1      49.020   2.330  16.551  0.00  0.00    +0.000 C 
ATOM      3  C   UNL     1      47.919   3.144  18.664  0.00  0.00    +0.000 C 
ENDROOT
BRANCH   1  12
ATOM      4  C   UNL     1      51.138  11.448  17.577  0.00  0.00    +0.000 C 
ATOM      5  C   UNL     1      50.363  10.152  17.369  0.00  0.00    +0.000 C 
ATOM      6  C   UNL     1      50.675   9.144  18.498  0.00  0.00    +0.000 C 
ATOM      7  N   UNL     1      49.751   8.012  18.456  0.00  0.00    +0.000 N 
ATOM      8  C   UNL     1      50.175   6.763  18.076  0.00  0.00    +0.000 A 
ATOM      9  N   UNL     1      51.482   6.525  17.918  0.00  0.00    +0.000 NA
ATOM     10  C   UNL     1      51.843   5.277  17.575  0.00  0.00    +0.000 A 
ATOM     11  C   UNL     1      50.953   4.249  17.368  0.00  0.00    +0.000 A 
ATOM     12  C   UNL     1      49.619   4.559  17.528  0.00  0.00    +0.000 A 
ATOM     13  N   UNL     1      49.249   5.808  17.891  0.00  0.00    +0.000 NA
ATOM     14  C   UNL     1      48.334   8.359  18.348  0.00  0.00    +0.000 C 
ATOM     15  C   UNL     1      48.100   9.363  17.202  0.00  0.00    +0.000 C 
ATOM     16  C   UNL     1      48.194   8.742  15.809  0.00  0.00    +0.000 C 
ATOM     17  O   UNL     1      48.966  10.507  17.324  0.00  0.00    +0.000 OA
ENDBRANCH   1  12
BRANCH   1  18
ATOM     18  C   UNL     1      47.323   4.207  16.441  0.00  0.00    +0.000 C 
BRANCH  18  19
ATOM     19  N   UNL     1      47.792   5.196  15.461  0.00  0.00    +0.000 N 
ATOM     20  C   UNL     1      47.029   5.200  14.277  0.00  0.00    +0.000 A 
ATOM     21  C   UNL     1      47.386   6.095  13.269  0.00  0.00    +0.000 A 
ATOM     22  C   UNL     1      46.648   6.132  12.085  0.00  0.00    +0.000 A 
ATOM     23  C   UNL     1      45.565   5.270  11.937  0.00  0.00    +0.000 A 
ATOM     24  C   UNL     1      45.278   4.406  12.980  0.00  0.00    +0.000 A 
ATOM     25  N   UNL     1      45.976   4.368  14.142  0.00  0.00    +0.000 NA
ATOM     26  H   UNL     1      48.764   5.055  15.199  0.00  0.00    +0.000 HD
BRANCH  23  27
ATOM     27  C   UNL     1      44.724   5.219  10.722  0.00  0.00    +0.000 C 
ATOM     28  N   UNL     1      45.365   5.186   9.518  0.00  0.00    +0.000 N 
ATOM     29  O   UNL     1      43.504   5.236  10.791  0.00  0.00    +0.000 OA
ATOM     30  H   UNL     1      46.342   5.416   9.409  0.00  0.00    +0.000 HD
ATOM     31  H   UNL     1      44.775   5.257   8.697  0.00  0.00    +0.000 HD
ENDBRANCH  23  27
ENDBRANCH  18  19
ENDBRANCH   1  18
TORSDOF 4
ENDMDL
MODEL 7
REMARK VINA RESULT:    -5.988      4.723      6.658
REMARK INTER + INTRA:          -8.068
REMARK INTER:                  -7.276
REMARK INTRA:                  -0.792
REMARK UNBOUND:                -0.680
REMARK  Name = 
REMARK  8 active torsions:
REMARK  status: ('A' for Active; 'I' for Inactive)
REMARK    1  A    between atoms: C_1  and  C_2
REMARK    2  A    between atoms: C_9  and  C_10
REMARK    3  A    between atoms: C_10  and  C_11
REMARK    4  A    between atoms: C_10  and  C_12
REMARK    5  A    between atoms: C_10  and  C_13
REMARK    6  A    between atoms: C_13  and  N_14
REMARK    7  A    between atoms: C_18  and  C_19
REMARK    8  A    between atoms: C_26  and  C_27
REMARK                            x       y       z     vdW  Elec       q    Type
REMARK                         _______ _______ _______ _____ _____    ______ ____
ROOT
ATOM      1  C   UNL     1      48.120   3.462  17.257  0.00  0.00    +0.000 C 
ATOM      2  C   UNL     1      49.337   2.653  16.760  0.00  0.00    +0.000 C 
ATOM      3  C   UNL     1      47.391   2.656  18.358  0.00  0.00    +0.000 C 
ENDROOT
BRANCH   1  12
ATOM      4  C   UNL     1      54.528   8.180  19.697  0.00  0.00    +0.000 C 
ATOM      5  C   UNL     1      53.606   7.066  19.215  0.00  0.00    +0.000 C 
ATOM      6  C   UNL     1      52.435   7.647  18.392  0.00  0.00    +0.000 C 
ATOM      7  N   UNL     1      51.698   6.584  17.710  0.00  0.00    +0.000 N 
ATOM      8  C   UNL     1      50.429   6.236  18.102  0.00  0.00    +0.000 A 
ATOM      9  N   UNL     1      49.778   6.993  18.993  0.00  0.00    +0.000 NA
ATOM     10  C   UNL     1      48.527   6.624  19.316  0.00  0.00    +0.000 A 
ATOM     11  C   UNL     1      47.894   5.518  18.799  0.00  0.00    +0.000 A 
ATOM     12  C   UNL     1      48.621   4.767  17.900  0.00  0.00    +0.000 A 
ATOM     13  N   UNL     1      49.874   5.143  17.555  0.00  0.00    +0.000 NA
ATOM     14  C   UNL     1      52.517   5.622  16.975  0.00  0.00    +0.000 C 
ATOM     15  C   UNL     1      53.660   5.084  17.859  0.00  0.00    +0.000 C 
ATOM     16  C   UNL     1      53.201   4.086  18.921  0.00  0.00    +0.000 C 
ATOM     17  O   UNL     1      54.419   6.159  18.443  0.00  0.00    +0.000 OA
ENDBRANCH   1  12
BRANCH   1  18
ATOM     18  C   UNL     1      47.149   3.728  16.074  0.00  0.00    +0.000 C 
BRANCH  18  19
ATOM     19  N   UNL     1      47.450   4.960  15.330  0.00  0.00    +0.000 N 
ATOM     20  C   UNL     1      46.840   4.998  14.062  0.00  0.00    +0.000 A 
ATOM     21  C   UNL     1      47.060   6.118  13.261  0.00  0.00    +0.000 A 
ATOM     22  C   UNL     1      46.466   6.192  12.000  0.00  0.00    +0.000 A 
ATOM     23  C   UNL     1      45.661   5.142  11.569  0.00  0.00    +0.000 A 
ATOM     24  C   UNL     1      45.496   4.062  12.420  0.00  0.00    +0.000 A 
ATOM     25  N   UNL     1      46.054   3.980  13.653  0.00  0.00    +0.000 NA
ATOM     26  H   UNL     1      48.448   5.100  15.195  0.00  0.00    +0.000 HD
BRANCH  23  27
ATOM     27  C   UNL     1      44.992   5.114  10.250  0.00  0.00    +0.000 C 
ATOM     28  N   UNL     1      43.628   5.127  10.240  0.00  0.00    +0.000 N 
ATOM     29  O   UNL     1      45.635   5.051   9.213  0.00  0.00    +0.000 OA
ATOM     30  H   UNL     1      43.070   4.932  11.058  0.00  0.00    +0.000 HD
ATOM     31  H   UNL     1      43.188   5.002   9.335  0.00  0.00    +0.000 HD
ENDBRANCH  23  27
ENDBRANCH  18  19
ENDBRANCH   1  18
TORSDOF 4
ENDMDL
MODEL 8
REMARK VINA RESULT:    -5.962      4.524      7.358
REMARK INTER + INTRA:          -8.036
REMARK INTER:                  -7.175
REMARK INTRA:                  -0.861
REMARK UNBOUND:                -0.680
REMARK  Name = 
REMARK  8 active torsions:
REMARK  status: ('A' for Active; 'I' for Inactive)
REMARK    1  A    between atoms: C_1  and  C_2
REMARK    2  A    between atoms: C_9  and  C_10
REMARK    3  A    between atoms: C_10  and  C_11
REMARK    4  A    between atoms: C_10  and  C_12
REMARK    5  A    between atoms: C_10  and  C_13
REMARK    6  A    between atoms: C_13  and  N_14
REMARK    7  A    between atoms: C_18  and  C_19
REMARK    8  A    between atoms: C_26  and  C_27
REMARK                            x       y       z     vdW  Elec       q    Type
REMARK                         _______ _______ _______ _____ _____    ______ ____
ROOT
ATOM      1  C   UNL     1      50.727   8.946  12.603  0.00  0.00    +0.000 C 
ATOM      2  C   UNL     1      51.343   8.090  11.476  0.00  0.00    +0.000 C 
ATOM      3  C   UNL     1      51.808   9.901  13.163  0.00  0.00    +0.000 C 
ENDROOT
BRANCH   1  12
ATOM      4  C   UNL     1      42.729   9.751  10.445  0.00  0.00    +0.000 C 
ATOM      5  C   UNL     1      44.106   9.260  10.874  0.00  0.00    +0.000 C 
ATOM      6  C   UNL     1      44.844  10.350  11.685  0.00  0.00    +0.000 C 
ATOM      7  N   UNL     1      46.043   9.805  12.320  0.00  0.00    +0.000 N 
ATOM      8  C   UNL     1      47.297  10.159  11.889  0.00  0.00    +0.000 A 
ATOM      9  N   UNL     1      47.439  11.152  11.004  0.00  0.00    +0.000 NA
ATOM     10  C   UNL     1      48.692  11.479  10.641  0.00  0.00    +0.000 A 
ATOM     11  C   UNL     1      49.818  10.846  11.113  0.00  0.00    +0.000 A 
ATOM     12  C   UNL     1      49.608   9.819  12.008  0.00  0.00    +0.000 A 
ATOM     13  N   UNL     1      48.351   9.498  12.393  0.00  0.00    +0.000 NA
ATOM     14  C   UNL     1      45.856   8.551  13.048  0.00  0.00    +0.000 C 
ATOM     15  C   UNL     1      45.119   7.514  12.177  0.00  0.00    +0.000 C 
ATOM     16  C   UNL     1      45.986   6.903  11.077  0.00  0.00    +0.000 C 
ATOM     17  O   UNL     1      43.898   8.056  11.640  0.00  0.00    +0.000 OA
ENDBRANCH   1  12
BRANCH   1  18
ATOM     18  C   UNL     1      50.205   8.022  13.738  0.00  0.00    +0.000 C 
BRANCH  18  19
ATOM     19  N   UNL     1      49.110   7.135  13.320  0.00  0.00    +0.000 N 
ATOM     20  C   UNL     1      48.658   6.296  14.357  0.00  0.00    +0.000 A 
ATOM     21  C   UNL     1      47.624   5.404  14.075  0.00  0.00    +0.000 A 
ATOM     22  C   UNL     1      47.146   4.562  15.080  0.00  0.00    +0.000 A 
ATOM     23  C   UNL     1      47.714   4.632  16.348  0.00  0.00    +0.000 A 
ATOM     24  C   UNL     1      48.742   5.539  16.547  0.00  0.00    +0.000 A 
ATOM     25  N   UNL     1      49.208   6.374  15.586  0.00  0.00    +0.000 NA
ATOM     26  H   UNL     1      49.366   6.543  12.535  0.00  0.00    +0.000 HD
BRANCH  23  27
ATOM     27  C   UNL     1      47.291   3.780  17.480  0.00  0.00    +0.000 C 
ATOM     28  N   UNL     1      47.990   3.898  18.646  0.00  0.00    +0.000 N 
ATOM     29  O   UNL     1      46.374   2.981  17.368  0.00  0.00    +0.000 OA
ATOM     30  H   UNL     1      48.889   4.353  18.705  0.00  0.00    +0.000 HD
ATOM     31  H   UNL     1      47.755   3.234  19.376  0.00  0.00    +0.000 HD
ENDBRANCH  23  27
ENDBRANCH  18  19
ENDBRANCH   1  18
TORSDOF 4
ENDMDL
MODEL 9
REMARK VINA RESULT:    -5.792      3.141      5.823
REMARK INTER + INTRA:          -7.826
REMARK INTER:                  -7.084
REMARK INTRA:                  -0.742
REMARK UNBOUND:                -0.680
REMARK  Name = 
REMARK  8 active torsions:
REMARK  status: ('A' for Active; 'I' for Inactive)
REMARK    1  A    between atoms: C_1  and  C_2
REMARK    2  A    between atoms: C_9  and  C_10
REMARK    3  A    between atoms: C_10  and  C_11
REMARK    4  A    between atoms: C_10  and  C_12
REMARK    5  A    between atoms: C_10  and  C_13
REMARK    6  A    between atoms: C_13  and  N_14
REMARK    7  A    between atoms: C_18  and  C_19
REMARK    8  A    between atoms: C_26  and  C_27
REMARK                            x       y       z     vdW  Elec       q    Type
REMARK                         _______ _______ _______ _____ _____    ______ ____
ROOT
ATOM      1  C   UNL     1      49.118   8.758  12.457  0.00  0.00    +0.000 C 
ATOM      2  C   UNL     1      49.054  10.117  11.727  0.00  0.00    +0.000 C 
ATOM      3  C   UNL     1      49.461   7.649  11.435  0.00  0.00    +0.000 C 
ENDROOT
BRANCH   1  12
ATOM      4  C   UNL     1      51.812   7.126  20.162  0.00  0.00    +0.000 C 
ATOM      5  C   UNL     1      51.000   7.351  18.892  0.00  0.00    +0.000 C 
ATOM      6  C   UNL     1      51.827   6.969  17.642  0.00  0.00    +0.000 C 
ATOM      7  N   UNL     1      50.982   6.930  16.450  0.00  0.00    +0.000 N 
ATOM      8  C   UNL     1      51.098   7.881  15.467  0.00  0.00    +0.000 A 
ATOM      9  N   UNL     1      52.115   8.749  15.499  0.00  0.00    +0.000 NA
ATOM     10  C   UNL     1      52.198   9.638  14.494  0.00  0.00    +0.000 A 
ATOM     11  C   UNL     1      51.298   9.711  13.457  0.00  0.00    +0.000 A 
ATOM     12  C   UNL     1      50.262   8.802  13.487  0.00  0.00    +0.000 A 
ATOM     13  N   UNL     1      50.182   7.892  14.484  0.00  0.00    +0.000 NA
ATOM     14  C   UNL     1      49.735   6.179  16.586  0.00  0.00    +0.000 C 
ATOM     15  C   UNL     1      48.965   6.614  17.849  0.00  0.00    +0.000 C 
ATOM     16  C   UNL     1      48.287   7.978  17.718  0.00  0.00    +0.000 C 
ATOM     17  O   UNL     1      49.803   6.556  19.018  0.00  0.00    +0.000 OA
ENDBRANCH   1  12
BRANCH   1  18
ATOM     18  C   UNL     1      47.747   8.454  13.121  0.00  0.00    +0.000 C 
BRANCH  18  19
ATOM     19  N   UNL     1      47.607   7.063  13.575  0.00  0.00    +0.000 N 
ATOM     20  C   UNL     1      46.672   6.330  12.818  0.00  0.00    +0.000 A 
ATOM     21  C   UNL     1      46.450   4.997  13.162  0.00  0.00    +0.000 A 
ATOM     22  C   UNL     1      45.535   4.239  12.430  0.00  0.00    +0.000 A 
ATOM     23  C   UNL     1      44.863   4.834  11.366  0.00  0.00    +0.000 A 
ATOM     24  C   UNL     1      45.133   6.164  11.091  0.00  0.00    +0.000 A 
ATOM     25  N   UNL     1      46.030   6.910  11.783  0.00  0.00    +0.000 NA
ATOM     26  H   UNL     1      47.331   6.997  14.551  0.00  0.00    +0.000 HD
BRANCH  23  27
ATOM     27  C   UNL     1      43.867   4.126  10.532  0.00  0.00    +0.000 C 
ATOM     28  N   UNL     1      43.838   4.428   9.202  0.00  0.00    +0.000 N 
ATOM     29  O   UNL     1      43.083   3.325  11.019  0.00  0.00    +0.000 OA
ATOM     30  H   UNL     1      44.288   5.243   8.813  0.00  0.00    +0.000 HD
ATOM     31  H   UNL     1      43.082   4.013   8.667  0.00  0.00    +0.000 HD
ENDBRANCH  23  27
ENDBRANCH  18  19
ENDBRANCH   1  18
TORSDOF 4
ENDMDL
