MODEL 1
REMARK VINA RESULT:    -7.856      0.000      0.000
REMARK INTER + INTRA:          -9.629
REMARK INTER:                  -9.234
REMARK INTRA:                  -0.395
REMARK UNBOUND:                -0.395
REMARK  Name = 
REMARK  3 active torsions:
REMARK  status: ('A' for Active; 'I' for Inactive)
REMARK    1  A    between atoms: C_2  and  C_4
REMARK    2  A    between atoms: N_8  and  C_9
REMARK    3  A    between atoms: C_9  and  C_10
REMARK                            x       y       z     vdW  Elec       q    Type
REMARK                         _______ _______ _______ _____ _____    ______ ____
ROOT
ATOM      1  C   UNL     1      46.236   2.063   7.872  0.00  0.00    +0.000 A 
ATOM      2  C   UNL     1      46.218   3.360   7.362  0.00  0.00    +0.000 A 
ATOM      3  C   UNL     1      45.417   4.320   7.982  0.00  0.00    +0.000 A 
ATOM      4  C   UNL     1      44.668   3.981   9.107  0.00  0.00    +0.000 A 
ATOM      5  N   UNL     1      43.961   5.011   9.750  0.00  0.00    +0.000 N 
ATOM      6  N   UNL     1      44.657   2.722   9.589  0.00  0.00    +0.000 NA
ATOM      7  C   UNL     1      45.416   1.789   8.954  0.00  0.00    +0.000 A 
ATOM      8  H   UNL     1      43.328   5.447   9.089  0.00  0.00    +0.000 HD
ENDROOT
BRANCH   1  10
ATOM      9  N   UNL     1      46.773  -0.298   7.666  0.00  0.00    +0.000 N 
ATOM     10  C   UNL     1      47.087   0.991   7.317  0.00  0.00    +0.000 C 
ATOM     11  O   UNL     1      48.001   1.231   6.544  0.00  0.00    +0.000 OA
ATOM     12  H   UNL     1      47.282  -1.029   7.187  0.00  0.00    +0.000 HD
ATOM     13  H   UNL     1      45.887  -0.547   8.083  0.00  0.00    +0.000 HD
ENDBRANCH   1  10
BRANCH   5  14
ATOM     14  C   UNL     1      43.340   4.649  11.021  0.00  0.00    +0.000 C 
BRANCH  14  15
ATOM     15  C   UNL     1      44.158   5.214  12.205  0.00  0.00    +0.000 C 
ATOM     16  C   UNL     1      44.874   6.504  11.769  0.00  0.00    +0.000 C 
ATOM     17  C   UNL     1      45.772   7.069  12.867  0.00  0.00    +0.000 C 
ATOM     18  C   UNL     1      46.776   6.033  13.357  0.00  0.00    +0.000 C 
ATOM     19  C   UNL     1      46.074   4.762  13.819  0.00  0.00    +0.000 C 
ATOM     20  C   UNL     1      45.178   4.184  12.726  0.00  0.00    +0.000 C 
ENDBRANCH  14  15
ENDBRANCH   5  14
TORSDOF 3
ENDMDL
MODEL 2
REMARK VINA RESULT:    -7.506      2.875      6.381
REMARK INTER + INTRA:          -9.217
REMARK INTER:                  -8.887
REMARK INTRA:                  -0.330
REMARK UNBOUND:                -0.395
REMARK  Name = 
REMARK  3 active torsions:
REMARK  status: ('A' for Active; 'I' for Inactive)
REMARK    1  A    between atoms: C_2  and  C_4
REMARK    2  A    between atoms: N_8  and  C_9
REMARK    3  A    between atoms: C_9  and  C_10
REMARK                            x       y       z     vdW  Elec       q    Type
REMARK                         _______ _______ _______ _____ _____    ______ ____
ROOT
ATOM      1  C   UNL     1      46.682   5.821  12.906  0.00  0.00    +0.000 A 
ATOM      2  C   UNL     1      46.116   4.603  13.282  0.00  0.00    +0.000 A 
ATOM      3  C   UNL     1      45.347   3.898  12.355  0.00  0.00    +0.000 A 
ATOM      4  C   UNL     1      45.172   4.403  11.067  0.00  0.00    +0.000 A 
ATOM      5  N   UNL     1      44.475   3.603  10.147  0.00  0.00    +0.000 N 
ATOM      6  N   UNL     1      45.691   5.594  10.704  0.00  0.00    +0.000 NA
ATOM      7  C   UNL     1      46.410   6.284  11.629  0.00  0.00    +0.000 A 
ATOM      8  H   UNL     1      43.554   3.394  10.514  0.00  0.00    +0.000 HD
ENDROOT
BRANCH   1  10
ATOM      9  N   UNL     1      47.184   7.917  14.025  0.00  0.00    +0.000 N 
ATOM     10  C   UNL     1      47.550   6.615  13.796  0.00  0.00    +0.000 C 
ATOM     11  O   UNL     1      48.526   6.128  14.346  0.00  0.00    +0.000 OA
ATOM     12  H   UNL     1      47.713   8.414  14.730  0.00  0.00    +0.000 HD
ATOM     13  H   UNL     1      46.263   8.270  13.804  0.00  0.00    +0.000 HD
ENDBRANCH   1  10
BRANCH   5  14
ATOM     14  C   UNL     1      44.473   4.087   8.769  0.00  0.00    +0.000 C 
BRANCH  14  15
ATOM     15  C   UNL     1      45.178   3.076   7.837  0.00  0.00    +0.000 C 
ATOM     16  C   UNL     1      45.701   1.888   8.665  0.00  0.00    +0.000 C 
ATOM     17  C   UNL     1      46.487   0.892   7.816  0.00  0.00    +0.000 C 
ATOM     18  C   UNL     1      47.625   1.571   7.066  0.00  0.00    +0.000 C 
ATOM     19  C   UNL     1      47.113   2.730   6.220  0.00  0.00    +0.000 C 
ATOM     20  C   UNL     1      46.331   3.737   7.059  0.00  0.00    +0.000 C 
ENDBRANCH  14  15
ENDBRANCH   5  14
TORSDOF 3
ENDMDL
MODEL 3
REMARK VINA RESULT:    -7.476      3.114      6.191
REMARK INTER + INTRA:          -9.182
REMARK INTER:                  -8.816
REMARK INTRA:                  -0.366
REMARK UNBOUND:                -0.395
REMARK  Name = 
REMARK  3 active torsions:
REMARK  status: ('A' for Active; 'I' for Inactive)
REMARK    1  A    between atoms: C_2  and  C_4
REMARK    2  A    between atoms: N_8  and  C_9
REMARK    3  A    between atoms: C_9  and  C_10
REMARK                            x       y       z     vdW  Elec       q    Type
REMARK                         _______ _______ _______ _____ _____    ______ ____
ROOT
ATOM      1  C   UNL     1      46.589   4.851  13.675  0.00  0.00    +0.000 A 
ATOM      2  C   UNL     1      46.682   6.035  12.945  0.00  0.00    +0.000 A 
ATOM      3  C   UNL     1      46.170   6.073  11.647  0.00  0.00    +0.000 A 
ATOM      4  C   UNL     1      45.556   4.943  11.107  0.00  0.00    +0.000 A 
ATOM      5  N   UNL     1      44.969   5.069   9.837  0.00  0.00    +0.000 N 
ATOM      6  N   UNL     1      45.489   3.786  11.795  0.00  0.00    +0.000 NA
ATOM      7  C   UNL     1      46.023   3.755  13.045  0.00  0.00    +0.000 A 
ATOM      8  H   UNL     1      45.670   5.377   9.173  0.00  0.00    +0.000 HD
ENDROOT
BRANCH   1  10
ATOM      9  N   UNL     1      47.845   5.737  15.556  0.00  0.00    +0.000 N 
ATOM     10  C   UNL     1      47.056   4.726  15.069  0.00  0.00    +0.000 C 
ATOM     11  O   UNL     1      46.720   3.790  15.779  0.00  0.00    +0.000 OA
ATOM     12  H   UNL     1      48.057   5.704  16.545  0.00  0.00    +0.000 HD
ATOM     13  H   UNL     1      47.925   6.633  15.096  0.00  0.00    +0.000 HD
ENDBRANCH   1  10
BRANCH   5  14
ATOM     14  C   UNL     1      44.186   3.921   9.391  0.00  0.00    +0.000 C 
BRANCH  14  15
ATOM     15  C   UNL     1      44.930   3.159   8.270  0.00  0.00    +0.000 C 
ATOM     16  C   UNL     1      45.541   1.868   8.841  0.00  0.00    +0.000 C 
ATOM     17  C   UNL     1      46.367   1.110   7.804  0.00  0.00    +0.000 C 
ATOM     18  C   UNL     1      47.445   1.994   7.192  0.00  0.00    +0.000 C 
ATOM     19  C   UNL     1      46.846   3.262   6.597  0.00  0.00    +0.000 C 
ATOM     20  C   UNL     1      46.023   4.033   7.626  0.00  0.00    +0.000 C 
ENDBRANCH  14  15
ENDBRANCH   5  14
TORSDOF 3
ENDMDL
MODEL 4
REMARK VINA RESULT:    -5.929      3.602      5.149
REMARK INTER + INTRA:          -7.364
REMARK INTER:                  -7.090
REMARK INTRA:                  -0.274
REMARK UNBOUND:                -0.395
REMARK  Name = 
REMARK  3 active torsions:
REMARK  status: ('A' for Active; 'I' for Inactive)
REMARK    1  A    between atoms: C_2  and  C_4
REMARK    2  A    between atoms: N_8  and  C_9
REMARK    3  A    between atoms: C_9  and  C_10
REMARK                            x       y       z     vdW  Elec       q    Type
REMARK                         _______ _______ _______ _____ _____    ______ ____
ROOT
ATOM      1  C   UNL     1      44.993   4.059  11.004  0.00  0.00    +0.000 A 
ATOM      2  C   UNL     1      45.525   5.343  11.110  0.00  0.00    +0.000 A 
ATOM      3  C   UNL     1      46.103   5.739  12.317  0.00  0.00    +0.000 A 
ATOM      4  C   UNL     1      46.162   4.848  13.387  0.00  0.00    +0.000 A 
ATOM      5  N   UNL     1      46.844   5.265  14.542  0.00  0.00    +0.000 N 
ATOM      6  N   UNL     1      45.623   3.614  13.303  0.00  0.00    +0.000 NA
ATOM      7  C   UNL     1      45.034   3.255  12.131  0.00  0.00    +0.000 A 
ATOM      8  H   UNL     1      46.426   6.121  14.887  0.00  0.00    +0.000 HD
ENDROOT
BRANCH   1  10
ATOM      9  N   UNL     1      44.067   4.443   8.791  0.00  0.00    +0.000 N 
ATOM     10  C   UNL     1      44.406   3.530   9.757  0.00  0.00    +0.000 C 
ATOM     11  O   UNL     1      44.270   2.331   9.568  0.00  0.00    +0.000 OA
ATOM     12  H   UNL     1      43.781   4.065   7.897  0.00  0.00    +0.000 HD
ATOM     13  H   UNL     1      44.398   5.398   8.806  0.00  0.00    +0.000 HD
ENDBRANCH   1  10
BRANCH   5  14
ATOM     14  C   UNL     1      47.037   4.239  15.563  0.00  0.00    +0.000 C 
BRANCH  14  15
ATOM     15  C   UNL     1      48.073   4.705  16.611  0.00  0.00    +0.000 C 
ATOM     16  C   UNL     1      48.838   5.927  16.074  0.00  0.00    +0.000 C 
ATOM     17  C   UNL     1      49.940   6.386  17.026  0.00  0.00    +0.000 C 
ATOM     18  C   UNL     1      50.900   5.251  17.360  0.00  0.00    +0.000 C 
ATOM     19  C   UNL     1      50.154   4.046  17.921  0.00  0.00    +0.000 C 
ATOM     20  C   UNL     1      49.054   3.574  16.974  0.00  0.00    +0.000 C 
ENDBRANCH  14  15
ENDBRANCH   5  14
TORSDOF 3
ENDMDL
MODEL 5
REMARK VINA RESULT:    -5.636      3.311      5.036
REMARK INTER + INTRA:          -7.020
REMARK INTER:                  -6.727
REMARK INTRA:                  -0.293
REMARK UNBOUND:                -0.395
REMARK  Name = 
REMARK  3 active torsions:
REMARK  status: ('A' for Active; 'I' for Inactive)
REMARK    1  A    between atoms: C_2  and  C_4
REMARK    2  A    between atoms: N_8  and  C_9
REMARK    3  A    between atoms: C_9  and  C_10
REMARK                            x       y       z     vdW  Elec       q    Type
REMARK                         _______ _______ _______ _____ _____    ______ ____
ROOT
ATOM      1  C   UNL     1      43.986   4.173  11.469  0.00  0.00    +0.000 A 
ATOM      2  C   UNL     1      43.217   5.237  11.000  0.00  0.00    +0.000 A 
ATOM      3  C   UNL     1      43.558   6.537  11.375  0.00  0.00    +0.000 A 
ATOM      4  C   UNL     1      44.667   6.759  12.191  0.00  0.00    +0.000 A 
ATOM      5  N   UNL     1      45.022   8.092  12.452  0.00  0.00    +0.000 N 
ATOM      6  N   UNL     1      45.398   5.734  12.673  0.00  0.00    +0.000 NA
ATOM      7  C   UNL     1      45.033   4.471  12.326  0.00  0.00    +0.000 A 
ATOM      8  H   UNL     1      44.237   8.571  12.878  0.00  0.00    +0.000 HD
ENDROOT
BRANCH   1  10
ATOM      9  N   UNL     1      44.495   2.254  10.070  0.00  0.00    +0.000 N 
ATOM     10  C   UNL     1      43.736   2.769  11.090  0.00  0.00    +0.000 C 
ATOM     11  O   UNL     1      42.924   2.077  11.684  0.00  0.00    +0.000 OA
ATOM     12  H   UNL     1      44.403   1.261   9.900  0.00  0.00    +0.000 HD
ATOM     13  H   UNL     1      45.337   2.705   9.738  0.00  0.00    +0.000 HD
ENDBRANCH   1  10
BRANCH   5  14
ATOM     14  C   UNL     1      46.288   8.278  13.157  0.00  0.00    +0.000 C 
BRANCH  14  15
ATOM     15  C   UNL     1      47.440   8.504  12.151  0.00  0.00    +0.000 C 
ATOM     16  C   UNL     1      48.521   7.428  12.354  0.00  0.00    +0.000 C 
ATOM     17  C   UNL     1      49.732   7.644  11.449  0.00  0.00    +0.000 C 
ATOM     18  C   UNL     1      50.319   9.039  11.624  0.00  0.00    +0.000 C 
ATOM     19  C   UNL     1      49.262  10.113  11.396  0.00  0.00    +0.000 C 
ATOM     20  C   UNL     1      48.049   9.911  12.300  0.00  0.00    +0.000 C 
ENDBRANCH  14  15
ENDBRANCH   5  14
TORSDOF 3
ENDMDL
MODEL 6
REMARK VINA RESULT:    -5.572      5.678      8.216
REMARK INTER + INTRA:          -6.944
REMARK INTER:                  -6.693
REMARK INTRA:                  -0.252
REMARK UNBOUND:                -0.395
REMARK  Name = 
REMARK  3 active torsions:
REMARK  status: ('A' for Active; 'I' for Inactive)
REMARK    1  A    between atoms: C_2  and  C_4
REMARK    2  A    between atoms: N_8  and  C_9
REMARK    3  A    between atoms: C_9  and  C_10
REMARK                            x       y       z     vdW  Elec       q    Type
REMARK                         _______ _______ _______ _____ _____    ______ ____
ROOT
ATOM      1  C   UNL     1      49.043   4.459  18.052  0.00  0.00    +0.000 A 
ATOM      2  C   UNL     1      48.043   3.489  18.002  0.00  0.00    +0.000 A 
ATOM      3  C   UNL     1      47.185   3.457  16.901  0.00  0.00    +0.000 A 
ATOM      4  C   UNL     1      47.350   4.372  15.862  0.00  0.00    +0.000 A 
ATOM      5  N   UNL     1      46.525   4.228  14.735  0.00  0.00    +0.000 N 
ATOM      6  N   UNL     1      48.296   5.332  15.916  0.00  0.00    +0.000 NA
ATOM      7  C   UNL     1      49.102   5.371  17.011  0.00  0.00    +0.000 A 
ATOM      8  H   UNL     1      45.554   4.272  15.022  0.00  0.00    +0.000 HD
ENDROOT
BRANCH   1  10
ATOM      9  N   UNL     1      49.556   4.387  20.425  0.00  0.00    +0.000 N 
ATOM     10  C   UNL     1      50.029   4.544  19.147  0.00  0.00    +0.000 C 
ATOM     11  O   UNL     1      51.221   4.700  18.930  0.00  0.00    +0.000 OA
ATOM     12  H   UNL     1      50.252   4.324  21.156  0.00  0.00    +0.000 HD
ATOM     13  H   UNL     1      48.642   4.004  20.623  0.00  0.00    +0.000 HD
ENDBRANCH   1  10
BRANCH   5  14
ATOM     14  C   UNL     1      46.853   5.090  13.602  0.00  0.00    +0.000 C 
BRANCH  14  15
ATOM     15  C   UNL     1      45.829   4.897  12.460  0.00  0.00    +0.000 C 
ATOM     16  C   UNL     1      44.649   5.864  12.655  0.00  0.00    +0.000 C 
ATOM     17  C   UNL     1      43.556   5.665  11.607  0.00  0.00    +0.000 C 
ATOM     18  C   UNL     1      43.072   4.221  11.571  0.00  0.00    +0.000 C 
ATOM     19  C   UNL     1      44.231   3.257  11.348  0.00  0.00    +0.000 C 
ATOM     20  C   UNL     1      45.327   3.442  12.394  0.00  0.00    +0.000 C 
ENDBRANCH  14  15
ENDBRANCH   5  14
TORSDOF 3
ENDMDL
MODEL 7
REMARK VINA RESULT:    -5.556      3.433      5.134
REMARK INTER + INTRA:          -6.925
REMARK INTER:                  -6.635
REMARK INTRA:                  -0.290
REMARK UNBOUND:                -0.395
REMARK  Name = 
REMARK  3 active torsions:
REMARK  status: ('A' for Active; 'I' for Inactive)
REMARK    1  A    between atoms: C_2  and  C_4
REMARK    2  A    between atoms: N_8  and  C_9
REMARK    3  A    between atoms: C_9  and  C_10
REMARK                            x       y       z     vdW  Elec       q    Type
REMARK                         _______ _______ _______ _____ _____    ______ ____
ROOT
ATOM      1  C   UNL     1      44.735   3.845  11.599  0.00  0.00    +0.000 A 
ATOM      2  C   UNL     1      45.604   3.692  12.679  0.00  0.00    +0.000 A 
ATOM      3  C   UNL     1      46.191   4.825  13.242  0.00  0.00    +0.000 A 
ATOM      4  C   UNL     1      45.889   6.090  12.738  0.00  0.00    +0.000 A 
ATOM      5  N   UNL     1      46.428   7.200  13.408  0.00  0.00    +0.000 N 
ATOM      6  N   UNL     1      45.073   6.245  11.675  0.00  0.00    +0.000 NA
ATOM      7  C   UNL     1      44.535   5.128  11.116  0.00  0.00    +0.000 A 
ATOM      8  H   UNL     1      47.438   7.120  13.430  0.00  0.00    +0.000 HD
ENDROOT
BRANCH   1  10
ATOM      9  N   UNL     1      44.582   2.190   9.827  0.00  0.00    +0.000 N 
ATOM     10  C   UNL     1      44.028   2.714  10.967  0.00  0.00    +0.000 C 
ATOM     11  O   UNL     1      43.019   2.231  11.458  0.00  0.00    +0.000 OA
ATOM     12  H   UNL     1      44.160   1.342   9.472  0.00  0.00    +0.000 HD
ATOM     13  H   UNL     1      45.532   2.387   9.545  0.00  0.00    +0.000 HD
ENDBRANCH   1  10
BRANCH   5  14
ATOM     14  C   UNL     1      45.942   8.502  12.959  0.00  0.00    +0.000 C 
BRANCH  14  15
ATOM     15  C   UNL     1      47.125   9.466  12.710  0.00  0.00    +0.000 C 
ATOM     16  C   UNL     1      46.691  10.576  11.738  0.00  0.00    +0.000 C 
ATOM     17  C   UNL     1      47.839  11.516  11.379  0.00  0.00    +0.000 C 
ATOM     18  C   UNL     1      49.036  10.752  10.827  0.00  0.00    +0.000 C 
ATOM     19  C   UNL     1      49.493   9.669  11.797  0.00  0.00    +0.000 C 
ATOM     20  C   UNL     1      48.353   8.719  12.157  0.00  0.00    +0.000 C 
ENDBRANCH  14  15
ENDBRANCH   5  14
TORSDOF 3
ENDMDL
MODEL 8
REMARK VINA RESULT:    -5.377      5.162      7.684
REMARK INTER + INTRA:          -6.715
REMARK INTER:                  -6.449
REMARK INTRA:                  -0.266
REMARK UNBOUND:                -0.395
REMARK  Name = 
REMARK  3 active torsions:
REMARK  status: ('A' for Active; 'I' for Inactive)
REMARK    1  A    between atoms: C_2  and  C_4
REMARK    2  A    between atoms: N_8  and  C_9
REMARK    3  A    between atoms: C_9  and  C_10
REMARK                            x       y       z     vdW  Elec       q    Type
REMARK                         _______ _______ _______ _____ _____    ______ ____
ROOT
ATOM      1  C   UNL     1      48.604   4.417  17.381  0.00  0.00    +0.000 A 
ATOM      2  C   UNL     1      48.897   5.611  16.724  0.00  0.00    +0.000 A 
ATOM      3  C   UNL     1      48.214   5.921  15.547  0.00  0.00    +0.000 A 
ATOM      4  C   UNL     1      47.239   5.052  15.057  0.00  0.00    +0.000 A 
ATOM      5  N   UNL     1      46.513   5.464  13.928  0.00  0.00    +0.000 N 
ATOM      6  N   UNL     1      46.971   3.882  15.671  0.00  0.00    +0.000 NA
ATOM      7  C   UNL     1      47.669   3.578  16.797  0.00  0.00    +0.000 A 
ATOM      8  H   UNL     1      47.156   5.653  13.167  0.00  0.00    +0.000 HD
ENDROOT
BRANCH   1  10
ATOM      9  N   UNL     1      48.414   3.515  19.629  0.00  0.00    +0.000 N 
ATOM     10  C   UNL     1      49.236   4.023  18.656  0.00  0.00    +0.000 C 
ATOM     11  O   UNL     1      50.443   4.101  18.827  0.00  0.00    +0.000 OA
ATOM     12  H   UNL     1      48.870   3.135  20.449  0.00  0.00    +0.000 HD
ATOM     13  H   UNL     1      47.473   3.199  19.435  0.00  0.00    +0.000 HD
ENDBRANCH   1  10
BRANCH   5  14
ATOM     14  C   UNL     1      45.387   4.610  13.560  0.00  0.00    +0.000 C 
BRANCH  14  15
ATOM     15  C   UNL     1      44.962   4.872  12.097  0.00  0.00    +0.000 C 
ATOM     16  C   UNL     1      44.617   3.539  11.411  0.00  0.00    +0.000 C 
ATOM     17  C   UNL     1      44.273   3.717   9.935  0.00  0.00    +0.000 C 
ATOM     18  C   UNL     1      45.385   4.438   9.184  0.00  0.00    +0.000 C 
ATOM     19  C   UNL     1      45.714   5.775   9.838  0.00  0.00    +0.000 C 
ATOM     20  C   UNL     1      46.066   5.608  11.314  0.00  0.00    +0.000 C 
ENDBRANCH  14  15
ENDBRANCH   5  14
TORSDOF 3
ENDMDL
MODEL 9
REMARK VINA RESULT:    -5.303      3.776      5.730
REMARK INTER + INTRA:          -6.629
REMARK INTER:                  -6.383
REMARK INTRA:                  -0.246
REMARK UNBOUND:                -0.395
REMARK  Name = 
REMARK  3 active torsions:
REMARK  status: ('A' for Active; 'I' for Inactive)
REMARK    1  A    between atoms: C_2  and  C_4
REMARK    2  A    between atoms: N_8  and  C_9
REMARK    3  A    between atoms: C_9  and  C_10
REMARK                            x       y       z     vdW  Elec       q    Type
REMARK                         _______ _______ _______ _____ _____    ______ ____
ROOT
ATOM      1  C   UNL     1      44.864   4.519  11.521  0.00  0.00    +0.000 A 
ATOM      2  C   UNL     1      45.152   3.945  12.759  0.00  0.00    +0.000 A 
ATOM      3  C   UNL     1      46.100   4.553  13.583  0.00  0.00    +0.000 A 
ATOM      4  C   UNL     1      46.727   5.728  13.174  0.00  0.00    +0.000 A 
ATOM      5  N   UNL     1      47.596   6.350  14.086  0.00  0.00    +0.000 N 
ATOM      6  N   UNL     1      46.477   6.274  11.967  0.00  0.00    +0.000 NA
ATOM      7  C   UNL     1      45.575   5.652  11.161  0.00  0.00    +0.000 A 
ATOM      8  H   UNL     1      48.325   5.698  14.353  0.00  0.00    +0.000 HD
ENDROOT
BRANCH   1  10
ATOM      9  N   UNL     1      43.875   4.426   9.304  0.00  0.00    +0.000 N 
ATOM     10  C   UNL     1      43.843   3.981  10.601  0.00  0.00    +0.000 C 
ATOM     11  O   UNL     1      43.032   3.140  10.960  0.00  0.00    +0.000 OA
ATOM     12  H   UNL     1      43.253   3.962   8.655  0.00  0.00    +0.000 HD
ATOM     13  H   UNL     1      44.673   4.909   8.915  0.00  0.00    +0.000 HD
ENDBRANCH   1  10
BRANCH   5  14
ATOM     14  C   UNL     1      48.088   7.666  13.688  0.00  0.00    +0.000 C 
BRANCH  14  15
ATOM     15  C   UNL     1      49.529   7.563  13.137  0.00  0.00    +0.000 C 
ATOM     16  C   UNL     1      50.434   8.572  13.865  0.00  0.00    +0.000 C 
ATOM     17  C   UNL     1      51.855   8.584  13.308  0.00  0.00    +0.000 C 
ATOM     18  C   UNL     1      51.865   8.835  11.805  0.00  0.00    +0.000 C 
ATOM     19  C   UNL     1      50.995   7.821  11.072  0.00  0.00    +0.000 C 
ATOM     20  C   UNL     1      49.569   7.805  11.616  0.00  0.00    +0.000 C 
ENDBRANCH  14  15
ENDBRANCH   5  14
TORSDOF 3
ENDMDL
