MODEL 1
REMARK VINA RESULT:    -8.739      0.000      0.000
REMARK INTER + INTRA:         -12.202
REMARK INTER:                 -11.293
REMARK INTRA:                  -0.909
REMARK UNBOUND:                -0.909
REMARK  Name = 
REMARK  5 active torsions:
REMARK  status: ('A' for Active; 'I' for Inactive)
REMARK    1  A    between atoms: C_2  and  C_4
REMARK    2  A    between atoms: C_7  and  O_8
REMARK    3  A    between atoms: O_8  and  C_9
REMARK    4  A    between atoms: C_9  and  C_10
REMARK    5  A    between atoms: C_14  and  C_15
REMARK                            x       y       z     vdW  Elec       q    Type
REMARK                         _______ _______ _______ _____ _____    ______ ____
ROOT
ATOM      1  C   UNL     1      43.685   4.372  11.225  0.00  0.00    +0.000 C 
ENDROOT
BRANCH   1   2
ATOM      2  C   UNL     1      44.880   4.814  12.037  0.00  0.00    +0.000 A 
ATOM      3  C   UNL     1      45.527   3.909  12.883  0.00  0.00    +0.000 A 
ATOM      4  C   UNL     1      46.678   4.291  13.564  0.00  0.00    +0.000 A 
ATOM      5  C   UNL     1      47.196   5.579  13.395  0.00  0.00    +0.000 A 
ATOM      6  C   UNL     1      46.591   6.511  12.533  0.00  0.00    +0.000 A 
ATOM      7  C   UNL     1      45.406   6.110  11.885  0.00  0.00    +0.000 A 
BRANCH   6   8
ATOM      8  C   UNL     1      47.225   7.821  12.242  0.00  0.00    +0.000 A 
ATOM      9  C   UNL     1      48.572   7.895  11.825  0.00  0.00    +0.000 A 
ATOM     10  C   UNL     1      49.166   9.109  11.471  0.00  0.00    +0.000 A 
ATOM     11  C   UNL     1      48.417  10.273  11.519  0.00  0.00    +0.000 A 
ATOM     12  F   UNL     1      48.976  11.435  11.152  0.00  0.00    +0.000 F 
ATOM     13  C   UNL     1      47.093  10.248  11.933  0.00  0.00    +0.000 A 
ATOM     14  C   UNL     1      46.505   9.032  12.301  0.00  0.00    +0.000 A 
ENDBRANCH   6   8
ENDBRANCH   1   2
BRANCH   1  15
ATOM     15  O   UNL     1      43.790   4.815   9.869  0.00  0.00    +0.000 OA
BRANCH  15  19
ATOM     16  C   UNL     1      46.445   2.477   7.751  0.00  0.00    +0.000 A 
ATOM     17  C   UNL     1      45.578   1.876   8.666  0.00  0.00    +0.000 A 
ATOM     18  C   UNL     1      44.686   2.675   9.388  0.00  0.00    +0.000 A 
ATOM     19  C   UNL     1      44.694   4.044   9.164  0.00  0.00    +0.000 A 
ATOM     20  N   UNL     1      45.538   4.648   8.297  0.00  0.00    +0.000 NA
ATOM     21  C   UNL     1      46.401   3.856   7.619  0.00  0.00    +0.000 A 
BRANCH  16  23
ATOM     22  N   UNL     1      48.477   2.425   6.425  0.00  0.00    +0.000 N 
ATOM     23  C   UNL     1      47.408   1.729   6.919  0.00  0.00    +0.000 C 
ATOM     24  O   UNL     1      47.286   0.529   6.722  0.00  0.00    +0.000 OA
ATOM     25  H   UNL     1      49.194   1.870   5.972  0.00  0.00    +0.000 HD
ATOM     26  H   UNL     1      48.746   3.328   6.785  0.00  0.00    +0.000 HD
ENDBRANCH  16  23
ENDBRANCH  15  19
ENDBRANCH   1  15
TORSDOF 5
ENDMDL
MODEL 2
REMARK VINA RESULT:    -8.603      2.714      4.110
REMARK INTER + INTRA:         -12.027
REMARK INTER:                 -11.198
REMARK INTRA:                  -0.829
REMARK UNBOUND:                -0.909
REMARK  Name = 
REMARK  5 active torsions:
REMARK  status: ('A' for Active; 'I' for Inactive)
REMARK    1  A    between atoms: C_2  and  C_4
REMARK    2  A    between atoms: C_7  and  O_8
REMARK    3  A    between atoms: O_8  and  C_9
REMARK    4  A    between atoms: C_9  and  C_10
REMARK    5  A    between atoms: C_14  and  C_15
REMARK                            x       y       z     vdW  Elec       q    Type
REMARK                         _______ _______ _______ _____ _____    ______ ____
ROOT
ATOM      1  C   UNL     1      43.925   4.422  11.377  0.00  0.00    +0.000 C 
ENDROOT
BRANCH   1   2
ATOM      2  C   UNL     1      45.114   5.168  11.937  0.00  0.00    +0.000 A 
ATOM      3  C   UNL     1      45.467   6.416  11.418  0.00  0.00    +0.000 A 
ATOM      4  C   UNL     1      46.506   7.141  11.989  0.00  0.00    +0.000 A 
ATOM      5  C   UNL     1      47.194   6.627  13.093  0.00  0.00    +0.000 A 
ATOM      6  C   UNL     1      46.853   5.387  13.664  0.00  0.00    +0.000 A 
ATOM      7  C   UNL     1      45.821   4.658  13.040  0.00  0.00    +0.000 A 
BRANCH   6   8
ATOM      8  C   UNL     1      47.483   4.914  14.921  0.00  0.00    +0.000 A 
ATOM      9  C   UNL     1      48.265   5.786  15.709  0.00  0.00    +0.000 A 
ATOM     10  C   UNL     1      48.803   5.386  16.935  0.00  0.00    +0.000 A 
ATOM     11  C   UNL     1      48.559   4.104  17.399  0.00  0.00    +0.000 A 
ATOM     12  F   UNL     1      49.050   3.726  18.588  0.00  0.00    +0.000 F 
ATOM     13  C   UNL     1      47.805   3.211  16.652  0.00  0.00    +0.000 A 
ATOM     14  C   UNL     1      47.279   3.611  15.418  0.00  0.00    +0.000 A 
ENDBRANCH   6   8
ENDBRANCH   1   2
BRANCH   1  15
ATOM     15  O   UNL     1      43.764   4.680   9.980  0.00  0.00    +0.000 OA
BRANCH  15  19
ATOM     16  C   UNL     1      46.387   2.427   7.734  0.00  0.00    +0.000 A 
ATOM     17  C   UNL     1      45.604   1.804   8.707  0.00  0.00    +0.000 A 
ATOM     18  C   UNL     1      44.722   2.574   9.471  0.00  0.00    +0.000 A 
ATOM     19  C   UNL     1      44.658   3.939   9.231  0.00  0.00    +0.000 A 
ATOM     20  N   UNL     1      45.421   4.565   8.307  0.00  0.00    +0.000 NA
ATOM     21  C   UNL     1      46.276   3.801   7.589  0.00  0.00    +0.000 A 
BRANCH  16  23
ATOM     22  N   UNL     1      48.428   2.401   6.420  0.00  0.00    +0.000 N 
ATOM     23  C   UNL     1      47.331   1.709   6.855  0.00  0.00    +0.000 C 
ATOM     24  O   UNL     1      47.169   0.532   6.569  0.00  0.00    +0.000 OA
ATOM     25  H   UNL     1      49.129   1.856   5.932  0.00  0.00    +0.000 HD
ATOM     26  H   UNL     1      48.724   3.264   6.847  0.00  0.00    +0.000 HD
ENDBRANCH  16  23
ENDBRANCH  15  19
ENDBRANCH   1  15
TORSDOF 5
ENDMDL
MODEL 3
REMARK VINA RESULT:    -8.169      1.795      2.437
REMARK INTER + INTRA:         -11.467
REMARK INTER:                 -10.625
REMARK INTRA:                  -0.842
REMARK UNBOUND:                -0.909
REMARK  Name = 
REMARK  5 active torsions:
REMARK  status: ('A' for Active; 'I' for Inactive)
REMARK    1  A    between atoms: C_2  and  C_4
REMARK    2  A    between atoms: C_7  and  O_8
REMARK    3  A    between atoms: O_8  and  C_9
REMARK    4  A    between atoms: C_9  and  C_10
REMARK    5  A    between atoms: C_14  and  C_15
REMARK                            x       y       z     vdW  Elec       q    Type
REMARK                         _______ _______ _______ _____ _____    ______ ____
ROOT
ATOM      1  C   UNL     1      44.231   3.548  11.622  0.00  0.00    +0.000 C 
ENDROOT
BRANCH   1   2
ATOM      2  C   UNL     1      44.651   4.999  11.633  0.00  0.00    +0.000 A 
ATOM      3  C   UNL     1      43.700   6.007  11.461  0.00  0.00    +0.000 A 
ATOM      4  C   UNL     1      44.073   7.343  11.558  0.00  0.00    +0.000 A 
ATOM      5  C   UNL     1      45.401   7.680  11.838  0.00  0.00    +0.000 A 
ATOM      6  C   UNL     1      46.385   6.696  12.045  0.00  0.00    +0.000 A 
ATOM      7  C   UNL     1      45.986   5.352  11.903  0.00  0.00    +0.000 A 
BRANCH   6   8
ATOM      8  C   UNL     1      47.755   7.053  12.488  0.00  0.00    +0.000 A 
ATOM      9  C   UNL     1      48.669   7.653  11.595  0.00  0.00    +0.000 A 
ATOM     10  C   UNL     1      49.937   8.068  12.009  0.00  0.00    +0.000 A 
ATOM     11  C   UNL     1      50.310   7.898  13.333  0.00  0.00    +0.000 A 
ATOM     12  F   UNL     1      51.515   8.322  13.740  0.00  0.00    +0.000 F 
ATOM     13  C   UNL     1      49.447   7.304  14.242  0.00  0.00    +0.000 A 
ATOM     14  C   UNL     1      48.183   6.876  13.820  0.00  0.00    +0.000 A 
ENDBRANCH   6   8
ENDBRANCH   1   2
BRANCH   1  15
ATOM     15  O   UNL     1      43.599   3.203  10.386  0.00  0.00    +0.000 OA
BRANCH  15  19
ATOM     16  C   UNL     1      46.418   2.608   7.437  0.00  0.00    +0.000 A 
ATOM     17  C   UNL     1      45.794   3.852   7.550  0.00  0.00    +0.000 A 
ATOM     18  C   UNL     1      44.833   4.045   8.547  0.00  0.00    +0.000 A 
ATOM     19  C   UNL     1      44.534   2.987   9.392  0.00  0.00    +0.000 A 
ATOM     20  N   UNL     1      45.113   1.769   9.287  0.00  0.00    +0.000 NA
ATOM     21  C   UNL     1      46.031   1.602   8.307  0.00  0.00    +0.000 A 
BRANCH  16  23
ATOM     22  N   UNL     1      47.478   3.058   5.300  0.00  0.00    +0.000 N 
ATOM     23  C   UNL     1      47.463   2.302   6.440  0.00  0.00    +0.000 C 
ATOM     24  O   UNL     1      48.310   1.445   6.644  0.00  0.00    +0.000 OA
ATOM     25  H   UNL     1      48.278   2.926   4.692  0.00  0.00    +0.000 HD
ATOM     26  H   UNL     1      46.977   3.929   5.224  0.00  0.00    +0.000 HD
ENDBRANCH  16  23
ENDBRANCH  15  19
ENDBRANCH   1  15
TORSDOF 5
ENDMDL
MODEL 4
REMARK VINA RESULT:    -7.993      3.774      6.818
REMARK INTER + INTRA:         -11.238
REMARK INTER:                 -10.299
REMARK INTRA:                  -0.940
REMARK UNBOUND:                -0.909
REMARK  Name = 
REMARK  5 active torsions:
REMARK  status: ('A' for Active; 'I' for Inactive)
REMARK    1  A    between atoms: C_2  and  C_4
REMARK    2  A    between atoms: C_7  and  O_8
REMARK    3  A    between atoms: O_8  and  C_9
REMARK    4  A    between atoms: C_9  and  C_10
REMARK    5  A    between atoms: C_14  and  C_15
REMARK                            x       y       z     vdW  Elec       q    Type
REMARK                         _______ _______ _______ _____ _____    ______ ____
ROOT
ATOM      1  C   UNL     1      43.793   6.289  11.546  0.00  0.00    +0.000 C 
ENDROOT
BRANCH   1   2
ATOM      2  C   UNL     1      43.966   4.835  11.171  0.00  0.00    +0.000 A 
ATOM      3  C   UNL     1      43.213   3.850  11.815  0.00  0.00    +0.000 A 
ATOM      4  C   UNL     1      43.309   2.523  11.411  0.00  0.00    +0.000 A 
ATOM      5  C   UNL     1      44.152   2.173  10.352  0.00  0.00    +0.000 A 
ATOM      6  C   UNL     1      44.907   3.137   9.659  0.00  0.00    +0.000 A 
ATOM      7  C   UNL     1      44.819   4.468  10.114  0.00  0.00    +0.000 A 
BRANCH   6   8
ATOM      8  C   UNL     1      45.683   2.786   8.444  0.00  0.00    +0.000 A 
ATOM      9  C   UNL     1      45.966   3.760   7.462  0.00  0.00    +0.000 A 
ATOM     10  C   UNL     1      46.760   3.473   6.349  0.00  0.00    +0.000 A 
ATOM     11  C   UNL     1      47.295   2.203   6.204  0.00  0.00    +0.000 A 
ATOM     12  F   UNL     1      48.081   1.932   5.152  0.00  0.00    +0.000 F 
ATOM     13  C   UNL     1      47.033   1.213   7.140  0.00  0.00    +0.000 A 
ATOM     14  C   UNL     1      46.225   1.500   8.246  0.00  0.00    +0.000 A 
ENDBRANCH   6   8
ENDBRANCH   1   2
BRANCH   1  15
ATOM     15  O   UNL     1      44.391   6.570  12.814  0.00  0.00    +0.000 OA
BRANCH  15  19
ATOM     16  C   UNL     1      48.408   7.419  12.437  0.00  0.00    +0.000 A 
ATOM     17  C   UNL     1      47.465   8.358  12.016  0.00  0.00    +0.000 A 
ATOM     18  C   UNL     1      46.104   8.061  12.139  0.00  0.00    +0.000 A 
ATOM     19  C   UNL     1      45.740   6.836  12.679  0.00  0.00    +0.000 A 
ATOM     20  N   UNL     1      46.638   5.905  13.075  0.00  0.00    +0.000 NA
ATOM     21  C   UNL     1      47.949   6.210  12.935  0.00  0.00    +0.000 A 
BRANCH  16  23
ATOM     22  N   UNL     1      50.543   7.664  13.566  0.00  0.00    +0.000 N 
ATOM     23  C   UNL     1      49.867   7.637  12.377  0.00  0.00    +0.000 C 
ATOM     24  O   UNL     1      50.456   7.738  11.311  0.00  0.00    +0.000 OA
ATOM     25  H   UNL     1      51.554   7.679  13.500  0.00  0.00    +0.000 HD
ATOM     26  H   UNL     1      50.138   7.321  14.424  0.00  0.00    +0.000 HD
ENDBRANCH  16  23
ENDBRANCH  15  19
ENDBRANCH   1  15
TORSDOF 5
ENDMDL
MODEL 5
REMARK VINA RESULT:    -7.766      5.186      8.334
REMARK INTER + INTRA:         -10.945
REMARK INTER:                 -10.273
REMARK INTRA:                  -0.672
REMARK UNBOUND:                -0.909
REMARK  Name = 
REMARK  5 active torsions:
REMARK  status: ('A' for Active; 'I' for Inactive)
REMARK    1  A    between atoms: C_2  and  C_4
REMARK    2  A    between atoms: C_7  and  O_8
REMARK    3  A    between atoms: O_8  and  C_9
REMARK    4  A    between atoms: C_9  and  C_10
REMARK    5  A    between atoms: C_14  and  C_15
REMARK                            x       y       z     vdW  Elec       q    Type
REMARK                         _______ _______ _______ _____ _____    ______ ____
ROOT
ATOM      1  C   UNL     1      46.015   5.193  13.995  0.00  0.00    +0.000 C 
ENDROOT
BRANCH   1   2
ATOM      2  C   UNL     1      45.098   4.932  12.823  0.00  0.00    +0.000 A 
ATOM      3  C   UNL     1      43.806   5.463  12.810  0.00  0.00    +0.000 A 
ATOM      4  C   UNL     1      42.993   5.295  11.694  0.00  0.00    +0.000 A 
ATOM      5  C   UNL     1      43.471   4.602  10.578  0.00  0.00    +0.000 A 
ATOM      6  C   UNL     1      44.775   4.075  10.539  0.00  0.00    +0.000 A 
ATOM      7  C   UNL     1      45.562   4.227  11.697  0.00  0.00    +0.000 A 
BRANCH   6   8
ATOM      8  C   UNL     1      45.330   3.473   9.301  0.00  0.00    +0.000 A 
ATOM      9  C   UNL     1      45.813   4.289   8.255  0.00  0.00    +0.000 A 
ATOM     10  C   UNL     1      46.410   3.745   7.115  0.00  0.00    +0.000 A 
ATOM     11  C   UNL     1      46.543   2.370   7.006  0.00  0.00    +0.000 A 
ATOM     12  F   UNL     1      47.141   1.847   5.927  0.00  0.00    +0.000 F 
ATOM     13  C   UNL     1      46.072   1.531   8.005  0.00  0.00    +0.000 A 
ATOM     14  C   UNL     1      45.461   2.078   9.140  0.00  0.00    +0.000 A 
ENDBRANCH   6   8
ENDBRANCH   1   2
BRANCH   1  15
ATOM     15  O   UNL     1      46.513   3.970  14.543  0.00  0.00    +0.000 OA
BRANCH  15  19
ATOM     16  C   UNL     1      48.310   4.668  18.188  0.00  0.00    +0.000 A 
ATOM     17  C   UNL     1      48.631   5.477  17.097  0.00  0.00    +0.000 A 
ATOM     18  C   UNL     1      48.025   5.231  15.861  0.00  0.00    +0.000 A 
ATOM     19  C   UNL     1      47.120   4.184  15.766  0.00  0.00    +0.000 A 
ATOM     20  N   UNL     1      46.810   3.376  16.805  0.00  0.00    +0.000 NA
ATOM     21  C   UNL     1      47.418   3.626  17.987  0.00  0.00    +0.000 A 
BRANCH  16  23
ATOM     22  N   UNL     1      48.631   3.864  20.456  0.00  0.00    +0.000 N 
ATOM     23  C   UNL     1      48.870   4.853  19.541  0.00  0.00    +0.000 C 
ATOM     24  O   UNL     1      49.561   5.822  19.820  0.00  0.00    +0.000 OA
ATOM     25  H   UNL     1      49.132   3.943  21.333  0.00  0.00    +0.000 HD
ATOM     26  H   UNL     1      48.305   2.949  20.187  0.00  0.00    +0.000 HD
ENDBRANCH  16  23
ENDBRANCH  15  19
ENDBRANCH   1  15
TORSDOF 5
ENDMDL
MODEL 6
REMARK VINA RESULT:    -6.780      5.237      8.363
REMARK INTER + INTRA:          -9.671
REMARK INTER:                  -8.832
REMARK INTRA:                  -0.839
REMARK UNBOUND:                -0.909
REMARK  Name = 
REMARK  5 active torsions:
REMARK  status: ('A' for Active; 'I' for Inactive)
REMARK    1  A    between atoms: C_2  and  C_4
REMARK    2  A    between atoms: C_7  and  O_8
REMARK    3  A    between atoms: O_8  and  C_9
REMARK    4  A    between atoms: C_9  and  C_10
REMARK    5  A    between atoms: C_14  and  C_15
REMARK                            x       y       z     vdW  Elec       q    Type
REMARK                         _______ _______ _______ _____ _____    ______ ____
ROOT
ATOM      1  C   UNL     1      48.414   7.607  13.994  0.00  0.00    +0.000 C 
ENDROOT
BRANCH   1   2
ATOM      2  C   UNL     1      47.134   7.625  13.192  0.00  0.00    +0.000 A 
ATOM      3  C   UNL     1      46.439   8.822  13.006  0.00  0.00    +0.000 A 
ATOM      4  C   UNL     1      45.308   8.854  12.197  0.00  0.00    +0.000 A 
ATOM      5  C   UNL     1      44.871   7.689  11.559  0.00  0.00    +0.000 A 
ATOM      6  C   UNL     1      45.558   6.469  11.697  0.00  0.00    +0.000 A 
ATOM      7  C   UNL     1      46.677   6.458  12.553  0.00  0.00    +0.000 A 
BRANCH   6   8
ATOM      8  C   UNL     1      45.180   5.274  10.903  0.00  0.00    +0.000 A 
ATOM      9  C   UNL     1      45.546   5.166   9.543  0.00  0.00    +0.000 A 
ATOM     10  C   UNL     1      45.269   4.017   8.797  0.00  0.00    +0.000 A 
ATOM     11  C   UNL     1      44.628   2.949   9.404  0.00  0.00    +0.000 A 
ATOM     12  F   UNL     1      44.387   1.835   8.699  0.00  0.00    +0.000 F 
ATOM     13  C   UNL     1      44.242   3.017  10.735  0.00  0.00    +0.000 A 
ATOM     14  C   UNL     1      44.507   4.175  11.475  0.00  0.00    +0.000 A 
ENDBRANCH   6   8
ENDBRANCH   1   2
BRANCH   1  15
ATOM     15  O   UNL     1      48.813   6.268  14.301  0.00  0.00    +0.000 OA
BRANCH  15  19
ATOM     16  C   UNL     1      48.312   5.517  18.324  0.00  0.00    +0.000 A 
ATOM     17  C   UNL     1      48.926   6.703  17.918  0.00  0.00    +0.000 A 
ATOM     18  C   UNL     1      49.101   6.948  16.552  0.00  0.00    +0.000 A 
ATOM     19  C   UNL     1      48.652   5.998  15.647  0.00  0.00    +0.000 A 
ATOM     20  N   UNL     1      48.073   4.834  16.021  0.00  0.00    +0.000 NA
ATOM     21  C   UNL     1      47.926   4.613  17.347  0.00  0.00    +0.000 A 
BRANCH  16  23
ATOM     22  N   UNL     1      48.561   3.979  20.186  0.00  0.00    +0.000 N 
ATOM     23  C   UNL     1      48.055   5.167  19.735  0.00  0.00    +0.000 C 
ATOM     24  O   UNL     1      47.460   5.928  20.485  0.00  0.00    +0.000 OA
ATOM     25  H   UNL     1      48.492   3.819  21.184  0.00  0.00    +0.000 HD
ATOM     26  H   UNL     1      49.270   3.469  19.681  0.00  0.00    +0.000 HD
ENDBRANCH  16  23
ENDBRANCH  15  19
ENDBRANCH   1  15
TORSDOF 5
ENDMDL
MODEL 7
REMARK VINA RESULT:    -6.665      5.855      8.152
REMARK INTER + INTRA:          -9.522
REMARK INTER:                  -8.629
REMARK INTRA:                  -0.893
REMARK UNBOUND:                -0.909
REMARK  Name = 
REMARK  5 active torsions:
REMARK  status: ('A' for Active; 'I' for Inactive)
REMARK    1  A    between atoms: C_2  and  C_4
REMARK    2  A    between atoms: C_7  and  O_8
REMARK    3  A    between atoms: O_8  and  C_9
REMARK    4  A    between atoms: C_9  and  C_10
REMARK    5  A    between atoms: C_14  and  C_15
REMARK                            x       y       z     vdW  Elec       q    Type
REMARK                         _______ _______ _______ _____ _____    ______ ____
ROOT
ATOM      1  C   UNL     1      49.306   6.765  16.316  0.00  0.00    +0.000 C 
ENDROOT
BRANCH   1   2
ATOM      2  C   UNL     1      48.941   6.929  14.858  0.00  0.00    +0.000 A 
ATOM      3  C   UNL     1      49.771   7.660  14.005  0.00  0.00    +0.000 A 
ATOM      4  C   UNL     1      49.482   7.739  12.647  0.00  0.00    +0.000 A 
ATOM      5  C   UNL     1      48.364   7.076  12.132  0.00  0.00    +0.000 A 
ATOM      6  C   UNL     1      47.517   6.307  12.951  0.00  0.00    +0.000 A 
ATOM      7  C   UNL     1      47.814   6.277  14.328  0.00  0.00    +0.000 A 
BRANCH   6   8
ATOM      8  C   UNL     1      46.421   5.486  12.378  0.00  0.00    +0.000 A 
ATOM      9  C   UNL     1      46.035   4.272  12.986  0.00  0.00    +0.000 A 
ATOM     10  C   UNL     1      44.956   3.523  12.511  0.00  0.00    +0.000 A 
ATOM     11  C   UNL     1      44.237   3.982  11.420  0.00  0.00    +0.000 A 
ATOM     12  F   UNL     1      43.183   3.280  10.979  0.00  0.00    +0.000 F 
ATOM     13  C   UNL     1      44.588   5.164  10.785  0.00  0.00    +0.000 A 
ATOM     14  C   UNL     1      45.679   5.906  11.255  0.00  0.00    +0.000 A 
ENDBRANCH   6   8
ENDBRANCH   1   2
BRANCH   1  15
ATOM     15  O   UNL     1      48.652   5.629  16.887  0.00  0.00    +0.000 OA
BRANCH  15  19
ATOM     16  C   UNL     1      51.322   2.551  17.518  0.00  0.00    +0.000 A 
ATOM     17  C   UNL     1      51.739   3.871  17.700  0.00  0.00    +0.000 A 
ATOM     18  C   UNL     1      50.831   4.911  17.476  0.00  0.00    +0.000 A 
ATOM     19  C   UNL     1      49.541   4.589  17.081  0.00  0.00    +0.000 A 
ATOM     20  N   UNL     1      49.123   3.319  16.881  0.00  0.00    +0.000 NA
ATOM     21  C   UNL     1      50.023   2.330  17.091  0.00  0.00    +0.000 A 
BRANCH  16  23
ATOM     22  N   UNL     1      51.574   0.216  18.132  0.00  0.00    +0.000 N 
ATOM     23  C   UNL     1      52.187   1.378  17.750  0.00  0.00    +0.000 C 
ATOM     24  O   UNL     1      53.394   1.425  17.559  0.00  0.00    +0.000 OA
ATOM     25  H   UNL     1      52.163  -0.608  18.155  0.00  0.00    +0.000 HD
ATOM     26  H   UNL     1      50.580   0.075  18.036  0.00  0.00    +0.000 HD
ENDBRANCH  16  23
ENDBRANCH  15  19
ENDBRANCH   1  15
TORSDOF 5
ENDMDL
MODEL 8
REMARK VINA RESULT:    -6.025      4.823      6.867
REMARK INTER + INTRA:          -8.695
REMARK INTER:                  -7.744
REMARK INTRA:                  -0.951
REMARK UNBOUND:                -0.909
REMARK  Name = 
REMARK  5 active torsions:
REMARK  status: ('A' for Active; 'I' for Inactive)
REMARK    1  A    between atoms: C_2  and  C_4
REMARK    2  A    between atoms: C_7  and  O_8
REMARK    3  A    between atoms: O_8  and  C_9
REMARK    4  A    between atoms: C_9  and  C_10
REMARK    5  A    between atoms: C_14  and  C_15
REMARK                            x       y       z     vdW  Elec       q    Type
REMARK                         _______ _______ _______ _____ _____    ______ ____
ROOT
ATOM      1  C   UNL     1      46.788   3.944  13.840  0.00  0.00    +0.000 C 
ENDROOT
BRANCH   1   2
ATOM      2  C   UNL     1      46.513   5.267  13.164  0.00  0.00    +0.000 A 
ATOM      3  C   UNL     1      45.209   5.762  13.096  0.00  0.00    +0.000 A 
ATOM      4  C   UNL     1      44.967   7.018  12.550  0.00  0.00    +0.000 A 
ATOM      5  C   UNL     1      46.031   7.792  12.077  0.00  0.00    +0.000 A 
ATOM      6  C   UNL     1      47.362   7.343  12.151  0.00  0.00    +0.000 A 
ATOM      7  C   UNL     1      47.573   6.051  12.674  0.00  0.00    +0.000 A 
BRANCH   6   8
ATOM      8  C   UNL     1      48.498   8.225  11.788  0.00  0.00    +0.000 A 
ATOM      9  C   UNL     1      48.329   9.624  11.707  0.00  0.00    +0.000 A 
ATOM     10  C   UNL     1      49.401  10.480  11.443  0.00  0.00    +0.000 A 
ATOM     11  C   UNL     1      50.668   9.948  11.263  0.00  0.00    +0.000 A 
ATOM     12  F   UNL     1      51.704  10.769  11.038  0.00  0.00    +0.000 F 
ATOM     13  C   UNL     1      50.877   8.578  11.323  0.00  0.00    +0.000 A 
ATOM     14  C   UNL     1      49.798   7.723  11.574  0.00  0.00    +0.000 A 
ENDBRANCH   6   8
ENDBRANCH   1   2
BRANCH   1  15
ATOM     15  O   UNL     1      46.502   4.011  15.240  0.00  0.00    +0.000 OA
BRANCH  15  19
ATOM     16  C   UNL     1      49.944   3.976  17.509  0.00  0.00    +0.000 A 
ATOM     17  C   UNL     1      49.322   5.192  17.224  0.00  0.00    +0.000 A 
ATOM     18  C   UNL     1      48.159   5.198  16.447  0.00  0.00    +0.000 A 
ATOM     19  C   UNL     1      47.664   3.987  15.987  0.00  0.00    +0.000 A 
ATOM     20  N   UNL     1      48.263   2.800  16.236  0.00  0.00    +0.000 NA
ATOM     21  C   UNL     1      49.393   2.820  16.979  0.00  0.00    +0.000 A 
BRANCH  16  23
ATOM     22  N   UNL     1      51.072   4.265  19.639  0.00  0.00    +0.000 N 
ATOM     23  C   UNL     1      51.159   3.850  18.339  0.00  0.00    +0.000 C 
ATOM     24  O   UNL     1      52.184   3.348  17.900  0.00  0.00    +0.000 OA
ATOM     25  H   UNL     1      51.868   4.048  20.227  0.00  0.00    +0.000 HD
ATOM     26  H   UNL     1      50.188   4.425  20.096  0.00  0.00    +0.000 HD
ENDBRANCH  16  23
ENDBRANCH  15  19
ENDBRANCH   1  15
TORSDOF 5
ENDMDL
