MODEL 1
REMARK VINA RESULT:    -8.801      0.000      0.000
REMARK INTER + INTRA:         -13.531
REMARK INTER:                 -12.403
REMARK INTRA:                  -1.129
REMARK UNBOUND:                -1.129
REMARK  Name = 
REMARK  8 active torsions:
REMARK  status: ('A' for Active; 'I' for Inactive)
REMARK    1  A    between atoms: C_1  and  C_2
REMARK    2  A    between atoms: C_2  and  N_3
REMARK    3  A    between atoms: C_2  and  C_25
REMARK    4  A    between atoms: N_3  and  C_4
REMARK    5  A    between atoms: C_4  and  C_5
REMARK    6  A    between atoms: C_9  and  C_10
REMARK    7  A    between atoms: C_10  and  N_11
REMARK    8  A    between atoms: C_12  and  C_14
REMARK                            x       y       z     vdW  Elec       q    Type
REMARK                         _______ _______ _______ _____ _____    ______ ____
ROOT
ATOM      1  C   UNL     1      45.357   5.704  11.606  0.00  0.00    +0.000 A 
ATOM      2  C   UNL     1      46.389   6.574  11.268  0.00  0.00    +0.000 A 
ATOM      3  C   UNL     1      47.467   6.708  12.141  0.00  0.00    +0.000 A 
ATOM      4  C   UNL     1      47.492   5.973  13.321  0.00  0.00    +0.000 A 
ATOM      5  C   UNL     1      46.421   5.139  13.609  0.00  0.00    +0.000 A 
ATOM      6  N   UNL     1      45.368   4.995  12.765  0.00  0.00    +0.000 NA
ENDROOT
BRANCH   1   7
ATOM      7  C   UNL     1      44.195   5.486  10.638  0.00  0.00    +0.000 C 
BRANCH   7   8
ATOM      8  N   UNL     1      44.625   4.789   9.428  0.00  0.00    +0.000 NA
ATOM      9  H   UNL     1      45.291   5.392   8.952  0.00  0.00    +0.000 HD
BRANCH   8  11
ATOM     10  C   UNL     1      44.096   2.504  10.222  0.00  0.00    +0.000 C 
ATOM     11  C   UNL     1      45.138   3.430   9.579  0.00  0.00    +0.000 C 
BRANCH  11  12
ATOM     12  C   UNL     1      45.584   2.884   8.180  0.00  0.00    +0.000 C 
ATOM     13  C   UNL     1      46.312   1.525   8.303  0.00  0.00    +0.000 C 
ATOM     14  C   UNL     1      46.849   1.012   6.969  0.00  0.00    +0.000 C 
ATOM     15  C   UNL     1      47.738   2.051   6.298  0.00  0.00    +0.000 C 
ATOM     16  C   UNL     1      46.974   3.349   6.079  0.00  0.00    +0.000 C 
ATOM     17  C   UNL     1      46.433   3.906   7.392  0.00  0.00    +0.000 C 
ENDBRANCH  11  12
ENDBRANCH   8  11
ENDBRANCH   7   8
ENDBRANCH   1   7
BRANCH   5  18
ATOM     18  C   UNL     1      46.400   4.327  14.880  0.00  0.00    +0.000 C 
BRANCH  18  19
ATOM     19  N   UNL     1      47.651   4.406  15.595  0.00  0.00    +0.000 N 
ATOM     20  C   UNL     1      47.741   4.403  16.961  0.00  0.00    +0.000 C 
ATOM     21  O   UNL     1      46.753   4.328  17.685  0.00  0.00    +0.000 OA
ATOM     22  H   UNL     1      48.436   4.732  15.040  0.00  0.00    +0.000 HD
BRANCH  20  23
ATOM     23  C   UNL     1      49.105   4.403  17.510  0.00  0.00    +0.000 A 
ATOM     24  C   UNL     1      49.569   5.507  18.212  0.00  0.00    +0.000 A 
ATOM     25  S   UNL     1      51.136   5.302  18.857  0.00  0.00    +0.000 S 
ATOM     26  C   UNL     1      51.270   3.748  18.173  0.00  0.00    +0.000 A 
ATOM     27  N   UNL     1      52.400   3.006  18.341  0.00  0.00    +0.000 NA
ATOM     28  C   UNL     1      52.377   1.860  17.746  0.00  0.00    +0.000 A 
ATOM     29  N   UNL     1      51.327   1.388  17.004  0.00  0.00    +0.000 N 
ATOM     30  C   UNL     1      50.156   2.086  16.839  0.00  0.00    +0.000 A 
ATOM     31  O   UNL     1      49.217   1.608  16.214  0.00  0.00    +0.000 OA
ATOM     32  C   UNL     1      50.133   3.387  17.476  0.00  0.00    +0.000 A 
ATOM     33  H   UNL     1      51.362   0.476  16.569  0.00  0.00    +0.000 HD
ENDBRANCH  20  23
ENDBRANCH  18  19
ENDBRANCH   5  18
TORSDOF 7
ENDMDL
MODEL 2
REMARK VINA RESULT:    -7.660      2.195      3.010
REMARK INTER + INTRA:         -11.923
REMARK INTER:                 -10.789
REMARK INTRA:                  -1.135
REMARK UNBOUND:                -1.129
REMARK  Name = 
REMARK  8 active torsions:
REMARK  status: ('A' for Active; 'I' for Inactive)
REMARK    1  A    between atoms: C_1  and  C_2
REMARK    2  A    between atoms: C_2  and  N_3
REMARK    3  A    between atoms: C_2  and  C_25
REMARK    4  A    between atoms: N_3  and  C_4
REMARK    5  A    between atoms: C_4  and  C_5
REMARK    6  A    between atoms: C_9  and  C_10
REMARK    7  A    between atoms: C_10  and  N_11
REMARK    8  A    between atoms: C_12  and  C_14
REMARK                            x       y       z     vdW  Elec       q    Type
REMARK                         _______ _______ _______ _____ _____    ______ ____
ROOT
ATOM      1  C   UNL     1      44.950   7.155  11.779  0.00  0.00    +0.000 A 
ATOM      2  C   UNL     1      44.550   8.487  11.756  0.00  0.00    +0.000 A 
ATOM      3  C   UNL     1      45.518   9.482  11.878  0.00  0.00    +0.000 A 
ATOM      4  C   UNL     1      46.855   9.127  12.014  0.00  0.00    +0.000 A 
ATOM      5  C   UNL     1      47.186   7.779  12.052  0.00  0.00    +0.000 A 
ATOM      6  N   UNL     1      46.253   6.802  11.928  0.00  0.00    +0.000 NA
ENDROOT
BRANCH   1   7
ATOM      7  C   UNL     1      43.919   6.046  11.580  0.00  0.00    +0.000 C 
BRANCH   7   8
ATOM      8  N   UNL     1      44.148   5.313  10.337  0.00  0.00    +0.000 NA
ATOM      9  H   UNL     1      44.758   5.885   9.757  0.00  0.00    +0.000 HD
BRANCH   8  11
ATOM     10  C   UNL     1      43.582   3.019  11.077  0.00  0.00    +0.000 C 
ATOM     11  C   UNL     1      44.634   3.940  10.443  0.00  0.00    +0.000 C 
BRANCH  11  12
ATOM     12  C   UNL     1      45.046   3.423   9.022  0.00  0.00    +0.000 C 
ATOM     13  C   UNL     1      45.648   2.000   9.085  0.00  0.00    +0.000 C 
ATOM     14  C   UNL     1      46.153   1.504   7.733  0.00  0.00    +0.000 C 
ATOM     15  C   UNL     1      47.140   2.489   7.120  0.00  0.00    +0.000 C 
ATOM     16  C   UNL     1      46.499   3.860   6.958  0.00  0.00    +0.000 C 
ATOM     17  C   UNL     1      45.994   4.401   8.292  0.00  0.00    +0.000 C 
ENDBRANCH  11  12
ENDBRANCH   8  11
ENDBRANCH   7   8
ENDBRANCH   1   7
BRANCH   5  18
ATOM     18  C   UNL     1      48.622   7.345  12.205  0.00  0.00    +0.000 C 
BRANCH  18  19
ATOM     19  N   UNL     1      48.857   6.679  13.463  0.00  0.00    +0.000 N 
ATOM     20  C   UNL     1      48.944   7.336  14.661  0.00  0.00    +0.000 C 
ATOM     21  O   UNL     1      48.823   8.554  14.753  0.00  0.00    +0.000 OA
ATOM     22  H   UNL     1      49.220   5.735  13.381  0.00  0.00    +0.000 HD
BRANCH  20  23
ATOM     23  C   UNL     1      49.102   6.482  15.847  0.00  0.00    +0.000 A 
ATOM     24  C   UNL     1      50.064   6.789  16.799  0.00  0.00    +0.000 A 
ATOM     25  S   UNL     1      50.049   5.749  18.152  0.00  0.00    +0.000 S 
ATOM     26  C   UNL     1      48.788   4.817  17.486  0.00  0.00    +0.000 A 
ATOM     27  N   UNL     1      48.293   3.736  18.150  0.00  0.00    +0.000 NA
ATOM     28  C   UNL     1      47.359   3.106  17.519  0.00  0.00    +0.000 A 
ATOM     29  N   UNL     1      46.874   3.461  16.287  0.00  0.00    +0.000 N 
ATOM     30  C   UNL     1      47.319   4.563  15.600  0.00  0.00    +0.000 A 
ATOM     31  O   UNL     1      46.822   4.881  14.525  0.00  0.00    +0.000 OA
ATOM     32  C   UNL     1      48.378   5.300  16.259  0.00  0.00    +0.000 A 
ATOM     33  H   UNL     1      46.134   2.934  15.845  0.00  0.00    +0.000 HD
ENDBRANCH  20  23
ENDBRANCH  18  19
ENDBRANCH   5  18
TORSDOF 7
ENDMDL
MODEL 3
REMARK VINA RESULT:    -7.637      2.329      2.730
REMARK INTER + INTRA:         -11.890
REMARK INTER:                 -11.170
REMARK INTRA:                  -0.720
REMARK UNBOUND:                -1.129
REMARK  Name = 
REMARK  8 active torsions:
REMARK  status: ('A' for Active; 'I' for Inactive)
REMARK    1  A    between atoms: C_1  and  C_2
REMARK    2  A    between atoms: C_2  and  N_3
REMARK    3  A    between atoms: C_2  and  C_25
REMARK    4  A    between atoms: N_3  and  C_4
REMARK    5  A    between atoms: C_4  and  C_5
REMARK    6  A    between atoms: C_9  and  C_10
REMARK    7  A    between atoms: C_10  and  N_11
REMARK    8  A    between atoms: C_12  and  C_14
REMARK                            x       y       z     vdW  Elec       q    Type
REMARK                         _______ _______ _______ _____ _____    ______ ____
ROOT
ATOM      1  C   UNL     1      44.477   6.578  11.817  0.00  0.00    +0.000 A 
ATOM      2  C   UNL     1      44.700   7.941  11.657  0.00  0.00    +0.000 A 
ATOM      3  C   UNL     1      45.883   8.491  12.146  0.00  0.00    +0.000 A 
ATOM      4  C   UNL     1      46.813   7.672  12.777  0.00  0.00    +0.000 A 
ATOM      5  C   UNL     1      46.520   6.323  12.924  0.00  0.00    +0.000 A 
ATOM      6  N   UNL     1      45.374   5.775  12.446  0.00  0.00    +0.000 NA
ENDROOT
BRANCH   1   7
ATOM      7  C   UNL     1      43.221   5.936  11.232  0.00  0.00    +0.000 C 
BRANCH   7   8
ATOM      8  N   UNL     1      43.532   5.093  10.079  0.00  0.00    +0.000 NA
ATOM      9  H   UNL     1      43.935   5.695   9.365  0.00  0.00    +0.000 HD
BRANCH   8  11
ATOM     10  C   UNL     1      43.580   2.836  11.095  0.00  0.00    +0.000 C 
ATOM     11  C   UNL     1      44.353   3.908  10.313  0.00  0.00    +0.000 C 
BRANCH  11  12
ATOM     12  C   UNL     1      44.856   3.345   8.940  0.00  0.00    +0.000 C 
ATOM     13  C   UNL     1      45.506   1.950   9.099  0.00  0.00    +0.000 C 
ATOM     14  C   UNL     1      46.097   1.415   7.797  0.00  0.00    +0.000 C 
ATOM     15  C   UNL     1      47.077   2.410   7.189  0.00  0.00    +0.000 C 
ATOM     16  C   UNL     1      46.395   3.746   6.931  0.00  0.00    +0.000 C 
ATOM     17  C   UNL     1      45.803   4.325   8.212  0.00  0.00    +0.000 C 
ENDBRANCH  11  12
ENDBRANCH   8  11
ENDBRANCH   7   8
ENDBRANCH   1   7
BRANCH   5  18
ATOM     18  C   UNL     1      47.494   5.396  13.607  0.00  0.00    +0.000 C 
BRANCH  18  19
ATOM     19  N   UNL     1      47.681   5.732  14.998  0.00  0.00    +0.000 N 
ATOM     20  C   UNL     1      47.854   4.799  15.983  0.00  0.00    +0.000 C 
ATOM     21  O   UNL     1      47.867   3.594  15.753  0.00  0.00    +0.000 OA
ATOM     22  H   UNL     1      47.411   6.680  15.244  0.00  0.00    +0.000 HD
BRANCH  20  23
ATOM     23  C   UNL     1      48.115   5.332  17.329  0.00  0.00    +0.000 A 
ATOM     24  C   UNL     1      47.182   5.148  18.340  0.00  0.00    +0.000 A 
ATOM     25  S   UNL     1      47.685   5.750  19.856  0.00  0.00    +0.000 S 
ATOM     26  C   UNL     1      49.148   6.326  19.200  0.00  0.00    +0.000 A 
ATOM     27  N   UNL     1      50.058   6.970  19.983  0.00  0.00    +0.000 NA
ATOM     28  C   UNL     1      51.108   7.378  19.351  0.00  0.00    +0.000 A 
ATOM     29  N   UNL     1      51.332   7.195  18.011  0.00  0.00    +0.000 N 
ATOM     30  C   UNL     1      50.459   6.520  17.194  0.00  0.00    +0.000 A 
ATOM     31  O   UNL     1      50.719   6.328  16.012  0.00  0.00    +0.000 OA
ATOM     32  C   UNL     1      49.255   6.052  17.851  0.00  0.00    +0.000 A 
ATOM     33  H   UNL     1      52.179   7.528  17.573  0.00  0.00    +0.000 HD
ENDBRANCH  20  23
ENDBRANCH  18  19
ENDBRANCH   5  18
TORSDOF 7
ENDMDL
MODEL 4
REMARK VINA RESULT:    -7.346      3.907      8.025
REMARK INTER + INTRA:         -11.481
REMARK INTER:                 -10.141
REMARK INTRA:                  -1.340
REMARK UNBOUND:                -1.129
REMARK  Name = 
REMARK  8 active torsions:
REMARK  status: ('A' for Active; 'I' for Inactive)
REMARK    1  A    between atoms: C_1  and  C_2
REMARK    2  A    between atoms: C_2  and  N_3
REMARK    3  A    between atoms: C_2  and  C_25
REMARK    4  A    between atoms: N_3  and  C_4
REMARK    5  A    between atoms: C_4  and  C_5
REMARK    6  A    between atoms: C_9  and  C_10
REMARK    7  A    between atoms: C_10  and  N_11
REMARK    8  A    between atoms: C_12  and  C_14
REMARK                            x       y       z     vdW  Elec       q    Type
REMARK                         _______ _______ _______ _____ _____    ______ ____
ROOT
ATOM      1  C   UNL     1      50.564   5.366  16.962  0.00  0.00    +0.000 A 
ATOM      2  C   UNL     1      51.417   4.423  17.526  0.00  0.00    +0.000 A 
ATOM      3  C   UNL     1      50.922   3.151  17.804  0.00  0.00    +0.000 A 
ATOM      4  C   UNL     1      49.596   2.849  17.510  0.00  0.00    +0.000 A 
ATOM      5  C   UNL     1      48.792   3.842  16.968  0.00  0.00    +0.000 A 
ATOM      6  N   UNL     1      49.264   5.083  16.687  0.00  0.00    +0.000 NA
ENDROOT
BRANCH   1   7
ATOM      7  C   UNL     1      51.096   6.747  16.585  0.00  0.00    +0.000 C 
BRANCH   7   8
ATOM      8  N   UNL     1      50.890   7.037  15.168  0.00  0.00    +0.000 NA
ATOM      9  H   UNL     1      50.701   6.152  14.702  0.00  0.00    +0.000 HD
BRANCH   8  11
ATOM     10  C   UNL     1      50.102   9.337  15.639  0.00  0.00    +0.000 C 
ATOM     11  C   UNL     1      49.896   8.051  14.825  0.00  0.00    +0.000 C 
BRANCH  11  12
ATOM     12  C   UNL     1      49.965   8.347  13.287  0.00  0.00    +0.000 C 
ATOM     13  C   UNL     1      51.422   8.529  12.805  0.00  0.00    +0.000 C 
ATOM     14  C   UNL     1      51.521   8.919  11.332  0.00  0.00    +0.000 C 
ATOM     15  C   UNL     1      50.687  10.157  11.035  0.00  0.00    +0.000 C 
ATOM     16  C   UNL     1      49.230   9.926  11.409  0.00  0.00    +0.000 C 
ATOM     17  C   UNL     1      49.085   9.550  12.880  0.00  0.00    +0.000 C 
ENDBRANCH  11  12
ENDBRANCH   8  11
ENDBRANCH   7   8
ENDBRANCH   1   7
BRANCH   5  18
ATOM     18  C   UNL     1      47.346   3.564  16.639  0.00  0.00    +0.000 C 
BRANCH  18  19
ATOM     19  N   UNL     1      46.820   4.497  15.672  0.00  0.00    +0.000 N 
ATOM     20  C   UNL     1      46.798   4.257  14.325  0.00  0.00    +0.000 C 
ATOM     21  O   UNL     1      47.227   3.216  13.836  0.00  0.00    +0.000 OA
ATOM     22  H   UNL     1      46.713   5.447  16.015  0.00  0.00    +0.000 HD
BRANCH  20  23
ATOM     23  C   UNL     1      46.145   5.287  13.503  0.00  0.00    +0.000 A 
ATOM     24  C   UNL     1      46.785   6.496  13.271  0.00  0.00    +0.000 A 
ATOM     25  S   UNL     1      45.927   7.536  12.224  0.00  0.00    +0.000 S 
ATOM     26  C   UNL     1      44.643   6.426  12.089  0.00  0.00    +0.000 A 
ATOM     27  N   UNL     1      43.551   6.711  11.326  0.00  0.00    +0.000 NA
ATOM     28  C   UNL     1      42.642   5.793  11.335  0.00  0.00    +0.000 A 
ATOM     29  N   UNL     1      42.728   4.617  12.033  0.00  0.00    +0.000 N 
ATOM     30  C   UNL     1      43.825   4.274  12.784  0.00  0.00    +0.000 A 
ATOM     31  O   UNL     1      43.891   3.189  13.350  0.00  0.00    +0.000 OA
ATOM     32  C   UNL     1      44.872   5.276  12.819  0.00  0.00    +0.000 A 
ATOM     33  H   UNL     1      41.988   3.930  11.994  0.00  0.00    +0.000 HD
ENDBRANCH  20  23
ENDBRANCH  18  19
ENDBRANCH   5  18
TORSDOF 7
ENDMDL
MODEL 5
REMARK VINA RESULT:    -7.329      3.751      9.319
REMARK INTER + INTRA:         -11.457
REMARK INTER:                 -10.217
REMARK INTRA:                  -1.240
REMARK UNBOUND:                -1.129
REMARK  Name = 
REMARK  8 active torsions:
REMARK  status: ('A' for Active; 'I' for Inactive)
REMARK    1  A    between atoms: C_1  and  C_2
REMARK    2  A    between atoms: C_2  and  N_3
REMARK    3  A    between atoms: C_2  and  C_25
REMARK    4  A    between atoms: N_3  and  C_4
REMARK    5  A    between atoms: C_4  and  C_5
REMARK    6  A    between atoms: C_9  and  C_10
REMARK    7  A    between atoms: C_10  and  N_11
REMARK    8  A    between atoms: C_12  and  C_14
REMARK                            x       y       z     vdW  Elec       q    Type
REMARK                         _______ _______ _______ _____ _____    ______ ____
ROOT
ATOM      1  C   UNL     1      49.315   4.670  18.498  0.00  0.00    +0.000 A 
ATOM      2  C   UNL     1      48.535   3.522  18.581  0.00  0.00    +0.000 A 
ATOM      3  C   UNL     1      47.663   3.224  17.536  0.00  0.00    +0.000 A 
ATOM      4  C   UNL     1      47.594   4.072  16.436  0.00  0.00    +0.000 A 
ATOM      5  C   UNL     1      48.383   5.214  16.424  0.00  0.00    +0.000 A 
ATOM      6  N   UNL     1      49.240   5.511  17.433  0.00  0.00    +0.000 NA
ENDROOT
BRANCH   1   7
ATOM      7  C   UNL     1      50.328   4.987  19.597  0.00  0.00    +0.000 C 
BRANCH   7   8
ATOM      8  N   UNL     1      51.466   4.071  19.562  0.00  0.00    +0.000 NA
ATOM      9  H   UNL     1      51.121   3.149  19.819  0.00  0.00    +0.000 HD
BRANCH   8  11
ATOM     10  C   UNL     1      53.116   5.294  18.178  0.00  0.00    +0.000 C 
ATOM     11  C   UNL     1      52.259   4.029  18.336  0.00  0.00    +0.000 C 
BRANCH  11  12
ATOM     12  C   UNL     1      53.157   2.744  18.342  0.00  0.00    +0.000 C 
ATOM     13  C   UNL     1      54.503   2.985  17.620  0.00  0.00    +0.000 C 
ATOM     14  C   UNL     1      55.360   1.726  17.518  0.00  0.00    +0.000 C 
ATOM     15  C   UNL     1      54.586   0.586  16.868  0.00  0.00    +0.000 C 
ATOM     16  C   UNL     1      53.319   0.282  17.653  0.00  0.00    +0.000 C 
ATOM     17  C   UNL     1      52.424   1.512  17.765  0.00  0.00    +0.000 C 
ENDBRANCH  11  12
ENDBRANCH   8  11
ENDBRANCH   7   8
ENDBRANCH   1   7
BRANCH   5  18
ATOM     18  C   UNL     1      48.337   6.167  15.256  0.00  0.00    +0.000 C 
BRANCH  18  19
ATOM     19  N   UNL     1      47.118   6.035  14.495  0.00  0.00    +0.000 N 
ATOM     20  C   UNL     1      47.022   6.340  13.165  0.00  0.00    +0.000 C 
ATOM     21  O   UNL     1      47.978   6.750  12.513  0.00  0.00    +0.000 OA
ATOM     22  H   UNL     1      46.275   5.960  15.056  0.00  0.00    +0.000 HD
BRANCH  20  23
ATOM     23  C   UNL     1      45.721   6.061  12.538  0.00  0.00    +0.000 A 
ATOM     24  C   UNL     1      44.965   7.103  12.018  0.00  0.00    +0.000 A 
ATOM     25  S   UNL     1      43.530   6.592  11.248  0.00  0.00    +0.000 S 
ATOM     26  C   UNL     1      43.844   4.962  11.631  0.00  0.00    +0.000 A 
ATOM     27  N   UNL     1      42.978   3.978  11.260  0.00  0.00    +0.000 NA
ATOM     28  C   UNL     1      43.326   2.793  11.638  0.00  0.00    +0.000 A 
ATOM     29  N   UNL     1      44.461   2.503  12.349  0.00  0.00    +0.000 N 
ATOM     30  C   UNL     1      45.378   3.458  12.711  0.00  0.00    +0.000 A 
ATOM     31  O   UNL     1      46.410   3.154  13.299  0.00  0.00    +0.000 OA
ATOM     32  C   UNL     1      45.030   4.810  12.322  0.00  0.00    +0.000 A 
ATOM     33  H   UNL     1      44.686   1.553  12.609  0.00  0.00    +0.000 HD
ENDBRANCH  20  23
ENDBRANCH  18  19
ENDBRANCH   5  18
TORSDOF 7
ENDMDL
MODEL 6
REMARK VINA RESULT:    -7.301      3.487      8.835
REMARK INTER + INTRA:         -11.417
REMARK INTER:                 -10.368
REMARK INTRA:                  -1.049
REMARK UNBOUND:                -1.129
REMARK  Name = 
REMARK  8 active torsions:
REMARK  status: ('A' for Active; 'I' for Inactive)
REMARK    1  A    between atoms: C_1  and  C_2
REMARK    2  A    between atoms: C_2  and  N_3
REMARK    3  A    between atoms: C_2  and  C_25
REMARK    4  A    between atoms: N_3  and  C_4
REMARK    5  A    between atoms: C_4  and  C_5
REMARK    6  A    between atoms: C_9  and  C_10
REMARK    7  A    between atoms: C_10  and  N_11
REMARK    8  A    between atoms: C_12  and  C_14
REMARK                            x       y       z     vdW  Elec       q    Type
REMARK                         _______ _______ _______ _____ _____    ______ ____
ROOT
ATOM      1  C   UNL     1      49.180   7.193  14.984  0.00  0.00    +0.000 A 
ATOM      2  C   UNL     1      50.423   7.775  14.756  0.00  0.00    +0.000 A 
ATOM      3  C   UNL     1      50.639   8.450  13.557  0.00  0.00    +0.000 A 
ATOM      4  C   UNL     1      49.614   8.534  12.621  0.00  0.00    +0.000 A 
ATOM      5  C   UNL     1      48.404   7.913  12.900  0.00  0.00    +0.000 A 
ATOM      6  N   UNL     1      48.180   7.258  14.067  0.00  0.00    +0.000 NA
ENDROOT
BRANCH   1   7
ATOM      7  C   UNL     1      48.893   6.504  16.317  0.00  0.00    +0.000 C 
BRANCH   7   8
ATOM      8  N   UNL     1      49.380   5.127  16.328  0.00  0.00    +0.000 NA
ATOM      9  H   UNL     1      50.396   5.166  16.351  0.00  0.00    +0.000 HD
BRANCH   8  11
ATOM     10  C   UNL     1      47.722   3.350  16.802  0.00  0.00    +0.000 C 
ATOM     11  C   UNL     1      48.850   4.233  17.354  0.00  0.00    +0.000 C 
BRANCH  11  12
ATOM     12  C   UNL     1      50.014   3.356  17.932  0.00  0.00    +0.000 C 
ATOM     13  C   UNL     1      51.309   4.180  18.122  0.00  0.00    +0.000 C 
ATOM     14  C   UNL     1      52.492   3.335  18.587  0.00  0.00    +0.000 C 
ATOM     15  C   UNL     1      52.725   2.155  17.653  0.00  0.00    +0.000 C 
ATOM     16  C   UNL     1      51.479   1.287  17.562  0.00  0.00    +0.000 C 
ATOM     17  C   UNL     1      50.273   2.091  17.084  0.00  0.00    +0.000 C 
ENDBRANCH  11  12
ENDBRANCH   8  11
ENDBRANCH   7   8
ENDBRANCH   1   7
BRANCH   5  18
ATOM     18  C   UNL     1      47.265   7.971  11.913  0.00  0.00    +0.000 C 
BRANCH  18  19
ATOM     19  N   UNL     1      46.591   6.702  11.785  0.00  0.00    +0.000 N 
ATOM     20  C   UNL     1      45.237   6.578  11.637  0.00  0.00    +0.000 C 
ATOM     21  O   UNL     1      44.488   7.550  11.598  0.00  0.00    +0.000 OA
ATOM     22  H   UNL     1      47.141   5.900  12.078  0.00  0.00    +0.000 HD
BRANCH  20  23
ATOM     23  C   UNL     1      44.739   5.209  11.437  0.00  0.00    +0.000 A 
ATOM     24  C   UNL     1      44.009   4.584  12.438  0.00  0.00    +0.000 A 
ATOM     25  S   UNL     1      43.432   3.038  12.003  0.00  0.00    +0.000 S 
ATOM     26  C   UNL     1      44.185   3.129  10.478  0.00  0.00    +0.000 A 
ATOM     27  N   UNL     1      44.091   2.100   9.590  0.00  0.00    +0.000 NA
ATOM     28  C   UNL     1      44.732   2.290   8.486  0.00  0.00    +0.000 A 
ATOM     29  N   UNL     1      45.454   3.417   8.187  0.00  0.00    +0.000 N 
ATOM     30  C   UNL     1      45.545   4.491   9.037  0.00  0.00    +0.000 A 
ATOM     31  O   UNL     1      46.154   5.504   8.714  0.00  0.00    +0.000 OA
ATOM     32  C   UNL     1      44.854   4.324  10.300  0.00  0.00    +0.000 A 
ATOM     33  H   UNL     1      45.928   3.514   7.300  0.00  0.00    +0.000 HD
ENDBRANCH  20  23
ENDBRANCH  18  19
ENDBRANCH   5  18
TORSDOF 7
ENDMDL
MODEL 7
REMARK VINA RESULT:    -7.141      1.735      2.775
REMARK INTER + INTRA:         -11.192
REMARK INTER:                 -10.280
REMARK INTRA:                  -0.912
REMARK UNBOUND:                -1.129
REMARK  Name = 
REMARK  8 active torsions:
REMARK  status: ('A' for Active; 'I' for Inactive)
REMARK    1  A    between atoms: C_1  and  C_2
REMARK    2  A    between atoms: C_2  and  N_3
REMARK    3  A    between atoms: C_2  and  C_25
REMARK    4  A    between atoms: N_3  and  C_4
REMARK    5  A    between atoms: C_4  and  C_5
REMARK    6  A    between atoms: C_9  and  C_10
REMARK    7  A    between atoms: C_10  and  N_11
REMARK    8  A    between atoms: C_12  and  C_14
REMARK                            x       y       z     vdW  Elec       q    Type
REMARK                         _______ _______ _______ _____ _____    ______ ____
ROOT
ATOM      1  C   UNL     1      47.821   6.144  13.418  0.00  0.00    +0.000 A 
ATOM      2  C   UNL     1      48.575   6.723  12.403  0.00  0.00    +0.000 A 
ATOM      3  C   UNL     1      49.657   7.530  12.745  0.00  0.00    +0.000 A 
ATOM      4  C   UNL     1      49.964   7.736  14.086  0.00  0.00    +0.000 A 
ATOM      5  C   UNL     1      49.159   7.147  15.051  0.00  0.00    +0.000 A 
ATOM      6  N   UNL     1      48.107   6.354  14.730  0.00  0.00    +0.000 NA
ENDROOT
BRANCH   1   7
ATOM      7  C   UNL     1      46.671   5.201  13.072  0.00  0.00    +0.000 C 
BRANCH   7   8
ATOM      8  N   UNL     1      46.088   5.516  11.770  0.00  0.00    +0.000 NA
ATOM      9  H   UNL     1      46.715   5.145  11.060  0.00  0.00    +0.000 HD
BRANCH   8  11
ATOM     10  C   UNL     1      43.762   6.322  11.507  0.00  0.00    +0.000 C 
ATOM     11  C   UNL     1      44.705   5.110  11.534  0.00  0.00    +0.000 C 
BRANCH  11  12
ATOM     12  C   UNL     1      44.620   4.306  10.192  0.00  0.00    +0.000 C 
ATOM     13  C   UNL     1      44.715   2.781  10.433  0.00  0.00    +0.000 C 
ATOM     14  C   UNL     1      44.737   1.972   9.139  0.00  0.00    +0.000 C 
ATOM     15  C   UNL     1      45.847   2.450   8.211  0.00  0.00    +0.000 C 
ATOM     16  C   UNL     1      45.679   3.927   7.890  0.00  0.00    +0.000 C 
ATOM     17  C   UNL     1      45.668   4.776   9.157  0.00  0.00    +0.000 C 
ENDBRANCH  11  12
ENDBRANCH   8  11
ENDBRANCH   7   8
ENDBRANCH   1   7
BRANCH   5  18
ATOM     18  C   UNL     1      49.449   7.347  16.518  0.00  0.00    +0.000 C 
BRANCH  18  19
ATOM     19  N   UNL     1      50.470   6.447  16.998  0.00  0.00    +0.000 N 
ATOM     20  C   UNL     1      50.239   5.471  17.929  0.00  0.00    +0.000 C 
ATOM     21  O   UNL     1      49.133   5.284  18.426  0.00  0.00    +0.000 OA
ATOM     22  H   UNL     1      51.421   6.749  16.811  0.00  0.00    +0.000 HD
BRANCH  20  23
ATOM     23  C   UNL     1      51.381   4.595  18.232  0.00  0.00    +0.000 A 
ATOM     24  C   UNL     1      52.475   5.098  18.923  0.00  0.00    +0.000 A 
ATOM     25  S   UNL     1      53.666   3.925  19.269  0.00  0.00    +0.000 S 
ATOM     26  C   UNL     1      52.784   2.715  18.459  0.00  0.00    +0.000 A 
ATOM     27  N   UNL     1      53.261   1.442  18.372  0.00  0.00    +0.000 NA
ATOM     28  C   UNL     1      52.505   0.634  17.707  0.00  0.00    +0.000 A 
ATOM     29  N   UNL     1      51.314   0.982  17.125  0.00  0.00    +0.000 N 
ATOM     30  C   UNL     1      50.779   2.243  17.218  0.00  0.00    +0.000 A 
ATOM     31  O   UNL     1      49.684   2.503  16.732  0.00  0.00    +0.000 OA
ATOM     32  C   UNL     1      51.595   3.195  17.944  0.00  0.00    +0.000 A 
ATOM     33  H   UNL     1      50.758   0.303  16.624  0.00  0.00    +0.000 HD
ENDBRANCH  20  23
ENDBRANCH  18  19
ENDBRANCH   5  18
TORSDOF 7
ENDMDL
MODEL 8
REMARK VINA RESULT:    -7.059      3.666      8.668
REMARK INTER + INTRA:         -11.076
REMARK INTER:                  -9.929
REMARK INTRA:                  -1.147
REMARK UNBOUND:                -1.129
REMARK  Name = 
REMARK  8 active torsions:
REMARK  status: ('A' for Active; 'I' for Inactive)
REMARK    1  A    between atoms: C_1  and  C_2
REMARK    2  A    between atoms: C_2  and  N_3
REMARK    3  A    between atoms: C_2  and  C_25
REMARK    4  A    between atoms: N_3  and  C_4
REMARK    5  A    between atoms: C_4  and  C_5
REMARK    6  A    between atoms: C_9  and  C_10
REMARK    7  A    between atoms: C_10  and  N_11
REMARK    8  A    between atoms: C_12  and  C_14
REMARK                            x       y       z     vdW  Elec       q    Type
REMARK                         _______ _______ _______ _____ _____    ______ ____
ROOT
ATOM      1  C   UNL     1      49.971   7.972  13.950  0.00  0.00    +0.000 A 
ATOM      2  C   UNL     1      50.572   8.179  12.712  0.00  0.00    +0.000 A 
ATOM      3  C   UNL     1      49.762   8.358  11.593  0.00  0.00    +0.000 A 
ATOM      4  C   UNL     1      48.379   8.332  11.735  0.00  0.00    +0.000 A 
ATOM      5  C   UNL     1      47.842   8.100  12.994  0.00  0.00    +0.000 A 
ATOM      6  N   UNL     1      48.621   7.930  14.092  0.00  0.00    +0.000 NA
ENDROOT
BRANCH   1   7
ATOM      7  C   UNL     1      50.833   7.840  15.204  0.00  0.00    +0.000 C 
BRANCH   7   8
ATOM      8  N   UNL     1      50.724   6.508  15.795  0.00  0.00    +0.000 NA
ATOM      9  H   UNL     1      51.549   5.983  15.514  0.00  0.00    +0.000 HD
BRANCH   8  11
ATOM     10  C   UNL     1      49.905   7.734  17.785  0.00  0.00    +0.000 C 
ATOM     11  C   UNL     1      50.496   6.427  17.235  0.00  0.00    +0.000 C 
BRANCH  11  12
ATOM     12  C   UNL     1      49.553   5.214  17.546  0.00  0.00    +0.000 C 
ATOM     13  C   UNL     1      50.311   3.868  17.468  0.00  0.00    +0.000 C 
ATOM     14  C   UNL     1      49.401   2.658  17.665  0.00  0.00    +0.000 C 
ATOM     15  C   UNL     1      48.231   2.686  16.691  0.00  0.00    +0.000 C 
ATOM     16  C   UNL     1      47.425   3.966  16.854  0.00  0.00    +0.000 C 
ATOM     17  C   UNL     1      48.295   5.202  16.648  0.00  0.00    +0.000 C 
ENDBRANCH  11  12
ENDBRANCH   8  11
ENDBRANCH   7   8
ENDBRANCH   1   7
BRANCH   5  18
ATOM     18  C   UNL     1      46.348   8.056  13.195  0.00  0.00    +0.000 C 
BRANCH  18  19
ATOM     19  N   UNL     1      45.788   6.777  12.831  0.00  0.00    +0.000 N 
ATOM     20  C   UNL     1      44.980   6.590  11.743  0.00  0.00    +0.000 C 
ATOM     21  O   UNL     1      44.672   7.507  10.986  0.00  0.00    +0.000 OA
ATOM     22  H   UNL     1      45.805   6.082  13.570  0.00  0.00    +0.000 HD
BRANCH  20  23
ATOM     23  C   UNL     1      44.573   5.201  11.481  0.00  0.00    +0.000 A 
ATOM     24  C   UNL     1      43.820   4.511  12.421  0.00  0.00    +0.000 A 
ATOM     25  S   UNL     1      43.360   2.947  11.916  0.00  0.00    +0.000 S 
ATOM     26  C   UNL     1      44.198   3.119  10.443  0.00  0.00    +0.000 A 
ATOM     27  N   UNL     1      44.216   2.109   9.528  0.00  0.00    +0.000 NA
ATOM     28  C   UNL     1      44.911   2.364   8.470  0.00  0.00    +0.000 A 
ATOM     29  N   UNL     1      45.585   3.535   8.243  0.00  0.00    +0.000 N 
ATOM     30  C   UNL     1      45.563   4.590   9.120  0.00  0.00    +0.000 A 
ATOM     31  O   UNL     1      46.132   5.644   8.858  0.00  0.00    +0.000 OA
ATOM     32  C   UNL     1      44.807   4.353  10.334  0.00  0.00    +0.000 A 
ATOM     33  H   UNL     1      46.105   3.682   7.389  0.00  0.00    +0.000 HD
ENDBRANCH  20  23
ENDBRANCH  18  19
ENDBRANCH   5  18
TORSDOF 7
ENDMDL
MODEL 9
REMARK VINA RESULT:    -6.908      3.692      8.375
REMARK INTER + INTRA:         -10.864
REMARK INTER:                  -9.468
REMARK INTRA:                  -1.396
REMARK UNBOUND:                -1.129
REMARK  Name = 
REMARK  8 active torsions:
REMARK  status: ('A' for Active; 'I' for Inactive)
REMARK    1  A    between atoms: C_1  and  C_2
REMARK    2  A    between atoms: C_2  and  N_3
REMARK    3  A    between atoms: C_2  and  C_25
REMARK    4  A    between atoms: N_3  and  C_4
REMARK    5  A    between atoms: C_4  and  C_5
REMARK    6  A    between atoms: C_9  and  C_10
REMARK    7  A    between atoms: C_10  and  N_11
REMARK    8  A    between atoms: C_12  and  C_14
REMARK                            x       y       z     vdW  Elec       q    Type
REMARK                         _______ _______ _______ _____ _____    ______ ____
ROOT
ATOM      1  C   UNL     1      47.983   6.731  18.492  0.00  0.00    +0.000 A 
ATOM      2  C   UNL     1      48.362   7.680  19.435  0.00  0.00    +0.000 A 
ATOM      3  C   UNL     1      48.991   8.845  19.002  0.00  0.00    +0.000 A 
ATOM      4  C   UNL     1      49.223   9.037  17.644  0.00  0.00    +0.000 A 
ATOM      5  C   UNL     1      48.840   8.041  16.756  0.00  0.00    +0.000 A 
ATOM      6  N   UNL     1      48.221   6.906  17.165  0.00  0.00    +0.000 NA
ENDROOT
BRANCH   1   7
ATOM      7  C   UNL     1      47.232   5.476  18.931  0.00  0.00    +0.000 C 
BRANCH   7   8
ATOM      8  N   UNL     1      48.148   4.385  19.256  0.00  0.00    +0.000 NA
ATOM      9  H   UNL     1      47.907   4.056  20.188  0.00  0.00    +0.000 HD
BRANCH   8  11
ATOM     10  C   UNL     1      47.195   3.403  17.192  0.00  0.00    +0.000 C 
ATOM     11  C   UNL     1      48.248   3.283  18.304  0.00  0.00    +0.000 C 
BRANCH  11  12
ATOM     12  C   UNL     1      49.694   3.246  17.701  0.00  0.00    +0.000 C 
ATOM     13  C   UNL     1      50.250   1.804  17.636  0.00  0.00    +0.000 C 
ATOM     14  C   UNL     1      51.695   1.742  17.148  0.00  0.00    +0.000 C 
ATOM     15  C   UNL     1      52.596   2.639  17.985  0.00  0.00    +0.000 C 
ATOM     16  C   UNL     1      52.105   4.078  17.949  0.00  0.00    +0.000 C 
ATOM     17  C   UNL     1      50.666   4.189  18.446  0.00  0.00    +0.000 C 
ENDBRANCH  11  12
ENDBRANCH   8  11
ENDBRANCH   7   8
ENDBRANCH   1   7
BRANCH   5  18
ATOM     18  C   UNL     1      49.076   8.202  15.275  0.00  0.00    +0.000 C 
BRANCH  18  19
ATOM     19  N   UNL     1      47.934   7.791  14.495  0.00  0.00    +0.000 N 
ATOM     20  C   UNL     1      47.994   6.844  13.508  0.00  0.00    +0.000 C 
ATOM     21  O   UNL     1      49.037   6.266  13.215  0.00  0.00    +0.000 OA
ATOM     22  H   UNL     1      47.145   8.429  14.532  0.00  0.00    +0.000 HD
BRANCH  20  23
ATOM     23  C   UNL     1      46.712   6.495  12.880  0.00  0.00    +0.000 A 
ATOM     24  C   UNL     1      45.923   7.488  12.317  0.00  0.00    +0.000 A 
ATOM     25  S   UNL     1      44.516   6.896  11.552  0.00  0.00    +0.000 S 
ATOM     26  C   UNL     1      44.888   5.293  11.994  0.00  0.00    +0.000 A 
ATOM     27  N   UNL     1      44.063   4.265  11.650  0.00  0.00    +0.000 NA
ATOM     28  C   UNL     1      44.451   3.108  12.073  0.00  0.00    +0.000 A 
ATOM     29  N   UNL     1      45.589   2.886  12.804  0.00  0.00    +0.000 N 
ATOM     30  C   UNL     1      46.465   3.888  13.141  0.00  0.00    +0.000 A 
ATOM     31  O   UNL     1      47.502   3.643  13.748  0.00  0.00    +0.000 OA
ATOM     32  C   UNL     1      46.071   5.211  12.702  0.00  0.00    +0.000 A 
ATOM     33  H   UNL     1      45.847   1.955  13.100  0.00  0.00    +0.000 HD
ENDBRANCH  20  23
ENDBRANCH  18  19
ENDBRANCH   5  18
TORSDOF 7
ENDMDL
