MODEL 1
REMARK VINA RESULT:    -7.960      0.000      0.000
REMARK INTER + INTRA:         -11.982
REMARK INTER:                 -10.752
REMARK INTRA:                  -1.230
REMARK UNBOUND:                -1.230
REMARK  Name = 
REMARK  8 active torsions:
REMARK  status: ('A' for Active; 'I' for Inactive)
REMARK    1  A    between atoms: C_1  and  C_2
REMARK    2  A    between atoms: C_2  and  N_3
REMARK    3  A    between atoms: C_2  and  C_17
REMARK    4  A    between atoms: C_4  and  C_6
REMARK    5  A    between atoms: N_12  and  C_13
REMARK    6  A    between atoms: C_20  and  O_21
REMARK    7  A    between atoms: O_21  and  C_22
REMARK    8  A    between atoms: C_22  and  C_23
REMARK                            x       y       z     vdW  Elec       q    Type
REMARK                         _______ _______ _______ _____ _____    ______ ____
ROOT
ATOM      1  C   UNL     1      47.641   8.577  12.175  0.00  0.00    +0.000 C 
ATOM      2  C   UNL     1      47.171   7.540  13.202  0.00  0.00    +0.000 C 
ENDROOT
BRANCH   2   3
ATOM      3  C   UNL     1      46.466   6.343  12.588  0.00  0.00    +0.000 A 
ATOM      4  C   UNL     1      45.806   6.482  11.357  0.00  0.00    +0.000 A 
ATOM      5  C   UNL     1      45.148   5.398  10.770  0.00  0.00    +0.000 A 
ATOM      6  C   UNL     1      45.145   4.155  11.400  0.00  0.00    +0.000 A 
ATOM      7  C   UNL     1      45.741   4.021  12.653  0.00  0.00    +0.000 A 
ATOM      8  C   UNL     1      46.396   5.104  13.240  0.00  0.00    +0.000 A 
BRANCH   6   9
ATOM      9  O   UNL     1      44.526   3.142  10.719  0.00  0.00    +0.000 OA
BRANCH   9  10
ATOM     10  C   UNL     1      44.274   3.411   9.338  0.00  0.00    +0.000 C 
BRANCH  10  11
ATOM     11  C   UNL     1      45.341   2.774   8.499  0.00  0.00    +0.000 A 
ATOM     12  C   UNL     1      46.137   3.536   7.638  0.00  0.00    +0.000 A 
ATOM     13  C   UNL     1      47.159   2.923   6.921  0.00  0.00    +0.000 A 
ATOM     14  C   UNL     1      47.354   1.563   7.095  0.00  0.00    +0.000 A 
ATOM     15  N   UNL     1      46.610   0.794   7.918  0.00  0.00    +0.000 NA
ATOM     16  C   UNL     1      45.622   1.416   8.601  0.00  0.00    +0.000 A 
ENDBRANCH  10  11
ENDBRANCH   9  10
ENDBRANCH   6   9
ENDBRANCH   2   3
BRANCH   2  17
ATOM     17  N   UNL     1      48.317   7.087  13.962  0.00  0.00    +0.000 N 
ATOM     18  C   UNL     1      48.816   7.765  15.042  0.00  0.00    +0.000 C 
ATOM     19  O   UNL     1      48.388   8.861  15.392  0.00  0.00    +0.000 OA
ATOM     20  H   UNL     1      48.541   6.103  13.868  0.00  0.00    +0.000 HD
BRANCH  18  21
ATOM     21  C   UNL     1      49.956   7.135  15.723  0.00  0.00    +0.000 A 
ATOM     22  C   UNL     1      51.220   7.693  15.592  0.00  0.00    +0.000 A 
ATOM     23  S   UNL     1      52.437   6.826  16.412  0.00  0.00    +0.000 S 
ATOM     24  C   UNL     1      51.310   5.699  17.007  0.00  0.00    +0.000 A 
ATOM     25  N   UNL     1      51.705   4.688  17.821  0.00  0.00    +0.000 NA
ATOM     26  C   UNL     1      50.746   3.921  18.227  0.00  0.00    +0.000 A 
ATOM     27  N   UNL     1      49.417   4.052  17.887  0.00  0.00    +0.000 N 
ATOM     28  C   UNL     1      48.430   3.121  18.390  0.00  0.00    +0.000 C 
ATOM     29  C   UNL     1      48.986   5.047  17.012  0.00  0.00    +0.000 A 
ATOM     30  O   UNL     1      47.823   5.122  16.620  0.00  0.00    +0.000 OA
ATOM     31  C   UNL     1      50.027   5.959  16.564  0.00  0.00    +0.000 A 
ENDBRANCH  18  21
ENDBRANCH   2  17
TORSDOF 6
ENDMDL
MODEL 2
REMARK VINA RESULT:    -7.525      2.739      3.520
REMARK INTER + INTRA:         -11.394
REMARK INTER:                 -10.239
REMARK INTRA:                  -1.155
REMARK UNBOUND:                -1.230
REMARK  Name = 
REMARK  8 active torsions:
REMARK  status: ('A' for Active; 'I' for Inactive)
REMARK    1  A    between atoms: C_1  and  C_2
REMARK    2  A    between atoms: C_2  and  N_3
REMARK    3  A    between atoms: C_2  and  C_17
REMARK    4  A    between atoms: C_4  and  C_6
REMARK    5  A    between atoms: N_12  and  C_13
REMARK    6  A    between atoms: C_20  and  O_21
REMARK    7  A    between atoms: O_21  and  C_22
REMARK    8  A    between atoms: C_22  and  C_23
REMARK                            x       y       z     vdW  Elec       q    Type
REMARK                         _______ _______ _______ _____ _____    ______ ____
ROOT
ATOM      1  C   UNL     1      47.138   4.290  15.943  0.00  0.00    +0.000 C 
ATOM      2  C   UNL     1      47.694   5.072  14.747  0.00  0.00    +0.000 C 
ENDROOT
BRANCH   2   3
ATOM      3  C   UNL     1      46.845   4.962  13.492  0.00  0.00    +0.000 A 
ATOM      4  C   UNL     1      46.797   6.036  12.590  0.00  0.00    +0.000 A 
ATOM      5  C   UNL     1      46.024   5.961  11.429  0.00  0.00    +0.000 A 
ATOM      6  C   UNL     1      45.290   4.810  11.147  0.00  0.00    +0.000 A 
ATOM      7  C   UNL     1      45.279   3.763  12.067  0.00  0.00    +0.000 A 
ATOM      8  C   UNL     1      46.050   3.838  13.227  0.00  0.00    +0.000 A 
BRANCH   6   9
ATOM      9  O   UNL     1      44.612   4.810   9.957  0.00  0.00    +0.000 OA
BRANCH   9  10
ATOM     10  C   UNL     1      44.205   3.520   9.496  0.00  0.00    +0.000 C 
BRANCH  10  11
ATOM     11  C   UNL     1      45.257   2.954   8.590  0.00  0.00    +0.000 A 
ATOM     12  C   UNL     1      45.932   3.763   7.671  0.00  0.00    +0.000 A 
ATOM     13  C   UNL     1      46.946   3.219   6.890  0.00  0.00    +0.000 A 
ATOM     14  C   UNL     1      47.255   1.881   7.059  0.00  0.00    +0.000 A 
ATOM     15  N   UNL     1      46.630   1.068   7.938  0.00  0.00    +0.000 NA
ATOM     16  C   UNL     1      45.647   1.622   8.682  0.00  0.00    +0.000 A 
ENDBRANCH  10  11
ENDBRANCH   9  10
ENDBRANCH   6   9
ENDBRANCH   2   3
BRANCH   2  17
ATOM     17  N   UNL     1      47.823   6.464  15.122  0.00  0.00    +0.000 N 
ATOM     18  C   UNL     1      48.996   7.019  15.557  0.00  0.00    +0.000 C 
ATOM     19  O   UNL     1      50.010   6.355  15.755  0.00  0.00    +0.000 OA
ATOM     20  H   UNL     1      47.107   7.082  14.755  0.00  0.00    +0.000 HD
BRANCH  18  21
ATOM     21  C   UNL     1      48.954   8.458  15.850  0.00  0.00    +0.000 A 
ATOM     22  C   UNL     1      49.387   9.362  14.889  0.00  0.00    +0.000 A 
ATOM     23  S   UNL     1      49.307  10.987  15.395  0.00  0.00    +0.000 S 
ATOM     24  C   UNL     1      48.652  10.544  16.901  0.00  0.00    +0.000 A 
ATOM     25  N   UNL     1      48.319  11.488  17.817  0.00  0.00    +0.000 NA
ATOM     26  C   UNL     1      47.803  11.020  18.906  0.00  0.00    +0.000 A 
ATOM     27  N   UNL     1      47.597   9.686  19.186  0.00  0.00    +0.000 N 
ATOM     28  C   UNL     1      47.025   9.276  20.450  0.00  0.00    +0.000 C 
ATOM     29  C   UNL     1      47.976   8.690  18.290  0.00  0.00    +0.000 A 
ATOM     30  O   UNL     1      47.890   7.493  18.559  0.00  0.00    +0.000 OA
ATOM     31  C   UNL     1      48.522   9.174  17.032  0.00  0.00    +0.000 A 
ENDBRANCH  18  21
ENDBRANCH   2  17
TORSDOF 6
ENDMDL
MODEL 3
REMARK VINA RESULT:    -7.150      1.742      2.287
REMARK INTER + INTRA:         -10.889
REMARK INTER:                  -9.945
REMARK INTRA:                  -0.944
REMARK UNBOUND:                -1.230
REMARK  Name = 
REMARK  8 active torsions:
REMARK  status: ('A' for Active; 'I' for Inactive)
REMARK    1  A    between atoms: C_1  and  C_2
REMARK    2  A    between atoms: C_2  and  N_3
REMARK    3  A    between atoms: C_2  and  C_17
REMARK    4  A    between atoms: C_4  and  C_6
REMARK    5  A    between atoms: N_12  and  C_13
REMARK    6  A    between atoms: C_20  and  O_21
REMARK    7  A    between atoms: O_21  and  C_22
REMARK    8  A    between atoms: C_22  and  C_23
REMARK                            x       y       z     vdW  Elec       q    Type
REMARK                         _______ _______ _______ _____ _____    ______ ____
ROOT
ATOM      1  C   UNL     1      45.369   8.818  12.206  0.00  0.00    +0.000 C 
ATOM      2  C   UNL     1      46.006   7.635  12.945  0.00  0.00    +0.000 C 
ENDROOT
BRANCH   2   3
ATOM      3  C   UNL     1      45.714   6.286  12.312  0.00  0.00    +0.000 A 
ATOM      4  C   UNL     1      45.380   6.215  10.951  0.00  0.00    +0.000 A 
ATOM      5  C   UNL     1      45.106   4.987  10.343  0.00  0.00    +0.000 A 
ATOM      6  C   UNL     1      45.167   3.809  11.085  0.00  0.00    +0.000 A 
ATOM      7  C   UNL     1      45.434   3.872  12.451  0.00  0.00    +0.000 A 
ATOM      8  C   UNL     1      45.706   5.099  13.058  0.00  0.00    +0.000 A 
BRANCH   6   9
ATOM      9  O   UNL     1      44.941   2.652  10.388  0.00  0.00    +0.000 OA
BRANCH   9  10
ATOM     10  C   UNL     1      44.499   2.837   9.041  0.00  0.00    +0.000 C 
BRANCH  10  11
ATOM     11  C   UNL     1      45.624   2.533   8.097  0.00  0.00    +0.000 A 
ATOM     12  C   UNL     1      46.119   3.504   7.222  0.00  0.00    +0.000 A 
ATOM     13  C   UNL     1      47.204   3.207   6.405  0.00  0.00    +0.000 A 
ATOM     14  C   UNL     1      47.762   1.943   6.494  0.00  0.00    +0.000 A 
ATOM     15  N   UNL     1      47.316   0.979   7.327  0.00  0.00    +0.000 NA
ATOM     16  C   UNL     1      46.258   1.295   8.109  0.00  0.00    +0.000 A 
ENDBRANCH  10  11
ENDBRANCH   9  10
ENDBRANCH   6   9
ENDBRANCH   2   3
BRANCH   2  17
ATOM     17  N   UNL     1      47.438   7.841  13.005  0.00  0.00    +0.000 N 
ATOM     18  C   UNL     1      48.059   8.495  14.035  0.00  0.00    +0.000 C 
ATOM     19  O   UNL     1      47.440   9.042  14.943  0.00  0.00    +0.000 OA
ATOM     20  H   UNL     1      47.992   7.218  12.428  0.00  0.00    +0.000 HD
BRANCH  18  21
ATOM     21  C   UNL     1      49.525   8.571  13.953  0.00  0.00    +0.000 A 
ATOM     22  C   UNL     1      50.112   9.418  13.023  0.00  0.00    +0.000 A 
ATOM     23  S   UNL     1      51.815   9.366  13.032  0.00  0.00    +0.000 S 
ATOM     24  C   UNL     1      51.829   8.241  14.308  0.00  0.00    +0.000 A 
ATOM     25  N   UNL     1      53.002   7.793  14.825  0.00  0.00    +0.000 NA
ATOM     26  C   UNL     1      52.872   6.966  15.810  0.00  0.00    +0.000 A 
ATOM     27  N   UNL     1      51.675   6.521  16.330  0.00  0.00    +0.000 N 
ATOM     28  C   UNL     1      51.652   5.578  17.428  0.00  0.00    +0.000 C 
ATOM     29  C   UNL     1      50.456   6.920  15.789  0.00  0.00    +0.000 A 
ATOM     30  O   UNL     1      49.381   6.462  16.174  0.00  0.00    +0.000 OA
ATOM     31  C   UNL     1      50.554   7.885  14.705  0.00  0.00    +0.000 A 
ENDBRANCH  18  21
ENDBRANCH   2  17
TORSDOF 6
ENDMDL
MODEL 4
REMARK VINA RESULT:    -7.126      2.240      4.298
REMARK INTER + INTRA:         -10.855
REMARK INTER:                  -9.693
REMARK INTRA:                  -1.162
REMARK UNBOUND:                -1.230
REMARK  Name = 
REMARK  8 active torsions:
REMARK  status: ('A' for Active; 'I' for Inactive)
REMARK    1  A    between atoms: C_1  and  C_2
REMARK    2  A    between atoms: C_2  and  N_3
REMARK    3  A    between atoms: C_2  and  C_17
REMARK    4  A    between atoms: C_4  and  C_6
REMARK    5  A    between atoms: N_12  and  C_13
REMARK    6  A    between atoms: C_20  and  O_21
REMARK    7  A    between atoms: O_21  and  C_22
REMARK    8  A    between atoms: C_22  and  C_23
REMARK                            x       y       z     vdW  Elec       q    Type
REMARK                         _______ _______ _______ _____ _____    ______ ____
ROOT
ATOM      1  C   UNL     1      46.921   4.074  16.078  0.00  0.00    +0.000 C 
ATOM      2  C   UNL     1      47.496   4.710  14.808  0.00  0.00    +0.000 C 
ENDROOT
BRANCH   2   3
ATOM      3  C   UNL     1      46.610   4.549  13.585  0.00  0.00    +0.000 A 
ATOM      4  C   UNL     1      46.124   3.277  13.243  0.00  0.00    +0.000 A 
ATOM      5  C   UNL     1      45.307   3.101  12.122  0.00  0.00    +0.000 A 
ATOM      6  C   UNL     1      44.959   4.192  11.328  0.00  0.00    +0.000 A 
ATOM      7  C   UNL     1      45.490   5.447  11.620  0.00  0.00    +0.000 A 
ATOM      8  C   UNL     1      46.306   5.624  12.738  0.00  0.00    +0.000 A 
BRANCH   6   9
ATOM      9  O   UNL     1      44.109   3.927  10.289  0.00  0.00    +0.000 OA
BRANCH   9  10
ATOM     10  C   UNL     1      44.556   4.390   9.012  0.00  0.00    +0.000 C 
BRANCH  10  11
ATOM     11  C   UNL     1      45.492   3.383   8.413  0.00  0.00    +0.000 A 
ATOM     12  C   UNL     1      45.379   2.022   8.709  0.00  0.00    +0.000 A 
ATOM     13  C   UNL     1      46.224   1.109   8.087  0.00  0.00    +0.000 A 
ATOM     14  C   UNL     1      47.154   1.590   7.182  0.00  0.00    +0.000 A 
ATOM     15  N   UNL     1      47.292   2.896   6.867  0.00  0.00    +0.000 NA
ATOM     16  C   UNL     1      46.460   3.761   7.488  0.00  0.00    +0.000 A 
ENDBRANCH  10  11
ENDBRANCH   9  10
ENDBRANCH   6   9
ENDBRANCH   2   3
BRANCH   2  17
ATOM     17  N   UNL     1      47.725   6.118  15.055  0.00  0.00    +0.000 N 
ATOM     18  C   UNL     1      48.774   6.587  15.800  0.00  0.00    +0.000 C 
ATOM     19  O   UNL     1      49.550   5.845  16.395  0.00  0.00    +0.000 OA
ATOM     20  H   UNL     1      47.275   6.753  14.407  0.00  0.00    +0.000 HD
BRANCH  18  21
ATOM     21  C   UNL     1      48.878   8.049  15.909  0.00  0.00    +0.000 A 
ATOM     22  C   UNL     1      48.930   8.636  17.166  0.00  0.00    +0.000 A 
ATOM     23  S   UNL     1      49.015  10.338  17.121  0.00  0.00    +0.000 S 
ATOM     24  C   UNL     1      49.027  10.348  15.420  0.00  0.00    +0.000 A 
ATOM     25  N   UNL     1      49.118  11.516  14.735  0.00  0.00    +0.000 NA
ATOM     26  C   UNL     1      49.149  11.382  13.449  0.00  0.00    +0.000 A 
ATOM     27  N   UNL     1      49.081  10.186  12.767  0.00  0.00    +0.000 N 
ATOM     28  C   UNL     1      49.107  10.158  11.320  0.00  0.00    +0.000 C 
ATOM     29  C   UNL     1      48.934   8.975  13.438  0.00  0.00    +0.000 A 
ATOM     30  O   UNL     1      48.775   7.908  12.848  0.00  0.00    +0.000 OA
ATOM     31  C   UNL     1      48.938   9.075  14.889  0.00  0.00    +0.000 A 
ENDBRANCH  18  21
ENDBRANCH   2  17
TORSDOF 6
ENDMDL
MODEL 5
REMARK VINA RESULT:    -7.058      1.474      1.899
REMARK INTER + INTRA:         -10.764
REMARK INTER:                  -9.383
REMARK INTRA:                  -1.380
REMARK UNBOUND:                -1.230
REMARK  Name = 
REMARK  8 active torsions:
REMARK  status: ('A' for Active; 'I' for Inactive)
REMARK    1  A    between atoms: C_1  and  C_2
REMARK    2  A    between atoms: C_2  and  N_3
REMARK    3  A    between atoms: C_2  and  C_17
REMARK    4  A    between atoms: C_4  and  C_6
REMARK    5  A    between atoms: N_12  and  C_13
REMARK    6  A    between atoms: C_20  and  O_21
REMARK    7  A    between atoms: O_21  and  C_22
REMARK    8  A    between atoms: C_22  and  C_23
REMARK                            x       y       z     vdW  Elec       q    Type
REMARK                         _______ _______ _______ _____ _____    ______ ____
ROOT
ATOM      1  C   UNL     1      49.122   7.735  11.750  0.00  0.00    +0.000 C 
ATOM      2  C   UNL     1      48.200   7.769  12.975  0.00  0.00    +0.000 C 
ENDROOT
BRANCH   2   3
ATOM      3  C   UNL     1      47.056   6.772  12.911  0.00  0.00    +0.000 A 
ATOM      4  C   UNL     1      45.738   7.235  12.778  0.00  0.00    +0.000 A 
ATOM      5  C   UNL     1      44.667   6.340  12.718  0.00  0.00    +0.000 A 
ATOM      6  C   UNL     1      44.896   4.966  12.784  0.00  0.00    +0.000 A 
ATOM      7  C   UNL     1      46.193   4.498  12.982  0.00  0.00    +0.000 A 
ATOM      8  C   UNL     1      47.263   5.392  13.044  0.00  0.00    +0.000 A 
BRANCH   6   9
ATOM      9  O   UNL     1      43.790   4.170  12.657  0.00  0.00    +0.000 OA
BRANCH   9  10
ATOM     10  C   UNL     1      43.096   4.296  11.414  0.00  0.00    +0.000 C 
BRANCH  10  11
ATOM     11  C   UNL     1      43.974   3.818  10.297  0.00  0.00    +0.000 A 
ATOM     12  C   UNL     1      44.278   2.461  10.144  0.00  0.00    +0.000 A 
ATOM     13  C   UNL     1      45.044   2.045   9.061  0.00  0.00    +0.000 A 
ATOM     14  C   UNL     1      45.478   3.002   8.161  0.00  0.00    +0.000 A 
ATOM     15  N   UNL     1      45.204   4.320   8.271  0.00  0.00    +0.000 NA
ATOM     16  C   UNL     1      44.460   4.697   9.335  0.00  0.00    +0.000 A 
ENDBRANCH  10  11
ENDBRANCH   9  10
ENDBRANCH   6   9
ENDBRANCH   2   3
BRANCH   2  17
ATOM     17  N   UNL     1      48.992   7.520  14.160  0.00  0.00    +0.000 N 
ATOM     18  C   UNL     1      48.770   8.147  15.356  0.00  0.00    +0.000 C 
ATOM     19  O   UNL     1      47.941   9.042  15.492  0.00  0.00    +0.000 OA
ATOM     20  H   UNL     1      49.506   6.646  14.165  0.00  0.00    +0.000 HD
BRANCH  18  21
ATOM     21  C   UNL     1      49.642   7.737  16.466  0.00  0.00    +0.000 A 
ATOM     22  C   UNL     1      50.481   8.674  17.055  0.00  0.00    +0.000 A 
ATOM     23  S   UNL     1      51.450   8.034  18.302  0.00  0.00    +0.000 S 
ATOM     24  C   UNL     1      50.753   6.492  18.127  0.00  0.00    +0.000 A 
ATOM     25  N   UNL     1      51.128   5.466  18.934  0.00  0.00    +0.000 NA
ATOM     26  C   UNL     1      50.500   4.357  18.717  0.00  0.00    +0.000 A 
ATOM     27  N   UNL     1      49.533   4.160  17.755  0.00  0.00    +0.000 N 
ATOM     28  C   UNL     1      48.906   2.865  17.593  0.00  0.00    +0.000 C 
ATOM     29  C   UNL     1      49.162   5.175  16.878  0.00  0.00    +0.000 A 
ATOM     30  O   UNL     1      48.374   4.994  15.952  0.00  0.00    +0.000 OA
ATOM     31  C   UNL     1      49.815   6.454  17.114  0.00  0.00    +0.000 A 
ENDBRANCH  18  21
ENDBRANCH   2  17
TORSDOF 6
ENDMDL
MODEL 6
REMARK VINA RESULT:    -7.022      4.666      8.029
REMARK INTER + INTRA:         -10.714
REMARK INTER:                  -9.414
REMARK INTRA:                  -1.300
REMARK UNBOUND:                -1.230
REMARK  Name = 
REMARK  8 active torsions:
REMARK  status: ('A' for Active; 'I' for Inactive)
REMARK    1  A    between atoms: C_1  and  C_2
REMARK    2  A    between atoms: C_2  and  N_3
REMARK    3  A    between atoms: C_2  and  C_17
REMARK    4  A    between atoms: C_4  and  C_6
REMARK    5  A    between atoms: N_12  and  C_13
REMARK    6  A    between atoms: C_20  and  O_21
REMARK    7  A    between atoms: O_21  and  C_22
REMARK    8  A    between atoms: C_22  and  C_23
REMARK                            x       y       z     vdW  Elec       q    Type
REMARK                         _______ _______ _______ _____ _____    ______ ____
ROOT
ATOM      1  C   UNL     1      46.098   8.888  13.487  0.00  0.00    +0.000 C 
ATOM      2  C   UNL     1      46.474   8.422  12.076  0.00  0.00    +0.000 C 
ENDROOT
BRANCH   2   3
ATOM      3  C   UNL     1      47.964   8.480  11.785  0.00  0.00    +0.000 A 
ATOM      4  C   UNL     1      48.709   7.291  11.736  0.00  0.00    +0.000 A 
ATOM      5  C   UNL     1      50.081   7.316  11.471  0.00  0.00    +0.000 A 
ATOM      6  C   UNL     1      50.730   8.529  11.247  0.00  0.00    +0.000 A 
ATOM      7  C   UNL     1      50.014   9.719  11.359  0.00  0.00    +0.000 A 
ATOM      8  C   UNL     1      48.644   9.695  11.624  0.00  0.00    +0.000 A 
BRANCH   6   9
ATOM      9  O   UNL     1      52.061   8.445  10.938  0.00  0.00    +0.000 OA
BRANCH   9  10
ATOM     10  C   UNL     1      52.445   7.254  10.246  0.00  0.00    +0.000 C 
BRANCH  10  11
ATOM     11  C   UNL     1      52.686   7.569   8.800  0.00  0.00    +0.000 A 
ATOM     12  C   UNL     1      53.093   8.844   8.394  0.00  0.00    +0.000 A 
ATOM     13  C   UNL     1      53.369   9.084   7.052  0.00  0.00    +0.000 A 
ATOM     14  C   UNL     1      53.232   8.036   6.159  0.00  0.00    +0.000 A 
ATOM     15  N   UNL     1      52.845   6.791   6.512  0.00  0.00    +0.000 NA
ATOM     16  C   UNL     1      52.581   6.586   7.822  0.00  0.00    +0.000 A 
ENDBRANCH  10  11
ENDBRANCH   9  10
ENDBRANCH   6   9
ENDBRANCH   2   3
BRANCH   2  17
ATOM     17  N   UNL     1      46.000   7.066  11.893  0.00  0.00    +0.000 N 
ATOM     18  C   UNL     1      44.738   6.766  11.455  0.00  0.00    +0.000 C 
ATOM     19  O   UNL     1      43.878   7.623  11.273  0.00  0.00    +0.000 OA
ATOM     20  H   UNL     1      46.722   6.361  11.796  0.00  0.00    +0.000 HD
BRANCH  18  21
ATOM     21  C   UNL     1      44.443   5.337  11.283  0.00  0.00    +0.000 A 
ATOM     22  C   UNL     1      43.658   4.685  12.225  0.00  0.00    +0.000 A 
ATOM     23  S   UNL     1      43.438   3.027  11.900  0.00  0.00    +0.000 S 
ATOM     24  C   UNL     1      44.349   3.130  10.467  0.00  0.00    +0.000 A 
ATOM     25  N   UNL     1      44.525   2.039   9.678  0.00  0.00    +0.000 NA
ATOM     26  C   UNL     1      45.210   2.260   8.604  0.00  0.00    +0.000 A 
ATOM     27  N   UNL     1      45.758   3.471   8.239  0.00  0.00    +0.000 N 
ATOM     28  C   UNL     1      46.523   3.597   7.017  0.00  0.00    +0.000 C 
ATOM     29  C   UNL     1      45.641   4.596   9.051  0.00  0.00    +0.000 A 
ATOM     30  O   UNL     1      46.203   5.659   8.792  0.00  0.00    +0.000 OA
ATOM     31  C   UNL     1      44.841   4.403  10.251  0.00  0.00    +0.000 A 
ENDBRANCH  18  21
ENDBRANCH   2  17
TORSDOF 6
ENDMDL
MODEL 7
REMARK VINA RESULT:    -6.636      2.778      4.682
REMARK INTER + INTRA:         -10.193
REMARK INTER:                  -9.215
REMARK INTRA:                  -0.978
REMARK UNBOUND:                -1.230
REMARK  Name = 
REMARK  8 active torsions:
REMARK  status: ('A' for Active; 'I' for Inactive)
REMARK    1  A    between atoms: C_1  and  C_2
REMARK    2  A    between atoms: C_2  and  N_3
REMARK    3  A    between atoms: C_2  and  C_17
REMARK    4  A    between atoms: C_4  and  C_6
REMARK    5  A    between atoms: N_12  and  C_13
REMARK    6  A    between atoms: C_20  and  O_21
REMARK    7  A    between atoms: O_21  and  C_22
REMARK    8  A    between atoms: C_22  and  C_23
REMARK                            x       y       z     vdW  Elec       q    Type
REMARK                         _______ _______ _______ _____ _____    ______ ____
ROOT
ATOM      1  C   UNL     1      47.158   4.879  18.402  0.00  0.00    +0.000 C 
ATOM      2  C   UNL     1      47.716   4.015  17.264  0.00  0.00    +0.000 C 
ENDROOT
BRANCH   2   3
ATOM      3  C   UNL     1      47.662   4.685  15.902  0.00  0.00    +0.000 A 
ATOM      4  C   UNL     1      46.955   4.073  14.855  0.00  0.00    +0.000 A 
ATOM      5  C   UNL     1      46.891   4.667  13.591  0.00  0.00    +0.000 A 
ATOM      6  C   UNL     1      47.526   5.884  13.355  0.00  0.00    +0.000 A 
ATOM      7  C   UNL     1      48.285   6.468  14.367  0.00  0.00    +0.000 A 
ATOM      8  C   UNL     1      48.351   5.874  15.629  0.00  0.00    +0.000 A 
BRANCH   6   9
ATOM      9  O   UNL     1      47.356   6.414  12.104  0.00  0.00    +0.000 OA
BRANCH   9  10
ATOM     10  C   UNL     1      46.026   6.849  11.811  0.00  0.00    +0.000 C 
BRANCH  10  11
ATOM     11  C   UNL     1      45.393   5.906  10.832  0.00  0.00    +0.000 A 
ATOM     12  C   UNL     1      46.035   5.562   9.638  0.00  0.00    +0.000 A 
ATOM     13  C   UNL     1      45.448   4.636   8.783  0.00  0.00    +0.000 A 
ATOM     14  C   UNL     1      44.237   4.078   9.155  0.00  0.00    +0.000 A 
ATOM     15  N   UNL     1      43.587   4.381  10.299  0.00  0.00    +0.000 NA
ATOM     16  C   UNL     1      44.179   5.286  11.111  0.00  0.00    +0.000 A 
ENDBRANCH  10  11
ENDBRANCH   9  10
ENDBRANCH   6   9
ENDBRANCH   2   3
BRANCH   2  17
ATOM     17  N   UNL     1      49.085   3.664  17.576  0.00  0.00    +0.000 N 
ATOM     18  C   UNL     1      49.746   2.624  16.980  0.00  0.00    +0.000 C 
ATOM     19  O   UNL     1      49.198   1.847  16.203  0.00  0.00    +0.000 OA
ATOM     20  H   UNL     1      49.635   4.397  18.009  0.00  0.00    +0.000 HD
BRANCH  18  21
ATOM     21  C   UNL     1      51.147   2.440  17.384  0.00  0.00    +0.000 A 
ATOM     22  C   UNL     1      51.654   1.155  17.521  0.00  0.00    +0.000 A 
ATOM     23  S   UNL     1      53.280   1.113  18.028  0.00  0.00    +0.000 S 
ATOM     24  C   UNL     1      53.378   2.811  18.042  0.00  0.00    +0.000 A 
ATOM     25  N   UNL     1      54.538   3.436  18.366  0.00  0.00    +0.000 NA
ATOM     26  C   UNL     1      54.486   4.727  18.308  0.00  0.00    +0.000 A 
ATOM     27  N   UNL     1      53.375   5.468  17.968  0.00  0.00    +0.000 N 
ATOM     28  C   UNL     1      53.430   6.915  17.952  0.00  0.00    +0.000 C 
ATOM     29  C   UNL     1      52.156   4.861  17.681  0.00  0.00    +0.000 A 
ATOM     30  O   UNL     1      51.130   5.505  17.471  0.00  0.00    +0.000 OA
ATOM     31  C   UNL     1      52.180   3.406  17.694  0.00  0.00    +0.000 A 
ENDBRANCH  18  21
ENDBRANCH   2  17
TORSDOF 6
ENDMDL
MODEL 8
REMARK VINA RESULT:    -6.182      2.702      8.549
REMARK INTER + INTRA:          -9.581
REMARK INTER:                  -9.493
REMARK INTRA:                  -0.088
REMARK UNBOUND:                -1.230
REMARK  Name = 
REMARK  8 active torsions:
REMARK  status: ('A' for Active; 'I' for Inactive)
REMARK    1  A    between atoms: C_1  and  C_2
REMARK    2  A    between atoms: C_2  and  N_3
REMARK    3  A    between atoms: C_2  and  C_17
REMARK    4  A    between atoms: C_4  and  C_6
REMARK    5  A    between atoms: N_12  and  C_13
REMARK    6  A    between atoms: C_20  and  O_21
REMARK    7  A    between atoms: O_21  and  C_22
REMARK    8  A    between atoms: C_22  and  C_23
REMARK                            x       y       z     vdW  Elec       q    Type
REMARK                         _______ _______ _______ _____ _____    ______ ____
ROOT
ATOM      1  C   UNL     1      45.841   9.233  12.279  0.00  0.00    +0.000 C 
ATOM      2  C   UNL     1      46.953   8.194  12.097  0.00  0.00    +0.000 C 
ENDROOT
BRANCH   2   3
ATOM      3  C   UNL     1      47.926   8.124  13.262  0.00  0.00    +0.000 A 
ATOM      4  C   UNL     1      47.644   8.825  14.444  0.00  0.00    +0.000 A 
ATOM      5  C   UNL     1      48.522   8.779  15.531  0.00  0.00    +0.000 A 
ATOM      6  C   UNL     1      49.693   8.027  15.455  0.00  0.00    +0.000 A 
ATOM      7  C   UNL     1      50.015   7.380  14.263  0.00  0.00    +0.000 A 
ATOM      8  C   UNL     1      49.139   7.428  13.178  0.00  0.00    +0.000 A 
BRANCH   6   9
ATOM      9  O   UNL     1      50.458   7.996  16.590  0.00  0.00    +0.000 OA
BRANCH   9  10
ATOM     10  C   UNL     1      49.809   7.445  17.739  0.00  0.00    +0.000 C 
BRANCH  10  11
ATOM     11  C   UNL     1      49.710   5.956  17.593  0.00  0.00    +0.000 A 
ATOM     12  C   UNL     1      50.850   5.148  17.617  0.00  0.00    +0.000 A 
ATOM     13  C   UNL     1      50.717   3.765  17.543  0.00  0.00    +0.000 A 
ATOM     14  C   UNL     1      49.441   3.236  17.451  0.00  0.00    +0.000 A 
ATOM     15  N   UNL     1      48.316   3.982  17.428  0.00  0.00    +0.000 NA
ATOM     16  C   UNL     1      48.475   5.322  17.499  0.00  0.00    +0.000 A 
ENDBRANCH  10  11
ENDBRANCH   9  10
ENDBRANCH   6   9
ENDBRANCH   2   3
BRANCH   2  17
ATOM     17  N   UNL     1      46.347   6.895  11.896  0.00  0.00    +0.000 N 
ATOM     18  C   UNL     1      45.047   6.727  11.501  0.00  0.00    +0.000 C 
ATOM     19  O   UNL     1      44.265   7.665  11.377  0.00  0.00    +0.000 OA
ATOM     20  H   UNL     1      46.995   6.129  11.751  0.00  0.00    +0.000 HD
BRANCH  18  21
ATOM     21  C   UNL     1      44.612   5.337  11.301  0.00  0.00    +0.000 A 
ATOM     22  C   UNL     1      43.813   4.730  12.260  0.00  0.00    +0.000 A 
ATOM     23  S   UNL     1      43.424   3.110  11.898  0.00  0.00    +0.000 S 
ATOM     24  C   UNL     1      44.276   3.177  10.427  0.00  0.00    +0.000 A 
ATOM     25  N   UNL     1      44.314   2.102   9.599  0.00  0.00    +0.000 NA
ATOM     26  C   UNL     1      44.969   2.295   8.501  0.00  0.00    +0.000 A 
ATOM     27  N   UNL     1      45.611   3.462   8.146  0.00  0.00    +0.000 N 
ATOM     28  C   UNL     1      46.329   3.557   6.892  0.00  0.00    +0.000 C 
ATOM     29  C   UNL     1      45.635   4.565   8.995  0.00  0.00    +0.000 A 
ATOM     30  O   UNL     1      46.282   5.580   8.741  0.00  0.00    +0.000 OA
ATOM     31  C   UNL     1      44.875   4.406  10.225  0.00  0.00    +0.000 A 
ENDBRANCH  18  21
ENDBRANCH   2  17
TORSDOF 6
ENDMDL
MODEL 9
REMARK VINA RESULT:    -5.946      5.466      7.565
REMARK INTER + INTRA:          -9.261
REMARK INTER:                  -7.895
REMARK INTRA:                  -1.366
REMARK UNBOUND:                -1.230
REMARK  Name = 
REMARK  8 active torsions:
REMARK  status: ('A' for Active; 'I' for Inactive)
REMARK    1  A    between atoms: C_1  and  C_2
REMARK    2  A    between atoms: C_2  and  N_3
REMARK    3  A    between atoms: C_2  and  C_17
REMARK    4  A    between atoms: C_4  and  C_6
REMARK    5  A    between atoms: N_12  and  C_13
REMARK    6  A    between atoms: C_20  and  O_21
REMARK    7  A    between atoms: O_21  and  C_22
REMARK    8  A    between atoms: C_22  and  C_23
REMARK                            x       y       z     vdW  Elec       q    Type
REMARK                         _______ _______ _______ _____ _____    ______ ____
ROOT
ATOM      1  C   UNL     1      50.896  10.351  11.712  0.00  0.00    +0.000 C 
ATOM      2  C   UNL     1      50.885   8.827  11.883  0.00  0.00    +0.000 C 
ENDROOT
BRANCH   2   3
ATOM      3  C   UNL     1      49.506   8.249  12.149  0.00  0.00    +0.000 A 
ATOM      4  C   UNL     1      48.366   9.029  11.897  0.00  0.00    +0.000 A 
ATOM      5  C   UNL     1      47.085   8.522  12.133  0.00  0.00    +0.000 A 
ATOM      6  C   UNL     1      46.922   7.226  12.620  0.00  0.00    +0.000 A 
ATOM      7  C   UNL     1      48.047   6.467  12.936  0.00  0.00    +0.000 A 
ATOM      8  C   UNL     1      49.326   6.974  12.701  0.00  0.00    +0.000 A 
BRANCH   6   9
ATOM      9  O   UNL     1      45.629   6.800  12.763  0.00  0.00    +0.000 OA
BRANCH   9  10
ATOM     10  C   UNL     1      44.808   6.967  11.603  0.00  0.00    +0.000 C 
BRANCH  10  11
ATOM     11  C   UNL     1      44.575   5.634  10.957  0.00  0.00    +0.000 A 
ATOM     12  C   UNL     1      45.379   5.188   9.905  0.00  0.00    +0.000 A 
ATOM     13  C   UNL     1      45.175   3.921   9.370  0.00  0.00    +0.000 A 
ATOM     14  C   UNL     1      44.171   3.137   9.913  0.00  0.00    +0.000 A 
ATOM     15  N   UNL     1      43.376   3.530  10.931  0.00  0.00    +0.000 NA
ATOM     16  C   UNL     1      43.595   4.767  11.430  0.00  0.00    +0.000 A 
ENDBRANCH  10  11
ENDBRANCH   9  10
ENDBRANCH   6   9
ENDBRANCH   2   3
BRANCH   2  17
ATOM     17  N   UNL     1      51.441   8.221  10.692  0.00  0.00    +0.000 N 
ATOM     18  C   UNL     1      52.716   7.729  10.627  0.00  0.00    +0.000 C 
ATOM     19  O   UNL     1      53.521   7.848  11.546  0.00  0.00    +0.000 OA
ATOM     20  H   UNL     1      50.763   7.890  10.015  0.00  0.00    +0.000 HD
BRANCH  18  21
ATOM     21  C   UNL     1      53.098   7.106   9.352  0.00  0.00    +0.000 A 
ATOM     22  C   UNL     1      53.444   5.762   9.327  0.00  0.00    +0.000 A 
ATOM     23  S   UNL     1      53.893   5.201   7.781  0.00  0.00    +0.000 S 
ATOM     24  C   UNL     1      53.601   6.725   7.083  0.00  0.00    +0.000 A 
ATOM     25  N   UNL     1      53.768   6.920   5.750  0.00  0.00    +0.000 NA
ATOM     26  C   UNL     1      53.483   8.114   5.343  0.00  0.00    +0.000 A 
ATOM     27  N   UNL     1      53.055   9.151   6.144  0.00  0.00    +0.000 N 
ATOM     28  C   UNL     1      52.780  10.455   5.578  0.00  0.00    +0.000 C 
ATOM     29  C   UNL     1      52.923   8.999   7.521  0.00  0.00    +0.000 A 
ATOM     30  O   UNL     1      52.637   9.936   8.265  0.00  0.00    +0.000 OA
ATOM     31  C   UNL     1      53.194   7.659   8.017  0.00  0.00    +0.000 A 
ENDBRANCH  18  21
ENDBRANCH   2  17
TORSDOF 6
ENDMDL
