MODEL 1
REMARK VINA RESULT:    -7.699      0.000      0.000
REMARK INTER + INTRA:         -12.372
REMARK INTER:                 -11.075
REMARK INTRA:                  -1.297
REMARK UNBOUND:                -1.297
REMARK  Name = 
REMARK  9 active torsions:
REMARK  status: ('A' for Active; 'I' for Inactive)
REMARK    1  A    between atoms: C_1  and  N_2
REMARK    2  A    between atoms: N_2  and  C_3
REMARK    3  A    between atoms: C_3  and  C_4
REMARK    4  A    between atoms: C_7  and  C_8
REMARK    5  A    between atoms: C_8  and  O_9
REMARK    6  A    between atoms: C_8  and  C_10
REMARK    7  A    between atoms: C_10  and  N_11
REMARK    8  A    between atoms: N_11  and  C_12
REMARK    9  A    between atoms: C_19  and  C_21
REMARK                            x       y       z     vdW  Elec       q    Type
REMARK                         _______ _______ _______ _____ _____    ______ ____
ROOT
ATOM      1  C   UNL     1      47.538   5.816  13.801  0.00  0.00    +0.000 A 
ATOM      2  C   UNL     1      46.954   4.644  14.303  0.00  0.00    +0.000 A 
ATOM      3  C   UNL     1      47.123   4.294  15.643  0.00  0.00    +0.000 A 
ATOM      4  C   UNL     1      47.873   5.113  16.499  0.00  0.00    +0.000 A 
ATOM      5  C   UNL     1      48.483   6.261  15.973  0.00  0.00    +0.000 A 
ATOM      6  C   UNL     1      48.311   6.618  14.642  0.00  0.00    +0.000 A 
ENDROOT
BRANCH   1   7
ATOM      7  C   UNL     1      47.316   6.242  12.379  0.00  0.00    +0.000 C 
BRANCH   7   9
ATOM      8  C   UNL     1      46.573   8.655  12.158  0.00  0.00    +0.000 C 
ATOM      9  N   UNL     1      46.259   7.229  12.140  0.00  0.00    +0.000 N 
ATOM     10  C   UNL     1      45.003   6.885  11.610  0.00  0.00    +0.000 C 
ATOM     11  O   UNL     1      44.222   7.748  11.214  0.00  0.00    +0.000 OA
BRANCH  10  12
ATOM     12  C   UNL     1      44.607   5.471  11.565  0.00  0.00    +0.000 A 
ATOM     13  C   UNL     1      43.855   4.833  12.539  0.00  0.00    +0.000 A 
ATOM     14  S   UNL     1      43.503   3.204  12.177  0.00  0.00    +0.000 S 
ATOM     15  C   UNL     1      44.216   3.338  10.639  0.00  0.00    +0.000 A 
ATOM     16  N   UNL     1      44.160   2.312   9.756  0.00  0.00    +0.000 NA
ATOM     17  C   UNL     1      44.687   2.579   8.605  0.00  0.00    +0.000 A 
ATOM     18  N   UNL     1      45.299   3.763   8.281  0.00  0.00    +0.000 N 
ATOM     19  C   UNL     1      45.504   4.779   9.189  0.00  0.00    +0.000 A 
ATOM     20  O   UNL     1      46.263   5.705   8.942  0.00  0.00    +0.000 OA
ATOM     21  C   UNL     1      44.808   4.575  10.453  0.00  0.00    +0.000 A 
ATOM     22  H   UNL     1      45.756   3.878   7.388  0.00  0.00    +0.000 HD
ENDBRANCH  10  12
ENDBRANCH   7   9
ENDBRANCH   1   7
BRANCH   4  23
ATOM     23  C   UNL     1      48.022   4.729  17.955  0.00  0.00    +0.000 C 
BRANCH  23  24
ATOM     24  O   UNL     1      46.736   4.798  18.577  0.00  0.00    +0.000 OA
ATOM     25  H   UNL     1      46.118   4.300  18.014  0.00  0.00    +0.000 HD
ENDBRANCH  23  24
BRANCH  23  26
ATOM     26  C   UNL     1      48.607   3.316  18.210  0.00  0.00    +0.000 C 
BRANCH  26  27
ATOM     27  N   UNL     1      50.008   3.318  18.648  0.00  0.00    +0.000 NA
ATOM     28  H   UNL     1      50.151   2.641  19.396  0.00  0.00    +0.000 HD
BRANCH  27  29
ATOM     29  C   UNL     1      50.958   3.081  17.552  0.00  0.00    +0.000 C 
ATOM     30  C   UNL     1      50.921   1.671  16.973  0.00  0.00    +0.000 C 
ATOM     31  C   UNL     1      52.005   0.931  17.724  0.00  0.00    +0.000 C 
ATOM     32  N   UNL     1      53.079   1.911  17.885  0.00  0.00    +0.000 NA
ATOM     33  C   UNL     1      52.416   3.219  18.047  0.00  0.00    +0.000 C 
ATOM     34  H   UNL     1      53.635   1.935  17.031  0.00  0.00    +0.000 HD
ENDBRANCH  27  29
ENDBRANCH  26  27
ENDBRANCH  23  26
ENDBRANCH   4  23
TORSDOF 8
ENDMDL
MODEL 2
REMARK VINA RESULT:    -7.202      1.579      2.245
REMARK INTER + INTRA:         -11.657
REMARK INTER:                 -10.297
REMARK INTRA:                  -1.360
REMARK UNBOUND:                -1.297
REMARK  Name = 
REMARK  9 active torsions:
REMARK  status: ('A' for Active; 'I' for Inactive)
REMARK    1  A    between atoms: C_1  and  N_2
REMARK    2  A    between atoms: N_2  and  C_3
REMARK    3  A    between atoms: C_3  and  C_4
REMARK    4  A    between atoms: C_7  and  C_8
REMARK    5  A    between atoms: C_8  and  O_9
REMARK    6  A    between atoms: C_8  and  C_10
REMARK    7  A    between atoms: C_10  and  N_11
REMARK    8  A    between atoms: N_11  and  C_12
REMARK    9  A    between atoms: C_19  and  C_21
REMARK                            x       y       z     vdW  Elec       q    Type
REMARK                         _______ _______ _______ _____ _____    ______ ____
ROOT
ATOM      1  C   UNL     1      47.529   5.701  13.757  0.00  0.00    +0.000 A 
ATOM      2  C   UNL     1      46.940   4.436  13.892  0.00  0.00    +0.000 A 
ATOM      3  C   UNL     1      47.007   3.757  15.109  0.00  0.00    +0.000 A 
ATOM      4  C   UNL     1      47.660   4.335  16.207  0.00  0.00    +0.000 A 
ATOM      5  C   UNL     1      48.279   5.583  16.044  0.00  0.00    +0.000 A 
ATOM      6  C   UNL     1      48.207   6.267  14.838  0.00  0.00    +0.000 A 
ENDROOT
BRANCH   1   7
ATOM      7  C   UNL     1      47.414   6.474  12.476  0.00  0.00    +0.000 C 
BRANCH   7   9
ATOM      8  C   UNL     1      46.481   8.762  13.038  0.00  0.00    +0.000 C 
ATOM      9  N   UNL     1      46.333   7.461  12.392  0.00  0.00    +0.000 N 
ATOM     10  C   UNL     1      45.266   7.346  11.484  0.00  0.00    +0.000 C 
ATOM     11  O   UNL     1      44.501   8.285  11.280  0.00  0.00    +0.000 OA
BRANCH  10  12
ATOM     12  C   UNL     1      45.044   6.066  10.798  0.00  0.00    +0.000 A 
ATOM     13  C   UNL     1      45.593   5.723   9.572  0.00  0.00    +0.000 A 
ATOM     14  S   UNL     1      45.202   4.145   9.061  0.00  0.00    +0.000 S 
ATOM     15  C   UNL     1      44.408   3.812  10.527  0.00  0.00    +0.000 A 
ATOM     16  N   UNL     1      43.925   2.573  10.789  0.00  0.00    +0.000 NA
ATOM     17  C   UNL     1      43.405   2.450  11.968  0.00  0.00    +0.000 A 
ATOM     18  N   UNL     1      43.290   3.465  12.882  0.00  0.00    +0.000 N 
ATOM     19  C   UNL     1      43.638   4.770  12.607  0.00  0.00    +0.000 A 
ATOM     20  O   UNL     1      43.296   5.685  13.343  0.00  0.00    +0.000 OA
ATOM     21  C   UNL     1      44.350   4.925  11.346  0.00  0.00    +0.000 A 
ATOM     22  H   UNL     1      42.806   3.318  13.756  0.00  0.00    +0.000 HD
ENDBRANCH  10  12
ENDBRANCH   7   9
ENDBRANCH   1   7
BRANCH   4  23
ATOM     23  C   UNL     1      47.699   3.593  17.525  0.00  0.00    +0.000 C 
BRANCH  23  24
ATOM     24  O   UNL     1      46.480   2.858  17.670  0.00  0.00    +0.000 OA
ATOM     25  H   UNL     1      46.262   2.492  16.795  0.00  0.00    +0.000 HD
ENDBRANCH  23  24
BRANCH  23  26
ATOM     26  C   UNL     1      48.882   2.605  17.694  0.00  0.00    +0.000 C 
BRANCH  26  27
ATOM     27  N   UNL     1      50.035   3.169  18.406  0.00  0.00    +0.000 NA
ATOM     28  H   UNL     1      50.269   2.598  19.218  0.00  0.00    +0.000 HD
BRANCH  27  29
ATOM     29  C   UNL     1      51.214   3.349  17.548  0.00  0.00    +0.000 C 
ATOM     30  C   UNL     1      52.485   2.682  18.066  0.00  0.00    +0.000 C 
ATOM     31  C   UNL     1      53.196   3.778  18.827  0.00  0.00    +0.000 C 
ATOM     32  N   UNL     1      52.958   4.990  18.043  0.00  0.00    +0.000 NA
ATOM     33  C   UNL     1      51.610   4.841  17.462  0.00  0.00    +0.000 C 
ATOM     34  H   UNL     1      53.635   5.028  17.281  0.00  0.00    +0.000 HD
ENDBRANCH  27  29
ENDBRANCH  26  27
ENDBRANCH  23  26
ENDBRANCH   4  23
TORSDOF 8
ENDMDL
MODEL 3
REMARK VINA RESULT:    -7.111      3.392      8.615
REMARK INTER + INTRA:         -11.526
REMARK INTER:                 -10.271
REMARK INTRA:                  -1.255
REMARK UNBOUND:                -1.297
REMARK  Name = 
REMARK  9 active torsions:
REMARK  status: ('A' for Active; 'I' for Inactive)
REMARK    1  A    between atoms: C_1  and  N_2
REMARK    2  A    between atoms: N_2  and  C_3
REMARK    3  A    between atoms: C_3  and  C_4
REMARK    4  A    between atoms: C_7  and  C_8
REMARK    5  A    between atoms: C_8  and  O_9
REMARK    6  A    between atoms: C_8  and  C_10
REMARK    7  A    between atoms: C_10  and  N_11
REMARK    8  A    between atoms: N_11  and  C_12
REMARK    9  A    between atoms: C_19  and  C_21
REMARK                            x       y       z     vdW  Elec       q    Type
REMARK                         _______ _______ _______ _____ _____    ______ ____
ROOT
ATOM      1  C   UNL     1      46.711   6.353  13.057  0.00  0.00    +0.000 A 
ATOM      2  C   UNL     1      46.379   6.653  11.728  0.00  0.00    +0.000 A 
ATOM      3  C   UNL     1      45.639   5.747  10.968  0.00  0.00    +0.000 A 
ATOM      4  C   UNL     1      45.218   4.532  11.529  0.00  0.00    +0.000 A 
ATOM      5  C   UNL     1      45.591   4.230  12.846  0.00  0.00    +0.000 A 
ATOM      6  C   UNL     1      46.320   5.133  13.609  0.00  0.00    +0.000 A 
ENDROOT
BRANCH   1   7
ATOM      7  C   UNL     1      47.452   7.342  13.910  0.00  0.00    +0.000 C 
BRANCH   7   9
ATOM      8  C   UNL     1      49.718   7.617  12.808  0.00  0.00    +0.000 C 
ATOM      9  N   UNL     1      48.912   7.213  13.956  0.00  0.00    +0.000 N 
ATOM     10  C   UNL     1      49.617   6.987  15.151  0.00  0.00    +0.000 C 
ATOM     11  O   UNL     1      50.840   7.103  15.199  0.00  0.00    +0.000 OA
BRANCH  10  12
ATOM     12  C   UNL     1      48.880   6.569  16.351  0.00  0.00    +0.000 A 
ATOM     13  C   UNL     1      48.582   5.254  16.674  0.00  0.00    +0.000 A 
ATOM     14  S   UNL     1      47.769   5.080  18.162  0.00  0.00    +0.000 S 
ATOM     15  C   UNL     1      47.917   6.741  18.496  0.00  0.00    +0.000 A 
ATOM     16  N   UNL     1      47.515   7.248  19.687  0.00  0.00    +0.000 NA
ATOM     17  C   UNL     1      47.748   8.514  19.825  0.00  0.00    +0.000 A 
ATOM     18  N   UNL     1      48.308   9.315  18.863  0.00  0.00    +0.000 N 
ATOM     19  C   UNL     1      48.603   8.874  17.592  0.00  0.00    +0.000 A 
ATOM     20  O   UNL     1      48.862   9.661  16.693  0.00  0.00    +0.000 OA
ATOM     21  C   UNL     1      48.482   7.430  17.438  0.00  0.00    +0.000 A 
ATOM     22  H   UNL     1      48.394  10.310  19.010  0.00  0.00    +0.000 HD
ENDBRANCH  10  12
ENDBRANCH   7   9
ENDBRANCH   1   7
BRANCH   4  23
ATOM     23  C   UNL     1      44.394   3.574  10.695  0.00  0.00    +0.000 C 
BRANCH  23  24
ATOM     24  O   UNL     1      43.125   3.394  11.332  0.00  0.00    +0.000 OA
ATOM     25  H   UNL     1      42.570   4.153  11.083  0.00  0.00    +0.000 HD
ENDBRANCH  23  24
BRANCH  23  26
ATOM     26  C   UNL     1      44.140   4.019   9.232  0.00  0.00    +0.000 C 
BRANCH  26  27
ATOM     27  N   UNL     1      44.579   3.043   8.226  0.00  0.00    +0.000 NA
ATOM     28  H   UNL     1      44.245   3.309   7.300  0.00  0.00    +0.000 HD
BRANCH  27  29
ATOM     29  C   UNL     1      46.034   2.843   8.210  0.00  0.00    +0.000 C 
ATOM     30  C   UNL     1      46.763   3.563   7.080  0.00  0.00    +0.000 C 
ATOM     31  C   UNL     1      46.870   2.526   5.985  0.00  0.00    +0.000 C 
ATOM     32  N   UNL     1      47.124   1.269   6.689  0.00  0.00    +0.000 NA
ATOM     33  C   UNL     1      46.383   1.357   7.961  0.00  0.00    +0.000 C 
ATOM     34  H   UNL     1      48.120   1.204   6.899  0.00  0.00    +0.000 HD
ENDBRANCH  27  29
ENDBRANCH  26  27
ENDBRANCH  23  26
ENDBRANCH   4  23
TORSDOF 8
ENDMDL
MODEL 4
REMARK VINA RESULT:    -7.106      3.379      8.443
REMARK INTER + INTRA:         -11.518
REMARK INTER:                 -10.437
REMARK INTRA:                  -1.081
REMARK UNBOUND:                -1.297
REMARK  Name = 
REMARK  9 active torsions:
REMARK  status: ('A' for Active; 'I' for Inactive)
REMARK    1  A    between atoms: C_1  and  N_2
REMARK    2  A    between atoms: N_2  and  C_3
REMARK    3  A    between atoms: C_3  and  C_4
REMARK    4  A    between atoms: C_7  and  C_8
REMARK    5  A    between atoms: C_8  and  O_9
REMARK    6  A    between atoms: C_8  and  C_10
REMARK    7  A    between atoms: C_10  and  N_11
REMARK    8  A    between atoms: N_11  and  C_12
REMARK    9  A    between atoms: C_19  and  C_21
REMARK                            x       y       z     vdW  Elec       q    Type
REMARK                         _______ _______ _______ _____ _____    ______ ____
ROOT
ATOM      1  C   UNL     1      46.530   6.673  12.917  0.00  0.00    +0.000 A 
ATOM      2  C   UNL     1      46.426   5.352  13.376  0.00  0.00    +0.000 A 
ATOM      3  C   UNL     1      45.680   4.417  12.658  0.00  0.00    +0.000 A 
ATOM      4  C   UNL     1      45.033   4.789  11.471  0.00  0.00    +0.000 A 
ATOM      5  C   UNL     1      45.115   6.123  11.047  0.00  0.00    +0.000 A 
ATOM      6  C   UNL     1      45.863   7.055  11.753  0.00  0.00    +0.000 A 
ENDROOT
BRANCH   1   7
ATOM      7  C   UNL     1      47.378   7.677  13.642  0.00  0.00    +0.000 C 
BRANCH   7   9
ATOM      8  C   UNL     1      49.457   7.126  12.301  0.00  0.00    +0.000 C 
ATOM      9  N   UNL     1      48.831   7.495  13.568  0.00  0.00    +0.000 N 
ATOM     10  C   UNL     1      49.705   7.930  14.579  0.00  0.00    +0.000 C 
ATOM     11  O   UNL     1      50.919   7.967  14.398  0.00  0.00    +0.000 OA
BRANCH  10  12
ATOM     12  C   UNL     1      49.155   8.311  15.887  0.00  0.00    +0.000 A 
ATOM     13  C   UNL     1      48.857   9.611  16.268  0.00  0.00    +0.000 A 
ATOM     14  S   UNL     1      48.174   9.730  17.825  0.00  0.00    +0.000 S 
ATOM     15  C   UNL     1      48.115   8.038  17.985  0.00  0.00    +0.000 A 
ATOM     16  N   UNL     1      47.529   7.463  19.064  0.00  0.00    +0.000 NA
ATOM     17  C   UNL     1      47.500   6.170  19.019  0.00  0.00    +0.000 A 
ATOM     18  N   UNL     1      48.042   5.410  18.014  0.00  0.00    +0.000 N 
ATOM     19  C   UNL     1      48.767   5.945  16.972  0.00  0.00    +0.000 A 
ATOM     20  O   UNL     1      49.441   5.234  16.240  0.00  0.00    +0.000 OA
ATOM     21  C   UNL     1      48.708   7.399  16.912  0.00  0.00    +0.000 A 
ATOM     22  H   UNL     1      48.049   4.403  18.079  0.00  0.00    +0.000 HD
ENDBRANCH  10  12
ENDBRANCH   7   9
ENDBRANCH   1   7
BRANCH   4  23
ATOM     23  C   UNL     1      44.251   3.753  10.693  0.00  0.00    +0.000 C 
BRANCH  23  24
ATOM     24  O   UNL     1      42.930   3.676  11.240  0.00  0.00    +0.000 OA
ATOM     25  H   UNL     1      42.311   3.894  10.522  0.00  0.00    +0.000 HD
ENDBRANCH  23  24
BRANCH  23  26
ATOM     26  C   UNL     1      44.128   4.020   9.171  0.00  0.00    +0.000 C 
BRANCH  26  27
ATOM     27  N   UNL     1      44.577   2.904   8.330  0.00  0.00    +0.000 NA
ATOM     28  H   UNL     1      44.189   2.984   7.390  0.00  0.00    +0.000 HD
BRANCH  27  29
ATOM     29  C   UNL     1      46.039   2.774   8.271  0.00  0.00    +0.000 C 
ATOM     30  C   UNL     1      46.704   3.569   7.152  0.00  0.00    +0.000 C 
ATOM     31  C   UNL     1      46.832   2.578   6.017  0.00  0.00    +0.000 C 
ATOM     32  N   UNL     1      47.163   1.310   6.667  0.00  0.00    +0.000 NA
ATOM     33  C   UNL     1      46.451   1.317   7.959  0.00  0.00    +0.000 C 
ATOM     34  H   UNL     1      48.166   1.286   6.851  0.00  0.00    +0.000 HD
ENDBRANCH  27  29
ENDBRANCH  26  27
ENDBRANCH  23  26
ENDBRANCH   4  23
TORSDOF 8
ENDMDL
MODEL 5
REMARK VINA RESULT:    -6.835      2.261      8.189
REMARK INTER + INTRA:         -11.129
REMARK INTER:                 -10.097
REMARK INTRA:                  -1.032
REMARK UNBOUND:                -1.297
REMARK  Name = 
REMARK  9 active torsions:
REMARK  status: ('A' for Active; 'I' for Inactive)
REMARK    1  A    between atoms: C_1  and  N_2
REMARK    2  A    between atoms: N_2  and  C_3
REMARK    3  A    between atoms: C_3  and  C_4
REMARK    4  A    between atoms: C_7  and  C_8
REMARK    5  A    between atoms: C_8  and  O_9
REMARK    6  A    between atoms: C_8  and  C_10
REMARK    7  A    between atoms: C_10  and  N_11
REMARK    8  A    between atoms: N_11  and  C_12
REMARK    9  A    between atoms: C_19  and  C_21
REMARK                            x       y       z     vdW  Elec       q    Type
REMARK                         _______ _______ _______ _____ _____    ______ ____
ROOT
ATOM      1  C   UNL     1      47.663   6.442  13.969  0.00  0.00    +0.000 A 
ATOM      2  C   UNL     1      47.014   5.201  13.896  0.00  0.00    +0.000 A 
ATOM      3  C   UNL     1      45.854   5.060  13.134  0.00  0.00    +0.000 A 
ATOM      4  C   UNL     1      45.332   6.156  12.431  0.00  0.00    +0.000 A 
ATOM      5  C   UNL     1      45.970   7.399  12.546  0.00  0.00    +0.000 A 
ATOM      6  C   UNL     1      47.130   7.542  13.296  0.00  0.00    +0.000 A 
ENDROOT
BRANCH   1   7
ATOM      7  C   UNL     1      48.946   6.599  14.733  0.00  0.00    +0.000 C 
BRANCH   7   9
ATOM      8  C   UNL     1      48.910   8.849  15.898  0.00  0.00    +0.000 C 
ATOM      9  N   UNL     1      48.891   7.391  15.965  0.00  0.00    +0.000 N 
ATOM     10  C   UNL     1      48.532   6.839  17.208  0.00  0.00    +0.000 C 
ATOM     11  O   UNL     1      48.279   7.557  18.172  0.00  0.00    +0.000 OA
BRANCH  10  12
ATOM     12  C   UNL     1      48.498   5.378  17.361  0.00  0.00    +0.000 A 
ATOM     13  C   UNL     1      47.350   4.605  17.277  0.00  0.00    +0.000 A 
ATOM     14  S   UNL     1      47.636   2.932  17.437  0.00  0.00    +0.000 S 
ATOM     15  C   UNL     1      49.320   3.172  17.475  0.00  0.00    +0.000 A 
ATOM     16  N   UNL     1      50.170   2.117  17.492  0.00  0.00    +0.000 NA
ATOM     17  C   UNL     1      51.421   2.450  17.454  0.00  0.00    +0.000 A 
ATOM     18  N   UNL     1      51.887   3.739  17.443  0.00  0.00    +0.000 N 
ATOM     19  C   UNL     1      51.065   4.839  17.566  0.00  0.00    +0.000 A 
ATOM     20  O   UNL     1      51.524   5.948  17.803  0.00  0.00    +0.000 OA
ATOM     21  C   UNL     1      49.648   4.515  17.475  0.00  0.00    +0.000 A 
ATOM     22  H   UNL     1      52.877   3.928  17.488  0.00  0.00    +0.000 HD
ENDBRANCH  10  12
ENDBRANCH   7   9
ENDBRANCH   1   7
BRANCH   4  23
ATOM     23  C   UNL     1      44.087   5.975  11.589  0.00  0.00    +0.000 C 
BRANCH  23  24
ATOM     24  O   UNL     1      43.862   7.178  10.847  0.00  0.00    +0.000 OA
ATOM     25  H   UNL     1      42.922   7.405  10.950  0.00  0.00    +0.000 HD
ENDBRANCH  23  24
BRANCH  23  26
ATOM     26  C   UNL     1      44.130   4.791  10.589  0.00  0.00    +0.000 C 
BRANCH  26  27
ATOM     27  N   UNL     1      45.193   4.897   9.583  0.00  0.00    +0.000 NA
ATOM     28  H   UNL     1      46.099   4.674   9.995  0.00  0.00    +0.000 HD
BRANCH  27  29
ATOM     29  C   UNL     1      44.951   4.068   8.395  0.00  0.00    +0.000 C 
ATOM     30  C   UNL     1      44.503   2.641   8.695  0.00  0.00    +0.000 C 
ATOM     31  C   UNL     1      45.782   1.836   8.675  0.00  0.00    +0.000 C 
ATOM     32  N   UNL     1      46.571   2.422   7.591  0.00  0.00    +0.000 NA
ATOM     33  C   UNL     1      46.255   3.863   7.590  0.00  0.00    +0.000 C 
ATOM     34  H   UNL     1      46.262   2.024   6.704  0.00  0.00    +0.000 HD
ENDBRANCH  27  29
ENDBRANCH  26  27
ENDBRANCH  23  26
ENDBRANCH   4  23
TORSDOF 8
ENDMDL
MODEL 6
REMARK VINA RESULT:    -6.817      2.883      8.425
REMARK INTER + INTRA:         -11.102
REMARK INTER:                  -9.969
REMARK INTRA:                  -1.134
REMARK UNBOUND:                -1.297
REMARK  Name = 
REMARK  9 active torsions:
REMARK  status: ('A' for Active; 'I' for Inactive)
REMARK    1  A    between atoms: C_1  and  N_2
REMARK    2  A    between atoms: N_2  and  C_3
REMARK    3  A    between atoms: C_3  and  C_4
REMARK    4  A    between atoms: C_7  and  C_8
REMARK    5  A    between atoms: C_8  and  O_9
REMARK    6  A    between atoms: C_8  and  C_10
REMARK    7  A    between atoms: C_10  and  N_11
REMARK    8  A    between atoms: N_11  and  C_12
REMARK    9  A    between atoms: C_19  and  C_21
REMARK                            x       y       z     vdW  Elec       q    Type
REMARK                         _______ _______ _______ _____ _____    ______ ____
ROOT
ATOM      1  C   UNL     1      47.341   6.141  12.685  0.00  0.00    +0.000 A 
ATOM      2  C   UNL     1      46.695   5.067  13.314  0.00  0.00    +0.000 A 
ATOM      3  C   UNL     1      45.682   4.373  12.652  0.00  0.00    +0.000 A 
ATOM      4  C   UNL     1      45.306   4.741  11.352  0.00  0.00    +0.000 A 
ATOM      5  C   UNL     1      45.934   5.842  10.753  0.00  0.00    +0.000 A 
ATOM      6  C   UNL     1      46.948   6.530  11.404  0.00  0.00    +0.000 A 
ENDROOT
BRANCH   1   7
ATOM      7  C   UNL     1      48.475   6.860  13.357  0.00  0.00    +0.000 C 
BRANCH   7   9
ATOM      8  C   UNL     1      46.943   8.784  13.968  0.00  0.00    +0.000 C 
ATOM      9  N   UNL     1      48.122   7.969  14.248  0.00  0.00    +0.000 N 
ATOM     10  C   UNL     1      48.688   8.129  15.525  0.00  0.00    +0.000 C 
ATOM     11  O   UNL     1      48.220   8.928  16.332  0.00  0.00    +0.000 OA
BRANCH  10  12
ATOM     12  C   UNL     1      49.882   7.351  15.882  0.00  0.00    +0.000 A 
ATOM     13  C   UNL     1      51.186   7.801  15.738  0.00  0.00    +0.000 A 
ATOM     14  S   UNL     1      52.358   6.696  16.296  0.00  0.00    +0.000 S 
ATOM     15  C   UNL     1      51.160   5.642  16.884  0.00  0.00    +0.000 A 
ATOM     16  N   UNL     1      51.495   4.533  17.586  0.00  0.00    +0.000 NA
ATOM     17  C   UNL     1      50.479   3.862  18.026  0.00  0.00    +0.000 A 
ATOM     18  N   UNL     1      49.168   4.183  17.787  0.00  0.00    +0.000 N 
ATOM     19  C   UNL     1      48.783   5.219  16.965  0.00  0.00    +0.000 A 
ATOM     20  O   UNL     1      47.628   5.324  16.577  0.00  0.00    +0.000 OA
ATOM     21  C   UNL     1      49.888   6.079  16.561  0.00  0.00    +0.000 A 
ATOM     22  H   UNL     1      48.425   3.575  18.098  0.00  0.00    +0.000 HD
ENDBRANCH  10  12
ENDBRANCH   7   9
ENDBRANCH   1   7
BRANCH   4  23
ATOM     23  C   UNL     1      44.222   3.958  10.642  0.00  0.00    +0.000 C 
BRANCH  23  24
ATOM     24  O   UNL     1      42.952   4.373  11.155  0.00  0.00    +0.000 OA
ATOM     25  H   UNL     1      42.849   3.961  12.030  0.00  0.00    +0.000 HD
ENDBRANCH  23  24
BRANCH  23  26
ATOM     26  C   UNL     1      44.195   4.115   9.100  0.00  0.00    +0.000 C 
BRANCH  26  27
ATOM     27  N   UNL     1      44.612   2.912   8.369  0.00  0.00    +0.000 NA
ATOM     28  H   UNL     1      44.180   2.886   7.446  0.00  0.00    +0.000 HD
BRANCH  27  29
ATOM     29  C   UNL     1      46.070   2.778   8.258  0.00  0.00    +0.000 C 
ATOM     30  C   UNL     1      46.700   3.594   7.133  0.00  0.00    +0.000 C 
ATOM     31  C   UNL     1      46.785   2.627   5.974  0.00  0.00    +0.000 C 
ATOM     32  N   UNL     1      47.132   1.344   6.586  0.00  0.00    +0.000 NA
ATOM     33  C   UNL     1      46.465   1.326   7.902  0.00  0.00    +0.000 C 
ATOM     34  H   UNL     1      48.141   1.313   6.735  0.00  0.00    +0.000 HD
ENDBRANCH  27  29
ENDBRANCH  26  27
ENDBRANCH  23  26
ENDBRANCH   4  23
TORSDOF 8
ENDMDL
MODEL 7
REMARK VINA RESULT:    -6.456      2.784      8.008
REMARK INTER + INTRA:         -10.583
REMARK INTER:                  -9.046
REMARK INTRA:                  -1.538
REMARK UNBOUND:                -1.297
REMARK  Name = 
REMARK  9 active torsions:
REMARK  status: ('A' for Active; 'I' for Inactive)
REMARK    1  A    between atoms: C_1  and  N_2
REMARK    2  A    between atoms: N_2  and  C_3
REMARK    3  A    between atoms: C_3  and  C_4
REMARK    4  A    between atoms: C_7  and  C_8
REMARK    5  A    between atoms: C_8  and  O_9
REMARK    6  A    between atoms: C_8  and  C_10
REMARK    7  A    between atoms: C_10  and  N_11
REMARK    8  A    between atoms: N_11  and  C_12
REMARK    9  A    between atoms: C_19  and  C_21
REMARK                            x       y       z     vdW  Elec       q    Type
REMARK                         _______ _______ _______ _____ _____    ______ ____
ROOT
ATOM      1  C   UNL     1      48.392   7.827  14.663  0.00  0.00    +0.000 A 
ATOM      2  C   UNL     1      48.324   6.541  14.108  0.00  0.00    +0.000 A 
ATOM      3  C   UNL     1      47.446   6.277  13.056  0.00  0.00    +0.000 A 
ATOM      4  C   UNL     1      46.629   7.295  12.544  0.00  0.00    +0.000 A 
ATOM      5  C   UNL     1      46.681   8.565  13.136  0.00  0.00    +0.000 A 
ATOM      6  C   UNL     1      47.559   8.835  14.177  0.00  0.00    +0.000 A 
ENDROOT
BRANCH   1   7
ATOM      7  C   UNL     1      49.374   8.147  15.753  0.00  0.00    +0.000 C 
BRANCH   7   9
ATOM      8  C   UNL     1      47.895   9.295  17.461  0.00  0.00    +0.000 C 
ATOM      9  N   UNL     1      48.844   8.240  17.116  0.00  0.00    +0.000 N 
ATOM     10  C   UNL     1      48.971   7.200  18.054  0.00  0.00    +0.000 C 
ATOM     11  O   UNL     1      48.334   7.210  19.105  0.00  0.00    +0.000 OA
BRANCH  10  12
ATOM     12  C   UNL     1      49.912   6.104  17.786  0.00  0.00    +0.000 A 
ATOM     13  C   UNL     1      51.278   6.165  18.014  0.00  0.00    +0.000 A 
ATOM     14  S   UNL     1      52.099   4.713  17.662  0.00  0.00    +0.000 S 
ATOM     15  C   UNL     1      50.638   3.907  17.334  0.00  0.00    +0.000 A 
ATOM     16  N   UNL     1      50.623   2.578  17.070  0.00  0.00    +0.000 NA
ATOM     17  C   UNL     1      49.436   2.088  16.903  0.00  0.00    +0.000 A 
ATOM     18  N   UNL     1      48.277   2.820  16.937  0.00  0.00    +0.000 N 
ATOM     19  C   UNL     1      48.254   4.192  17.063  0.00  0.00    +0.000 A 
ATOM     20  O   UNL     1      47.236   4.831  16.841  0.00  0.00    +0.000 OA
ATOM     21  C   UNL     1      49.554   4.765  17.387  0.00  0.00    +0.000 A 
ATOM     22  H   UNL     1      47.390   2.387  16.726  0.00  0.00    +0.000 HD
ENDBRANCH  10  12
ENDBRANCH   7   9
ENDBRANCH   1   7
BRANCH   4  23
ATOM     23  C   UNL     1      45.702   6.994  11.385  0.00  0.00    +0.000 C 
BRANCH  23  24
ATOM     24  O   UNL     1      46.089   5.744  10.807  0.00  0.00    +0.000 OA
ATOM     25  H   UNL     1      46.914   5.470  11.245  0.00  0.00    +0.000 HD
ENDBRANCH  23  24
BRANCH  23  26
ATOM     26  C   UNL     1      44.197   6.914  11.746  0.00  0.00    +0.000 C 
BRANCH  26  27
ATOM     27  N   UNL     1      43.922   6.238  13.020  0.00  0.00    +0.000 NA
ATOM     28  H   UNL     1      43.546   6.897  13.701  0.00  0.00    +0.000 HD
BRANCH  27  29
ATOM     29  C   UNL     1      43.030   5.079  12.880  0.00  0.00    +0.000 C 
ATOM     30  C   UNL     1      43.652   3.746  13.284  0.00  0.00    +0.000 C 
ATOM     31  C   UNL     1      44.175   3.170  11.988  0.00  0.00    +0.000 C 
ATOM     32  N   UNL     1      43.172   3.536  10.988  0.00  0.00    +0.000 NA
ATOM     33  C   UNL     1      42.649   4.853  11.398  0.00  0.00    +0.000 C 
ATOM     34  H   UNL     1      42.408   2.860  11.024  0.00  0.00    +0.000 HD
ENDBRANCH  27  29
ENDBRANCH  26  27
ENDBRANCH  23  26
ENDBRANCH   4  23
TORSDOF 8
ENDMDL
MODEL 8
REMARK VINA RESULT:    -6.380      2.759      8.309
REMARK INTER + INTRA:         -10.475
REMARK INTER:                  -9.310
REMARK INTRA:                  -1.165
REMARK UNBOUND:                -1.297
REMARK  Name = 
REMARK  9 active torsions:
REMARK  status: ('A' for Active; 'I' for Inactive)
REMARK    1  A    between atoms: C_1  and  N_2
REMARK    2  A    between atoms: N_2  and  C_3
REMARK    3  A    between atoms: C_3  and  C_4
REMARK    4  A    between atoms: C_7  and  C_8
REMARK    5  A    between atoms: C_8  and  O_9
REMARK    6  A    between atoms: C_8  and  C_10
REMARK    7  A    between atoms: C_10  and  N_11
REMARK    8  A    between atoms: N_11  and  C_12
REMARK    9  A    between atoms: C_19  and  C_21
REMARK                            x       y       z     vdW  Elec       q    Type
REMARK                         _______ _______ _______ _____ _____    ______ ____
ROOT
ATOM      1  C   UNL     1      48.294   7.747  14.501  0.00  0.00    +0.000 A 
ATOM      2  C   UNL     1      47.493   8.703  13.859  0.00  0.00    +0.000 A 
ATOM      3  C   UNL     1      46.499   8.300  12.967  0.00  0.00    +0.000 A 
ATOM      4  C   UNL     1      46.291   6.938  12.709  0.00  0.00    +0.000 A 
ATOM      5  C   UNL     1      47.126   5.997  13.328  0.00  0.00    +0.000 A 
ATOM      6  C   UNL     1      48.111   6.392  14.223  0.00  0.00    +0.000 A 
ENDROOT
BRANCH   1   7
ATOM      7  C   UNL     1      49.327   8.157  15.511  0.00  0.00    +0.000 C 
BRANCH   7   9
ATOM      8  C   UNL     1      47.870   9.354  17.205  0.00  0.00    +0.000 C 
ATOM      9  N   UNL     1      48.869   8.336  16.892  0.00  0.00    +0.000 N 
ATOM     10  C   UNL     1      49.121   7.393  17.904  0.00  0.00    +0.000 C 
ATOM     11  O   UNL     1      48.545   7.455  18.988  0.00  0.00    +0.000 OA
BRANCH  10  12
ATOM     12  C   UNL     1      50.120   6.341  17.672  0.00  0.00    +0.000 A 
ATOM     13  C   UNL     1      51.490   6.515  17.790  0.00  0.00    +0.000 A 
ATOM     14  S   UNL     1      52.389   5.093  17.517  0.00  0.00    +0.000 S 
ATOM     15  C   UNL     1      50.972   4.163  17.376  0.00  0.00    +0.000 A 
ATOM     16  N   UNL     1      51.037   2.816  17.241  0.00  0.00    +0.000 NA
ATOM     17  C   UNL     1      49.881   2.234  17.211  0.00  0.00    +0.000 A 
ATOM     18  N   UNL     1      48.676   2.887  17.262  0.00  0.00    +0.000 N 
ATOM     19  C   UNL     1      48.561   4.260  17.259  0.00  0.00    +0.000 A 
ATOM     20  O   UNL     1      47.486   4.805  17.054  0.00  0.00    +0.000 OA
ATOM     21  C   UNL     1      49.835   4.948  17.429  0.00  0.00    +0.000 A 
ATOM     22  H   UNL     1      47.811   2.377  17.160  0.00  0.00    +0.000 HD
ENDBRANCH  10  12
ENDBRANCH   7   9
ENDBRANCH   1   7
BRANCH   4  23
ATOM     23  C   UNL     1      45.190   6.521  11.757  0.00  0.00    +0.000 C 
BRANCH  23  24
ATOM     24  O   UNL     1      44.697   7.688  11.093  0.00  0.00    +0.000 OA
ATOM     25  H   UNL     1      43.892   7.426  10.615  0.00  0.00    +0.000 HD
ENDBRANCH  23  24
BRANCH  23  26
ATOM     26  C   UNL     1      45.604   5.489  10.677  0.00  0.00    +0.000 C 
BRANCH  26  27
ATOM     27  N   UNL     1      44.940   4.186  10.809  0.00  0.00    +0.000 NA
ATOM     28  H   UNL     1      44.206   4.228  11.516  0.00  0.00    +0.000 HD
BRANCH  27  29
ATOM     29  C   UNL     1      44.403   3.678   9.540  0.00  0.00    +0.000 C 
ATOM     30  C   UNL     1      44.453   2.161   9.390  0.00  0.00    +0.000 C 
ATOM     31  C   UNL     1      45.743   1.902   8.646  0.00  0.00    +0.000 C 
ATOM     32  N   UNL     1      45.842   3.000   7.684  0.00  0.00    +0.000 NA
ATOM     33  C   UNL     1      45.247   4.177   8.345  0.00  0.00    +0.000 C 
ATOM     34  H   UNL     1      45.280   2.772   6.864  0.00  0.00    +0.000 HD
ENDBRANCH  27  29
ENDBRANCH  26  27
ENDBRANCH  23  26
ENDBRANCH   4  23
TORSDOF 8
ENDMDL
MODEL 9
REMARK VINA RESULT:    -6.199      1.711      2.334
REMARK INTER + INTRA:         -10.214
REMARK INTER:                  -9.372
REMARK INTRA:                  -0.842
REMARK UNBOUND:                -1.297
REMARK  Name = 
REMARK  9 active torsions:
REMARK  status: ('A' for Active; 'I' for Inactive)
REMARK    1  A    between atoms: C_1  and  N_2
REMARK    2  A    between atoms: N_2  and  C_3
REMARK    3  A    between atoms: C_3  and  C_4
REMARK    4  A    between atoms: C_7  and  C_8
REMARK    5  A    between atoms: C_8  and  O_9
REMARK    6  A    between atoms: C_8  and  C_10
REMARK    7  A    between atoms: C_10  and  N_11
REMARK    8  A    between atoms: N_11  and  C_12
REMARK    9  A    between atoms: C_19  and  C_21
REMARK                            x       y       z     vdW  Elec       q    Type
REMARK                         _______ _______ _______ _____ _____    ______ ____
ROOT
ATOM      1  C   UNL     1      48.000   6.627  13.187  0.00  0.00    +0.000 A 
ATOM      2  C   UNL     1      49.125   7.387  12.838  0.00  0.00    +0.000 A 
ATOM      3  C   UNL     1      50.088   7.698  13.799  0.00  0.00    +0.000 A 
ATOM      4  C   UNL     1      49.940   7.248  15.119  0.00  0.00    +0.000 A 
ATOM      5  C   UNL     1      48.789   6.523  15.461  0.00  0.00    +0.000 A 
ATOM      6  C   UNL     1      47.833   6.204  14.506  0.00  0.00    +0.000 A 
ENDROOT
BRANCH   1   7
ATOM      7  C   UNL     1      46.985   6.230  12.154  0.00  0.00    +0.000 C 
BRANCH   7   9
ATOM      8  C   UNL     1      45.966   8.550  12.088  0.00  0.00    +0.000 C 
ATOM      9  N   UNL     1      45.814   7.100  12.007  0.00  0.00    +0.000 N 
ATOM     10  C   UNL     1      44.583   6.640  11.508  0.00  0.00    +0.000 C 
ATOM     11  O   UNL     1      43.693   7.425  11.188  0.00  0.00    +0.000 OA
BRANCH  10  12
ATOM     12  C   UNL     1      44.347   5.194  11.403  0.00  0.00    +0.000 A 
ATOM     13  C   UNL     1      43.600   4.451  12.304  0.00  0.00    +0.000 A 
ATOM     14  S   UNL     1      43.454   2.805  11.883  0.00  0.00    +0.000 S 
ATOM     15  C   UNL     1      44.258   3.059  10.406  0.00  0.00    +0.000 A 
ATOM     16  N   UNL     1      44.377   2.059   9.500  0.00  0.00    +0.000 NA
ATOM     17  C   UNL     1      44.954   2.414   8.397  0.00  0.00    +0.000 A 
ATOM     18  N   UNL     1      45.456   3.665   8.145  0.00  0.00    +0.000 N 
ATOM     19  C   UNL     1      45.483   4.670   9.087  0.00  0.00    +0.000 A 
ATOM     20  O   UNL     1      46.152   5.679   8.917  0.00  0.00    +0.000 OA
ATOM     21  C   UNL     1      44.724   4.356  10.291  0.00  0.00    +0.000 A 
ATOM     22  H   UNL     1      45.960   3.854   7.292  0.00  0.00    +0.000 HD
ENDBRANCH  10  12
ENDBRANCH   7   9
ENDBRANCH   1   7
BRANCH   4  23
ATOM     23  C   UNL     1      51.008   7.574  16.140  0.00  0.00    +0.000 C 
BRANCH  23  24
ATOM     24  O   UNL     1      50.820   8.923  16.580  0.00  0.00    +0.000 OA
ATOM     25  H   UNL     1      50.736   9.474  15.782  0.00  0.00    +0.000 HD
ENDBRANCH  23  24
BRANCH  23  26
ATOM     26  C   UNL     1      51.032   6.657  17.390  0.00  0.00    +0.000 C 
BRANCH  26  27
ATOM     27  N   UNL     1      51.684   5.361  17.168  0.00  0.00    +0.000 NA
ATOM     28  H   UNL     1      52.691   5.481  17.059  0.00  0.00    +0.000 HD
BRANCH  27  29
ATOM     29  C   UNL     1      51.395   4.379  18.221  0.00  0.00    +0.000 C 
ATOM     30  C   UNL     1      52.301   3.152  18.213  0.00  0.00    +0.000 C 
ATOM     31  C   UNL     1      51.532   2.127  17.410  0.00  0.00    +0.000 C 
ATOM     32  N   UNL     1      50.135   2.328  17.793  0.00  0.00    +0.000 NA
ATOM     33  C   UNL     1      49.984   3.775  18.039  0.00  0.00    +0.000 C 
ATOM     34  H   UNL     1      49.957   1.832  18.667  0.00  0.00    +0.000 HD
ENDBRANCH  27  29
ENDBRANCH  26  27
ENDBRANCH  23  26
ENDBRANCH   4  23
TORSDOF 8
ENDMDL
