MODEL 1
REMARK VINA RESULT:    -8.187      0.000      0.000
REMARK INTER + INTRA:         -13.191
REMARK INTER:                 -12.016
REMARK INTRA:                  -1.175
REMARK UNBOUND:                -1.175
REMARK  Name = 
REMARK  9 active torsions:
REMARK  status: ('A' for Active; 'I' for Inactive)
REMARK    1  A    between atoms: C_1  and  C_2
REMARK    2  A    between atoms: C_2  and  C_3
REMARK    3  A    between atoms: C_3  and  N_4
REMARK    4  A    between atoms: C_3  and  C_26
REMARK    5  A    between atoms: N_4  and  C_5
REMARK    6  A    between atoms: C_5  and  C_6
REMARK    7  A    between atoms: C_9  and  C_10
REMARK    8  A    between atoms: C_10  and  N_11
REMARK    9  A    between atoms: C_12  and  C_14
REMARK                            x       y       z     vdW  Elec       q    Type
REMARK                         _______ _______ _______ _____ _____    ______ ____
ROOT
ATOM      1  C   UNL     1      44.908   6.272  11.156  0.00  0.00    +0.000 A 
ATOM      2  C   UNL     1      44.601   7.552  11.635  0.00  0.00    +0.000 A 
ATOM      3  C   UNL     1      45.491   8.226  12.476  0.00  0.00    +0.000 A 
ATOM      4  C   UNL     1      46.702   7.632  12.856  0.00  0.00    +0.000 A 
ATOM      5  C   UNL     1      46.995   6.341  12.404  0.00  0.00    +0.000 A 
ATOM      6  C   UNL     1      46.112   5.672  11.557  0.00  0.00    +0.000 A 
ENDROOT
BRANCH   1   7
ATOM      7  C   UNL     1      43.954   5.510  10.262  0.00  0.00    +0.000 C 
BRANCH   7   8
ATOM      8  N   UNL     1      44.645   4.812   9.187  0.00  0.00    +0.000 NA
ATOM      9  H   UNL     1      44.241   5.130   8.305  0.00  0.00    +0.000 HD
BRANCH   8  10
ATOM     10  C   UNL     1      44.498   3.338   9.204  0.00  0.00    +0.000 C 
BRANCH  10  11
ATOM     11  C   UNL     1      45.526   2.697   8.248  0.00  0.00    +0.000 A 
ATOM     12  C   UNL     1      46.057   3.424   7.179  0.00  0.00    +0.000 A 
ATOM     13  C   UNL     1      46.994   2.825   6.340  0.00  0.00    +0.000 A 
ATOM     14  C   UNL     1      47.397   1.524   6.599  0.00  0.00    +0.000 A 
ATOM     15  C   UNL     1      46.840   0.872   7.687  0.00  0.00    +0.000 A 
ATOM     16  N   UNL     1      45.915   1.420   8.509  0.00  0.00    +0.000 NA
ENDBRANCH  10  11
BRANCH  10  18
ATOM     17  C   UNL     1      43.435   2.551  11.468  0.00  0.00    +0.000 C 
ATOM     18  C   UNL     1      44.666   2.633  10.575  0.00  0.00    +0.000 C 
ENDBRANCH  10  18
ENDBRANCH   8  10
ENDBRANCH   7   8
ENDBRANCH   1   7
BRANCH   4  19
ATOM     19  C   UNL     1      47.654   8.339  13.779  0.00  0.00    +0.000 C 
BRANCH  19  20
ATOM     20  N   UNL     1      47.924   7.538  14.945  0.00  0.00    +0.000 N 
ATOM     21  C   UNL     1      49.158   6.982  15.149  0.00  0.00    +0.000 C 
ATOM     22  O   UNL     1      50.090   7.166  14.369  0.00  0.00    +0.000 OA
ATOM     23  H   UNL     1      47.124   7.204  15.474  0.00  0.00    +0.000 HD
BRANCH  21  24
ATOM     24  C   UNL     1      49.333   6.205  16.380  0.00  0.00    +0.000 A 
ATOM     25  C   UNL     1      50.328   6.568  17.279  0.00  0.00    +0.000 A 
ATOM     26  S   UNL     1      50.373   5.598  18.679  0.00  0.00    +0.000 S 
ATOM     27  C   UNL     1      49.092   4.630  18.115  0.00  0.00    +0.000 A 
ATOM     28  N   UNL     1      48.639   3.575  18.845  0.00  0.00    +0.000 NA
ATOM     29  C   UNL     1      47.685   2.909  18.286  0.00  0.00    +0.000 A 
ATOM     30  N   UNL     1      47.135   3.210  17.068  0.00  0.00    +0.000 N 
ATOM     31  C   UNL     1      47.538   4.277  16.305  0.00  0.00    +0.000 A 
ATOM     32  O   UNL     1      46.998   4.537  15.235  0.00  0.00    +0.000 OA
ATOM     33  C   UNL     1      48.625   5.051  16.882  0.00  0.00    +0.000 A 
ATOM     34  H   UNL     1      46.384   2.651  16.691  0.00  0.00    +0.000 HD
ENDBRANCH  21  24
ENDBRANCH  19  20
ENDBRANCH   4  19
TORSDOF 8
ENDMDL
MODEL 2
REMARK VINA RESULT:    -7.664      2.737      3.570
REMARK INTER + INTRA:         -12.423
REMARK INTER:                 -11.260
REMARK INTRA:                  -1.163
REMARK UNBOUND:                -1.175
REMARK  Name = 
REMARK  9 active torsions:
REMARK  status: ('A' for Active; 'I' for Inactive)
REMARK    1  A    between atoms: C_1  and  C_2
REMARK    2  A    between atoms: C_2  and  C_3
REMARK    3  A    between atoms: C_3  and  N_4
REMARK    4  A    between atoms: C_3  and  C_26
REMARK    5  A    between atoms: N_4  and  C_5
REMARK    6  A    between atoms: C_5  and  C_6
REMARK    7  A    between atoms: C_9  and  C_10
REMARK    8  A    between atoms: C_10  and  N_11
REMARK    9  A    between atoms: C_12  and  C_14
REMARK                            x       y       z     vdW  Elec       q    Type
REMARK                         _______ _______ _______ _____ _____    ______ ____
ROOT
ATOM      1  C   UNL     1      46.793   5.162  13.522  0.00  0.00    +0.000 A 
ATOM      2  C   UNL     1      47.491   6.356  13.300  0.00  0.00    +0.000 A 
ATOM      3  C   UNL     1      48.313   6.892  14.295  0.00  0.00    +0.000 A 
ATOM      4  C   UNL     1      48.451   6.245  15.531  0.00  0.00    +0.000 A 
ATOM      5  C   UNL     1      47.729   5.070  15.766  0.00  0.00    +0.000 A 
ATOM      6  C   UNL     1      46.917   4.530  14.770  0.00  0.00    +0.000 A 
ENDROOT
BRANCH   1   7
ATOM      7  C   UNL     1      45.880   4.570  12.472  0.00  0.00    +0.000 C 
BRANCH   7   8
ATOM      8  N   UNL     1      45.744   5.436  11.308  0.00  0.00    +0.000 NA
ATOM      9  H   UNL     1      45.468   6.360  11.644  0.00  0.00    +0.000 HD
BRANCH   8  10
ATOM     10  C   UNL     1      44.705   5.019  10.337  0.00  0.00    +0.000 C 
BRANCH  10  11
ATOM     11  C   UNL     1      45.307   4.026   9.320  0.00  0.00    +0.000 A 
ATOM     12  C   UNL     1      45.139   2.648   9.483  0.00  0.00    +0.000 A 
ATOM     13  C   UNL     1      45.680   1.776   8.542  0.00  0.00    +0.000 A 
ATOM     14  C   UNL     1      46.356   2.296   7.449  0.00  0.00    +0.000 A 
ATOM     15  C   UNL     1      46.468   3.673   7.346  0.00  0.00    +0.000 A 
ATOM     16  N   UNL     1      45.969   4.546   8.252  0.00  0.00    +0.000 NA
ENDBRANCH  10  11
BRANCH  10  18
ATOM     17  C   UNL     1      42.478   5.235  11.703  0.00  0.00    +0.000 C 
ATOM     18  C   UNL     1      43.434   4.348  10.916  0.00  0.00    +0.000 C 
ENDBRANCH  10  18
ENDBRANCH   8  10
ENDBRANCH   7   8
ENDBRANCH   1   7
BRANCH   4  19
ATOM     19  C   UNL     1      49.314   6.827  16.616  0.00  0.00    +0.000 C 
BRANCH  19  20
ATOM     20  N   UNL     1      50.360   5.908  16.983  0.00  0.00    +0.000 N 
ATOM     21  C   UNL     1      50.461   5.430  18.262  0.00  0.00    +0.000 C 
ATOM     22  O   UNL     1      49.654   5.736  19.136  0.00  0.00    +0.000 OA
ATOM     23  H   UNL     1      51.145   5.819  16.345  0.00  0.00    +0.000 HD
BRANCH  21  24
ATOM     24  C   UNL     1      51.549   4.482  18.524  0.00  0.00    +0.000 A 
ATOM     25  C   UNL     1      52.636   4.886  19.288  0.00  0.00    +0.000 A 
ATOM     26  S   UNL     1      53.790   3.659  19.542  0.00  0.00    +0.000 S 
ATOM     27  C   UNL     1      52.899   2.553  18.604  0.00  0.00    +0.000 A 
ATOM     28  N   UNL     1      53.354   1.288  18.394  0.00  0.00    +0.000 NA
ATOM     29  C   UNL     1      52.596   0.565  17.640  0.00  0.00    +0.000 A 
ATOM     30  N   UNL     1      51.417   0.990  17.086  0.00  0.00    +0.000 N 
ATOM     31  C   UNL     1      50.902   2.246  17.287  0.00  0.00    +0.000 A 
ATOM     32  O   UNL     1      49.825   2.580  16.805  0.00  0.00    +0.000 OA
ATOM     33  C   UNL     1      51.728   3.108  18.117  0.00  0.00    +0.000 A 
ATOM     34  H   UNL     1      50.866   0.370  16.511  0.00  0.00    +0.000 HD
ENDBRANCH  21  24
ENDBRANCH  19  20
ENDBRANCH   4  19
TORSDOF 8
ENDMDL
MODEL 3
REMARK VINA RESULT:    -6.931      3.245      5.751
REMARK INTER + INTRA:         -11.347
REMARK INTER:                 -10.080
REMARK INTRA:                  -1.267
REMARK UNBOUND:                -1.175
REMARK  Name = 
REMARK  9 active torsions:
REMARK  status: ('A' for Active; 'I' for Inactive)
REMARK    1  A    between atoms: C_1  and  C_2
REMARK    2  A    between atoms: C_2  and  C_3
REMARK    3  A    between atoms: C_3  and  N_4
REMARK    4  A    between atoms: C_3  and  C_26
REMARK    5  A    between atoms: N_4  and  C_5
REMARK    6  A    between atoms: C_5  and  C_6
REMARK    7  A    between atoms: C_9  and  C_10
REMARK    8  A    between atoms: C_10  and  N_11
REMARK    9  A    between atoms: C_12  and  C_14
REMARK                            x       y       z     vdW  Elec       q    Type
REMARK                         _______ _______ _______ _____ _____    ______ ____
ROOT
ATOM      1  C   UNL     1      47.669   5.949  14.508  0.00  0.00    +0.000 A 
ATOM      2  C   UNL     1      47.041   4.699  14.453  0.00  0.00    +0.000 A 
ATOM      3  C   UNL     1      47.176   3.791  15.507  0.00  0.00    +0.000 A 
ATOM      4  C   UNL     1      47.943   4.115  16.634  0.00  0.00    +0.000 A 
ATOM      5  C   UNL     1      48.597   5.352  16.675  0.00  0.00    +0.000 A 
ATOM      6  C   UNL     1      48.454   6.261  15.629  0.00  0.00    +0.000 A 
ENDROOT
BRANCH   1   7
ATOM      7  C   UNL     1      47.558   6.943  13.372  0.00  0.00    +0.000 C 
BRANCH   7   8
ATOM      8  N   UNL     1      46.224   7.522  13.274  0.00  0.00    +0.000 NA
ATOM      9  H   UNL     1      45.622   7.015  13.925  0.00  0.00    +0.000 HD
BRANCH   8  10
ATOM     10  C   UNL     1      45.589   7.403  11.941  0.00  0.00    +0.000 C 
BRANCH  10  11
ATOM     11  C   UNL     1      44.761   6.102  11.869  0.00  0.00    +0.000 A 
ATOM     12  C   UNL     1      44.870   5.247  10.769  0.00  0.00    +0.000 A 
ATOM     13  C   UNL     1      44.121   4.073  10.737  0.00  0.00    +0.000 A 
ATOM     14  C   UNL     1      43.299   3.767  11.810  0.00  0.00    +0.000 A 
ATOM     15  C   UNL     1      43.255   4.654  12.873  0.00  0.00    +0.000 A 
ATOM     16  N   UNL     1      43.957   5.811  12.926  0.00  0.00    +0.000 NA
ENDBRANCH  10  11
BRANCH  10  18
ATOM     17  C   UNL     1      45.076   9.972  11.862  0.00  0.00    +0.000 C 
ATOM     18  C   UNL     1      44.646   8.555  11.508  0.00  0.00    +0.000 C 
ENDBRANCH  10  18
ENDBRANCH   8  10
ENDBRANCH   7   8
ENDBRANCH   1   7
BRANCH   4  19
ATOM     19  C   UNL     1      48.114   3.137  17.761  0.00  0.00    +0.000 C 
BRANCH  19  20
ATOM     20  N   UNL     1      49.510   2.905  18.029  0.00  0.00    +0.000 N 
ATOM     21  C   UNL     1      50.272   2.140  17.186  0.00  0.00    +0.000 C 
ATOM     22  O   UNL     1      49.810   1.648  16.160  0.00  0.00    +0.000 OA
ATOM     23  H   UNL     1      49.846   3.116  18.963  0.00  0.00    +0.000 HD
BRANCH  21  24
ATOM     24  C   UNL     1      51.687   1.987  17.538  0.00  0.00    +0.000 A 
ATOM     25  C   UNL     1      52.213   0.712  17.704  0.00  0.00    +0.000 A 
ATOM     26  S   UNL     1      53.879   0.701  18.064  0.00  0.00    +0.000 S 
ATOM     27  C   UNL     1      53.948   2.401  18.053  0.00  0.00    +0.000 A 
ATOM     28  N   UNL     1      55.111   3.055  18.318  0.00  0.00    +0.000 NA
ATOM     29  C   UNL     1      55.015   4.342  18.307  0.00  0.00    +0.000 A 
ATOM     30  N   UNL     1      53.862   5.034  18.044  0.00  0.00    +0.000 N 
ATOM     31  C   UNL     1      52.671   4.423  17.746  0.00  0.00    +0.000 A 
ATOM     32  O   UNL     1      51.667   5.076  17.480  0.00  0.00    +0.000 OA
ATOM     33  C   UNL     1      52.720   2.970  17.763  0.00  0.00    +0.000 A 
ATOM     34  H   UNL     1      53.858   6.044  18.043  0.00  0.00    +0.000 HD
ENDBRANCH  21  24
ENDBRANCH  19  20
ENDBRANCH   4  19
TORSDOF 8
ENDMDL
MODEL 4
REMARK VINA RESULT:    -6.087      3.792      6.131
REMARK INTER + INTRA:         -10.108
REMARK INTER:                  -8.875
REMARK INTRA:                  -1.232
REMARK UNBOUND:                -1.175
REMARK  Name = 
REMARK  9 active torsions:
REMARK  status: ('A' for Active; 'I' for Inactive)
REMARK    1  A    between atoms: C_1  and  C_2
REMARK    2  A    between atoms: C_2  and  C_3
REMARK    3  A    between atoms: C_3  and  N_4
REMARK    4  A    between atoms: C_3  and  C_26
REMARK    5  A    between atoms: N_4  and  C_5
REMARK    6  A    between atoms: C_5  and  C_6
REMARK    7  A    between atoms: C_9  and  C_10
REMARK    8  A    between atoms: C_10  and  N_11
REMARK    9  A    between atoms: C_12  and  C_14
REMARK                            x       y       z     vdW  Elec       q    Type
REMARK                         _______ _______ _______ _____ _____    ______ ____
ROOT
ATOM      1  C   UNL     1      47.532   4.509  16.065  0.00  0.00    +0.000 A 
ATOM      2  C   UNL     1      47.561   3.501  17.037  0.00  0.00    +0.000 A 
ATOM      3  C   UNL     1      48.363   3.635  18.173  0.00  0.00    +0.000 A 
ATOM      4  C   UNL     1      49.151   4.779  18.359  0.00  0.00    +0.000 A 
ATOM      5  C   UNL     1      49.147   5.772  17.373  0.00  0.00    +0.000 A 
ATOM      6  C   UNL     1      48.340   5.643  16.244  0.00  0.00    +0.000 A 
ENDROOT
BRANCH   1   7
ATOM      7  C   UNL     1      46.690   4.381  14.814  0.00  0.00    +0.000 C 
BRANCH   7   8
ATOM      8  N   UNL     1      47.471   4.584  13.601  0.00  0.00    +0.000 NA
ATOM      9  H   UNL     1      48.375   4.966  13.879  0.00  0.00    +0.000 HD
BRANCH   8  10
ATOM     10  C   UNL     1      46.889   5.547  12.639  0.00  0.00    +0.000 C 
BRANCH  10  11
ATOM     11  C   UNL     1      45.490   5.067  12.196  0.00  0.00    +0.000 A 
ATOM     12  C   UNL     1      44.483   5.987  11.891  0.00  0.00    +0.000 A 
ATOM     13  C   UNL     1      43.235   5.525  11.480  0.00  0.00    +0.000 A 
ATOM     14  C   UNL     1      43.026   4.160  11.361  0.00  0.00    +0.000 A 
ATOM     15  C   UNL     1      44.076   3.309  11.664  0.00  0.00    +0.000 A 
ATOM     16  N   UNL     1      45.295   3.726  12.082  0.00  0.00    +0.000 NA
ENDBRANCH  10  11
BRANCH  10  18
ATOM     17  C   UNL     1      47.570   8.071  12.433  0.00  0.00    +0.000 C 
ATOM     18  C   UNL     1      46.723   7.010  13.124  0.00  0.00    +0.000 C 
ENDBRANCH  10  18
ENDBRANCH   8  10
ENDBRANCH   7   8
ENDBRANCH   1   7
BRANCH   4  19
ATOM     19  C   UNL     1      50.035   4.922  19.566  0.00  0.00    +0.000 C 
BRANCH  19  20
ATOM     20  N   UNL     1      51.129   3.987  19.512  0.00  0.00    +0.000 N 
ATOM     21  C   UNL     1      52.395   4.401  19.197  0.00  0.00    +0.000 C 
ATOM     22  O   UNL     1      52.657   5.582  18.980  0.00  0.00    +0.000 OA
ATOM     23  H   UNL     1      50.895   2.999  19.474  0.00  0.00    +0.000 HD
BRANCH  21  24
ATOM     24  C   UNL     1      53.441   3.372  19.193  0.00  0.00    +0.000 A 
ATOM     25  C   UNL     1      54.612   3.589  19.906  0.00  0.00    +0.000 A 
ATOM     26  S   UNL     1      55.706   2.284  19.841  0.00  0.00    +0.000 S 
ATOM     27  C   UNL     1      54.671   1.398  18.821  0.00  0.00    +0.000 A 
ATOM     28  N   UNL     1      55.028   0.169  18.362  0.00  0.00    +0.000 NA
ATOM     29  C   UNL     1      54.164  -0.379  17.574  0.00  0.00    +0.000 A 
ATOM     30  N   UNL     1      52.970   0.189  17.213  0.00  0.00    +0.000 N 
ATOM     31  C   UNL     1      52.553   1.414  17.668  0.00  0.00    +0.000 A 
ATOM     32  O   UNL     1      51.461   1.875  17.353  0.00  0.00    +0.000 OA
ATOM     33  C   UNL     1      53.499   2.082  18.547  0.00  0.00    +0.000 A 
ATOM     34  H   UNL     1      52.335  -0.297  16.597  0.00  0.00    +0.000 HD
ENDBRANCH  21  24
ENDBRANCH  19  20
ENDBRANCH   4  19
TORSDOF 8
ENDMDL
MODEL 5
REMARK VINA RESULT:    -6.084      3.041      5.251
REMARK INTER + INTRA:         -10.104
REMARK INTER:                  -8.998
REMARK INTRA:                  -1.107
REMARK UNBOUND:                -1.175
REMARK  Name = 
REMARK  9 active torsions:
REMARK  status: ('A' for Active; 'I' for Inactive)
REMARK    1  A    between atoms: C_1  and  C_2
REMARK    2  A    between atoms: C_2  and  C_3
REMARK    3  A    between atoms: C_3  and  N_4
REMARK    4  A    between atoms: C_3  and  C_26
REMARK    5  A    between atoms: N_4  and  C_5
REMARK    6  A    between atoms: C_5  and  C_6
REMARK    7  A    between atoms: C_9  and  C_10
REMARK    8  A    between atoms: C_10  and  N_11
REMARK    9  A    between atoms: C_12  and  C_14
REMARK                            x       y       z     vdW  Elec       q    Type
REMARK                         _______ _______ _______ _____ _____    ______ ____
ROOT
ATOM      1  C   UNL     1      46.924   4.915  13.945  0.00  0.00    +0.000 A 
ATOM      2  C   UNL     1      47.710   6.010  13.568  0.00  0.00    +0.000 A 
ATOM      3  C   UNL     1      48.619   6.573  14.467  0.00  0.00    +0.000 A 
ATOM      4  C   UNL     1      48.758   6.053  15.761  0.00  0.00    +0.000 A 
ATOM      5  C   UNL     1      47.950   4.978  16.150  0.00  0.00    +0.000 A 
ATOM      6  C   UNL     1      47.050   4.410  15.249  0.00  0.00    +0.000 A 
ENDROOT
BRANCH   1   7
ATOM      7  C   UNL     1      45.916   4.299  12.999  0.00  0.00    +0.000 C 
BRANCH   7   8
ATOM      8  N   UNL     1      44.690   5.083  12.912  0.00  0.00    +0.000 NA
ATOM      9  H   UNL     1      43.909   4.447  13.077  0.00  0.00    +0.000 HD
BRANCH   8  10
ATOM     10  C   UNL     1      44.445   5.713  11.595  0.00  0.00    +0.000 C 
BRANCH  10  11
ATOM     11  C   UNL     1      44.555   7.248  11.720  0.00  0.00    +0.000 A 
ATOM     12  C   UNL     1      43.831   8.087  10.867  0.00  0.00    +0.000 A 
ATOM     13  C   UNL     1      43.938   9.467  11.011  0.00  0.00    +0.000 A 
ATOM     14  C   UNL     1      44.744   9.981  12.015  0.00  0.00    +0.000 A 
ATOM     15  C   UNL     1      45.418   9.088  12.833  0.00  0.00    +0.000 A 
ATOM     16  N   UNL     1      45.349   7.742  12.706  0.00  0.00    +0.000 NA
ENDBRANCH  10  11
BRANCH  10  18
ATOM     17  C   UNL     1      44.939   4.112   9.579  0.00  0.00    +0.000 C 
ATOM     18  C   UNL     1      45.380   5.294  10.432  0.00  0.00    +0.000 C 
ENDBRANCH  10  18
ENDBRANCH   8  10
ENDBRANCH   7   8
ENDBRANCH   1   7
BRANCH   4  19
ATOM     19  C   UNL     1      49.715   6.666  16.744  0.00  0.00    +0.000 C 
BRANCH  19  20
ATOM     20  N   UNL     1      50.738   5.723  17.117  0.00  0.00    +0.000 N 
ATOM     21  C   UNL     1      50.902   5.341  18.421  0.00  0.00    +0.000 C 
ATOM     22  O   UNL     1      50.171   5.757  19.317  0.00  0.00    +0.000 OA
ATOM     23  H   UNL     1      51.473   5.543  16.440  0.00  0.00    +0.000 HD
BRANCH  21  24
ATOM     24  C   UNL     1      51.957   4.358  18.689  0.00  0.00    +0.000 A 
ATOM     25  C   UNL     1      53.042   4.722  19.476  0.00  0.00    +0.000 A 
ATOM     26  S   UNL     1      54.156   3.458  19.733  0.00  0.00    +0.000 S 
ATOM     27  C   UNL     1      53.249   2.390  18.766  0.00  0.00    +0.000 A 
ATOM     28  N   UNL     1      53.671   1.115  18.549  0.00  0.00    +0.000 NA
ATOM     29  C   UNL     1      52.905   0.424  17.773  0.00  0.00    +0.000 A 
ATOM     30  N   UNL     1      51.748   0.890  17.205  0.00  0.00    +0.000 N 
ATOM     31  C   UNL     1      51.267   2.157  17.414  0.00  0.00    +0.000 A 
ATOM     32  O   UNL     1      50.208   2.528  16.918  0.00  0.00    +0.000 OA
ATOM     33  C   UNL     1      52.103   2.985  18.267  0.00  0.00    +0.000 A 
ATOM     34  H   UNL     1      51.190   0.292  16.613  0.00  0.00    +0.000 HD
ENDBRANCH  21  24
ENDBRANCH  19  20
ENDBRANCH   4  19
TORSDOF 8
ENDMDL
MODEL 6
REMARK VINA RESULT:    -5.711      3.225      5.328
REMARK INTER + INTRA:          -9.556
REMARK INTER:                  -8.816
REMARK INTRA:                  -0.740
REMARK UNBOUND:                -1.175
REMARK  Name = 
REMARK  9 active torsions:
REMARK  status: ('A' for Active; 'I' for Inactive)
REMARK    1  A    between atoms: C_1  and  C_2
REMARK    2  A    between atoms: C_2  and  C_3
REMARK    3  A    between atoms: C_3  and  N_4
REMARK    4  A    between atoms: C_3  and  C_26
REMARK    5  A    between atoms: N_4  and  C_5
REMARK    6  A    between atoms: C_5  and  C_6
REMARK    7  A    between atoms: C_9  and  C_10
REMARK    8  A    between atoms: C_10  and  N_11
REMARK    9  A    between atoms: C_12  and  C_14
REMARK                            x       y       z     vdW  Elec       q    Type
REMARK                         _______ _______ _______ _____ _____    ______ ____
ROOT
ATOM      1  C   UNL     1      47.592   5.959  13.760  0.00  0.00    +0.000 A 
ATOM      2  C   UNL     1      46.982   4.737  14.071  0.00  0.00    +0.000 A 
ATOM      3  C   UNL     1      47.165   4.153  15.327  0.00  0.00    +0.000 A 
ATOM      4  C   UNL     1      47.962   4.778  16.295  0.00  0.00    +0.000 A 
ATOM      5  C   UNL     1      48.599   5.983  15.974  0.00  0.00    +0.000 A 
ATOM      6  C   UNL     1      48.408   6.570  14.725  0.00  0.00    +0.000 A 
ENDROOT
BRANCH   1   7
ATOM      7  C   UNL     1      47.429   6.603  12.401  0.00  0.00    +0.000 C 
BRANCH   7   8
ATOM      8  N   UNL     1      46.623   7.816  12.458  0.00  0.00    +0.000 NA
ATOM      9  H   UNL     1      46.266   7.901  13.411  0.00  0.00    +0.000 HD
BRANCH   8  10
ATOM     10  C   UNL     1      45.439   7.820  11.568  0.00  0.00    +0.000 C 
BRANCH  10  11
ATOM     11  C   UNL     1      44.678   6.484  11.700  0.00  0.00    +0.000 A 
ATOM     12  C   UNL     1      44.763   5.512  10.699  0.00  0.00    +0.000 A 
ATOM     13  C   UNL     1      44.077   4.310  10.852  0.00  0.00    +0.000 A 
ATOM     14  C   UNL     1      43.341   4.094  12.007  0.00  0.00    +0.000 A 
ATOM     15  C   UNL     1      43.317   5.096  12.962  0.00  0.00    +0.000 A 
ATOM     16  N   UNL     1      43.958   6.282  12.835  0.00  0.00    +0.000 NA
ENDBRANCH  10  11
BRANCH  10  18
ATOM     17  C   UNL     1      43.537   9.340  10.597  0.00  0.00    +0.000 C 
ATOM     18  C   UNL     1      44.399   8.948  11.789  0.00  0.00    +0.000 C 
ENDBRANCH  10  18
ENDBRANCH   8  10
ENDBRANCH   7   8
ENDBRANCH   1   7
BRANCH   4  19
ATOM     19  C   UNL     1      48.185   4.146  17.640  0.00  0.00    +0.000 C 
BRANCH  19  20
ATOM     20  N   UNL     1      49.540   3.677  17.767  0.00  0.00    +0.000 N 
ATOM     21  C   UNL     1      50.449   4.349  18.540  0.00  0.00    +0.000 C 
ATOM     22  O   UNL     1      50.142   5.352  19.179  0.00  0.00    +0.000 OA
ATOM     23  H   UNL     1      49.860   2.992  17.089  0.00  0.00    +0.000 HD
BRANCH  21  24
ATOM     24  C   UNL     1      51.796   3.773  18.619  0.00  0.00    +0.000 A 
ATOM     25  C   UNL     1      52.809   4.495  19.236  0.00  0.00    +0.000 A 
ATOM     26  S   UNL     1      54.301   3.673  19.289  0.00  0.00    +0.000 S 
ATOM     27  C   UNL     1      53.656   2.339  18.452  0.00  0.00    +0.000 A 
ATOM     28  N   UNL     1      54.434   1.266  18.143  0.00  0.00    +0.000 NA
ATOM     29  C   UNL     1      53.827   0.339  17.480  0.00  0.00    +0.000 A 
ATOM     30  N   UNL     1      52.508   0.384  17.109  0.00  0.00    +0.000 N 
ATOM     31  C   UNL     1      51.676   1.430  17.418  0.00  0.00    +0.000 A 
ATOM     32  O   UNL     1      50.492   1.420  17.100  0.00  0.00    +0.000 OA
ATOM     33  C   UNL     1      52.317   2.511  18.149  0.00  0.00    +0.000 A 
ATOM     34  H   UNL     1      52.092  -0.381  16.597  0.00  0.00    +0.000 HD
ENDBRANCH  21  24
ENDBRANCH  19  20
ENDBRANCH   4  19
TORSDOF 8
ENDMDL
MODEL 7
REMARK VINA RESULT:    -5.379      2.336      3.199
REMARK INTER + INTRA:          -9.069
REMARK INTER:                  -8.337
REMARK INTRA:                  -0.732
REMARK UNBOUND:                -1.175
REMARK  Name = 
REMARK  9 active torsions:
REMARK  status: ('A' for Active; 'I' for Inactive)
REMARK    1  A    between atoms: C_1  and  C_2
REMARK    2  A    between atoms: C_2  and  C_3
REMARK    3  A    between atoms: C_3  and  N_4
REMARK    4  A    between atoms: C_3  and  C_26
REMARK    5  A    between atoms: N_4  and  C_5
REMARK    6  A    between atoms: C_5  and  C_6
REMARK    7  A    between atoms: C_9  and  C_10
REMARK    8  A    between atoms: C_10  and  N_11
REMARK    9  A    between atoms: C_12  and  C_14
REMARK                            x       y       z     vdW  Elec       q    Type
REMARK                         _______ _______ _______ _____ _____    ______ ____
ROOT
ATOM      1  C   UNL     1      46.978   4.984  13.247  0.00  0.00    +0.000 A 
ATOM      2  C   UNL     1      47.219   6.158  12.523  0.00  0.00    +0.000 A 
ATOM      3  C   UNL     1      47.870   7.239  13.122  0.00  0.00    +0.000 A 
ATOM      4  C   UNL     1      48.291   7.167  14.457  0.00  0.00    +0.000 A 
ATOM      5  C   UNL     1      48.023   6.007  15.191  0.00  0.00    +0.000 A 
ATOM      6  C   UNL     1      47.382   4.924  14.590  0.00  0.00    +0.000 A 
ENDROOT
BRANCH   1   7
ATOM      7  C   UNL     1      46.256   3.806  12.630  0.00  0.00    +0.000 C 
BRANCH   7   8
ATOM      8  N   UNL     1      44.821   4.034  12.521  0.00  0.00    +0.000 NA
ATOM      9  H   UNL     1      44.366   3.120  12.502  0.00  0.00    +0.000 HD
BRANCH   8  10
ATOM     10  C   UNL     1      44.394   4.739  11.291  0.00  0.00    +0.000 C 
BRANCH  10  11
ATOM     11  C   UNL     1      44.924   3.992  10.048  0.00  0.00    +0.000 A 
ATOM     12  C   UNL     1      45.603   4.680   9.038  0.00  0.00    +0.000 A 
ATOM     13  C   UNL     1      46.083   3.978   7.935  0.00  0.00    +0.000 A 
ATOM     14  C   UNL     1      45.895   2.606   7.873  0.00  0.00    +0.000 A 
ATOM     15  C   UNL     1      45.228   1.991   8.920  0.00  0.00    +0.000 A 
ATOM     16  N   UNL     1      44.734   2.647   9.996  0.00  0.00    +0.000 NA
ENDBRANCH  10  11
BRANCH  10  18
ATOM     17  C   UNL     1      42.173   5.972  11.939  0.00  0.00    +0.000 C 
ATOM     18  C   UNL     1      42.868   4.923  11.082  0.00  0.00    +0.000 C 
ENDBRANCH  10  18
ENDBRANCH   8  10
ENDBRANCH   7   8
ENDBRANCH   1   7
BRANCH   4  19
ATOM     19  C   UNL     1      48.971   8.334  15.118  0.00  0.00    +0.000 C 
BRANCH  19  20
ATOM     20  N   UNL     1      49.738   7.899  16.257  0.00  0.00    +0.000 N 
ATOM     21  C   UNL     1      49.255   8.048  17.530  0.00  0.00    +0.000 C 
ATOM     22  O   UNL     1      48.144   8.524  17.751  0.00  0.00    +0.000 OA
ATOM     23  H   UNL     1      50.724   7.709  16.109  0.00  0.00    +0.000 HD
BRANCH  21  24
ATOM     24  C   UNL     1      50.104   7.551  18.617  0.00  0.00    +0.000 A 
ATOM     25  C   UNL     1      50.282   8.329  19.753  0.00  0.00    +0.000 A 
ATOM     26  S   UNL     1      51.256   7.594  20.942  0.00  0.00    +0.000 S 
ATOM     27  C   UNL     1      51.512   6.226  19.963  0.00  0.00    +0.000 A 
ATOM     28  N   UNL     1      52.297   5.200  20.388  0.00  0.00    +0.000 NA
ATOM     29  C   UNL     1      52.430   4.240  19.535  0.00  0.00    +0.000 A 
ATOM     30  N   UNL     1      51.839   4.209  18.299  0.00  0.00    +0.000 N 
ATOM     31  C   UNL     1      51.019   5.206  17.834  0.00  0.00    +0.000 A 
ATOM     32  O   UNL     1      50.477   5.127  16.737  0.00  0.00    +0.000 OA
ATOM     33  C   UNL     1      50.849   6.321  18.751  0.00  0.00    +0.000 A 
ATOM     34  H   UNL     1      51.978   3.422  17.682  0.00  0.00    +0.000 HD
ENDBRANCH  21  24
ENDBRANCH  19  20
ENDBRANCH   4  19
TORSDOF 8
ENDMDL
