MODEL 1
REMARK VINA RESULT:    -8.095      0.000      0.000
REMARK INTER + INTRA:         -12.256
REMARK INTER:                 -11.407
REMARK INTRA:                  -0.849
REMARK UNBOUND:                -0.849
REMARK  Name = 
REMARK  9 active torsions:
REMARK  status: ('A' for Active; 'I' for Inactive)
REMARK    1  A    between atoms: C_1  and  C_2
REMARK    2  A    between atoms: C_2  and  C_3
REMARK    3  A    between atoms: C_2  and  C_4
REMARK    4  A    between atoms: C_2  and  C_17
REMARK    5  A    between atoms: C_4  and  N_5
REMARK    6  A    between atoms: N_5  and  C_6
REMARK    7  A    between atoms: C_10  and  O_11
REMARK    8  A    between atoms: O_11  and  C_12
REMARK    9  A    between atoms: C_20  and  C_21
REMARK                            x       y       z     vdW  Elec       q    Type
REMARK                         _______ _______ _______ _____ _____    ______ ____
ROOT
ATOM      1  C   UNL     1      43.453   2.827  11.502  0.00  0.00    +0.000 C 
ATOM      2  C   UNL     1      44.237   4.037  10.950  0.00  0.00    +0.000 C 
ATOM      3  C   UNL     1      43.212   5.154  10.640  0.00  0.00    +0.000 C 
ENDROOT
BRANCH   2   4
ATOM      4  C   UNL     1      45.026   3.590   9.687  0.00  0.00    +0.000 A 
ATOM      5  C   UNL     1      45.600   4.508   8.790  0.00  0.00    +0.000 A 
ATOM      6  C   UNL     1      46.334   4.077   7.678  0.00  0.00    +0.000 A 
ATOM      7  C   UNL     1      46.528   2.716   7.436  0.00  0.00    +0.000 A 
ATOM      8  C   UNL     1      45.943   1.784   8.295  0.00  0.00    +0.000 A 
ATOM      9  C   UNL     1      45.199   2.219   9.402  0.00  0.00    +0.000 A 
BRANCH   7  10
ATOM     10  C   UNL     1      47.339   2.317   6.253  0.00  0.00    +0.000 C 
ATOM     11  N   UNL     1      47.150   3.016   5.095  0.00  0.00    +0.000 N 
ATOM     12  O   UNL     1      48.115   1.372   6.296  0.00  0.00    +0.000 OA
ATOM     13  H   UNL     1      46.360   3.623   4.950  0.00  0.00    +0.000 HD
ATOM     14  H   UNL     1      47.622   2.653   4.274  0.00  0.00    +0.000 HD
ENDBRANCH   7  10
ENDBRANCH   2   4
BRANCH   2  15
ATOM     15  C   UNL     1      45.259   4.568  12.008  0.00  0.00    +0.000 C 
BRANCH  15  16
ATOM     16  N   UNL     1      45.650   5.971  11.821  0.00  0.00    +0.000 N 
ATOM     17  H   UNL     1      45.788   6.258  10.855  0.00  0.00    +0.000 HD
BRANCH  16  18
ATOM     18  C   UNL     1      46.632   6.530  12.653  0.00  0.00    +0.000 A 
ATOM     19  C   UNL     1      47.244   7.763  12.403  0.00  0.00    +0.000 A 
ATOM     20  C   UNL     1      48.279   8.238  13.211  0.00  0.00    +0.000 A 
ATOM     21  C   UNL     1      48.746   7.471  14.274  0.00  0.00    +0.000 A 
ATOM     22  C   UNL     1      48.177   6.227  14.528  0.00  0.00    +0.000 A 
ATOM     23  C   UNL     1      47.124   5.767  13.726  0.00  0.00    +0.000 A 
BRANCH  22  24
ATOM     24  O   UNL     1      48.566   5.415  15.568  0.00  0.00    +0.000 OA
BRANCH  24  25
ATOM     25  C   UNL     1      47.565   4.566  16.168  0.00  0.00    +0.000 C 
ATOM     26  C   UNL     1      47.723   4.326  17.677  0.00  0.00    +0.000 C 
ATOM     27  C   UNL     1      47.531   2.857  17.321  0.00  0.00    +0.000 C 
ATOM     28  O   UNL     1      47.732   3.138  15.918  0.00  0.00    +0.000 OA
ENDBRANCH  24  25
ENDBRANCH  22  24
ENDBRANCH  16  18
ENDBRANCH  15  16
ENDBRANCH   2  15
TORSDOF 7
ENDMDL
MODEL 2
REMARK VINA RESULT:    -7.601      1.199      1.623
REMARK INTER + INTRA:         -11.561
REMARK INTER:                 -10.988
REMARK INTRA:                  -0.573
REMARK UNBOUND:                -0.849
REMARK  Name = 
REMARK  9 active torsions:
REMARK  status: ('A' for Active; 'I' for Inactive)
REMARK    1  A    between atoms: C_1  and  C_2
REMARK    2  A    between atoms: C_2  and  C_3
REMARK    3  A    between atoms: C_2  and  C_4
REMARK    4  A    between atoms: C_2  and  C_17
REMARK    5  A    between atoms: C_4  and  N_5
REMARK    6  A    between atoms: N_5  and  C_6
REMARK    7  A    between atoms: C_10  and  O_11
REMARK    8  A    between atoms: O_11  and  C_12
REMARK    9  A    between atoms: C_20  and  C_21
REMARK                            x       y       z     vdW  Elec       q    Type
REMARK                         _______ _______ _______ _____ _____    ______ ____
ROOT
ATOM      1  C   UNL     1      43.713   3.070  12.045  0.00  0.00    +0.000 C 
ATOM      2  C   UNL     1      44.273   4.264  11.241  0.00  0.00    +0.000 C 
ATOM      3  C   UNL     1      43.089   5.212  10.929  0.00  0.00    +0.000 C 
ENDROOT
BRANCH   2   4
ATOM      4  C   UNL     1      44.957   3.727   9.953  0.00  0.00    +0.000 A 
ATOM      5  C   UNL     1      45.529   4.576   8.990  0.00  0.00    +0.000 A 
ATOM      6  C   UNL     1      46.168   4.062   7.854  0.00  0.00    +0.000 A 
ATOM      7  C   UNL     1      46.267   2.684   7.654  0.00  0.00    +0.000 A 
ATOM      8  C   UNL     1      45.681   1.820   8.580  0.00  0.00    +0.000 A 
ATOM      9  C   UNL     1      45.032   2.338   9.711  0.00  0.00    +0.000 A 
BRANCH   7  10
ATOM     10  C   UNL     1      46.980   2.196   6.443  0.00  0.00    +0.000 C 
ATOM     11  N   UNL     1      47.154   3.079   5.415  0.00  0.00    +0.000 N 
ATOM     12  O   UNL     1      47.361   1.037   6.344  0.00  0.00    +0.000 OA
ATOM     13  H   UNL     1      46.650   3.947   5.354  0.00  0.00    +0.000 HD
ATOM     14  H   UNL     1      47.534   2.695   4.557  0.00  0.00    +0.000 HD
ENDBRANCH   7  10
ENDBRANCH   2   4
BRANCH   2  15
ATOM     15  C   UNL     1      45.339   5.046  12.077  0.00  0.00    +0.000 C 
BRANCH  15  16
ATOM     16  N   UNL     1      45.804   4.341  13.277  0.00  0.00    +0.000 N 
ATOM     17  H   UNL     1      45.079   3.866  13.809  0.00  0.00    +0.000 HD
BRANCH  16  18
ATOM     18  C   UNL     1      46.721   4.969  14.134  0.00  0.00    +0.000 A 
ATOM     19  C   UNL     1      47.457   6.105  13.777  0.00  0.00    +0.000 A 
ATOM     20  C   UNL     1      48.422   6.643  14.630  0.00  0.00    +0.000 A 
ATOM     21  C   UNL     1      48.694   6.035  15.852  0.00  0.00    +0.000 A 
ATOM     22  C   UNL     1      48.000   4.887  16.220  0.00  0.00    +0.000 A 
ATOM     23  C   UNL     1      47.017   4.366  15.369  0.00  0.00    +0.000 A 
BRANCH  22  24
ATOM     24  O   UNL     1      48.195   4.236  17.416  0.00  0.00    +0.000 OA
BRANCH  24  25
ATOM     25  C   UNL     1      48.688   2.880  17.370  0.00  0.00    +0.000 C 
ATOM     26  C   UNL     1      50.098   2.672  17.943  0.00  0.00    +0.000 C 
ATOM     27  C   UNL     1      50.357   1.906  16.651  0.00  0.00    +0.000 C 
ATOM     28  O   UNL     1      49.148   2.433  16.060  0.00  0.00    +0.000 OA
ENDBRANCH  24  25
ENDBRANCH  22  24
ENDBRANCH  16  18
ENDBRANCH  15  16
ENDBRANCH   2  15
TORSDOF 7
ENDMDL
MODEL 3
REMARK VINA RESULT:    -7.333      2.223      7.546
REMARK INTER + INTRA:         -11.183
REMARK INTER:                 -10.101
REMARK INTRA:                  -1.082
REMARK UNBOUND:                -0.849
REMARK  Name = 
REMARK  9 active torsions:
REMARK  status: ('A' for Active; 'I' for Inactive)
REMARK    1  A    between atoms: C_1  and  C_2
REMARK    2  A    between atoms: C_2  and  C_3
REMARK    3  A    between atoms: C_2  and  C_4
REMARK    4  A    between atoms: C_2  and  C_17
REMARK    5  A    between atoms: C_4  and  N_5
REMARK    6  A    between atoms: N_5  and  C_6
REMARK    7  A    between atoms: C_10  and  O_11
REMARK    8  A    between atoms: O_11  and  C_12
REMARK    9  A    between atoms: C_20  and  C_21
REMARK                            x       y       z     vdW  Elec       q    Type
REMARK                         _______ _______ _______ _____ _____    ______ ____
ROOT
ATOM      1  C   UNL     1      49.462   7.399  12.304  0.00  0.00    +0.000 C 
ATOM      2  C   UNL     1      47.971   7.274  12.690  0.00  0.00    +0.000 C 
ATOM      3  C   UNL     1      47.472   8.686  13.081  0.00  0.00    +0.000 C 
ENDROOT
BRANCH   2   4
ATOM      4  C   UNL     1      47.838   6.254  13.856  0.00  0.00    +0.000 A 
ATOM      5  C   UNL     1      47.188   5.017  13.708  0.00  0.00    +0.000 A 
ATOM      6  C   UNL     1      47.111   4.103  14.767  0.00  0.00    +0.000 A 
ATOM      7  C   UNL     1      47.694   4.393  16.001  0.00  0.00    +0.000 A 
ATOM      8  C   UNL     1      48.320   5.628  16.184  0.00  0.00    +0.000 A 
ATOM      9  C   UNL     1      48.385   6.545  15.124  0.00  0.00    +0.000 A 
BRANCH   7  10
ATOM     10  C   UNL     1      47.604   3.373  17.082  0.00  0.00    +0.000 C 
ATOM     11  N   UNL     1      48.775   2.904  17.605  0.00  0.00    +0.000 N 
ATOM     12  O   UNL     1      46.527   2.933  17.462  0.00  0.00    +0.000 OA
ATOM     13  H   UNL     1      49.666   3.051  17.160  0.00  0.00    +0.000 HD
ATOM     14  H   UNL     1      48.695   2.127  18.252  0.00  0.00    +0.000 HD
ENDBRANCH   7  10
ENDBRANCH   2   4
BRANCH   2  15
ATOM     15  C   UNL     1      47.125   6.755  11.482  0.00  0.00    +0.000 C 
BRANCH  15  16
ATOM     16  N   UNL     1      45.687   7.032  11.587  0.00  0.00    +0.000 N 
ATOM     17  H   UNL     1      45.428   7.724  12.285  0.00  0.00    +0.000 HD
BRANCH  16  18
ATOM     18  C   UNL     1      44.777   5.963  11.583  0.00  0.00    +0.000 A 
ATOM     19  C   UNL     1      43.842   5.743  12.600  0.00  0.00    +0.000 A 
ATOM     20  C   UNL     1      43.016   4.616  12.596  0.00  0.00    +0.000 A 
ATOM     21  C   UNL     1      43.131   3.667  11.586  0.00  0.00    +0.000 A 
ATOM     22  C   UNL     1      44.073   3.844  10.578  0.00  0.00    +0.000 A 
ATOM     23  C   UNL     1      44.883   4.988  10.576  0.00  0.00    +0.000 A 
BRANCH  22  24
ATOM     24  O   UNL     1      44.239   2.965   9.533  0.00  0.00    +0.000 OA
BRANCH  24  25
ATOM     25  C   UNL     1      45.581   2.738   9.053  0.00  0.00    +0.000 C 
ATOM     26  C   UNL     1      45.856   3.210   7.617  0.00  0.00    +0.000 C 
ATOM     27  C   UNL     1      46.468   1.827   7.430  0.00  0.00    +0.000 C 
ATOM     28  O   UNL     1      45.876   1.363   8.663  0.00  0.00    +0.000 OA
ENDBRANCH  24  25
ENDBRANCH  22  24
ENDBRANCH  16  18
ENDBRANCH  15  16
ENDBRANCH   2  15
TORSDOF 7
ENDMDL
MODEL 4
REMARK VINA RESULT:    -6.828      2.296      3.601
REMARK INTER + INTRA:         -10.472
REMARK INTER:                  -9.810
REMARK INTRA:                  -0.661
REMARK UNBOUND:                -0.849
REMARK  Name = 
REMARK  9 active torsions:
REMARK  status: ('A' for Active; 'I' for Inactive)
REMARK    1  A    between atoms: C_1  and  C_2
REMARK    2  A    between atoms: C_2  and  C_3
REMARK    3  A    between atoms: C_2  and  C_4
REMARK    4  A    between atoms: C_2  and  C_17
REMARK    5  A    between atoms: C_4  and  N_5
REMARK    6  A    between atoms: N_5  and  C_6
REMARK    7  A    between atoms: C_10  and  O_11
REMARK    8  A    between atoms: O_11  and  C_12
REMARK    9  A    between atoms: C_20  and  C_21
REMARK                            x       y       z     vdW  Elec       q    Type
REMARK                         _______ _______ _______ _____ _____    ______ ____
ROOT
ATOM      1  C   UNL     1      43.305   3.173  11.714  0.00  0.00    +0.000 C 
ATOM      2  C   UNL     1      44.201   4.305  11.164  0.00  0.00    +0.000 C 
ATOM      3  C   UNL     1      43.289   5.522  10.875  0.00  0.00    +0.000 C 
ENDROOT
BRANCH   2   4
ATOM      4  C   UNL     1      44.929   3.794   9.890  0.00  0.00    +0.000 A 
ATOM      5  C   UNL     1      45.473   4.664   8.929  0.00  0.00    +0.000 A 
ATOM      6  C   UNL     1      46.154   4.176   7.807  0.00  0.00    +0.000 A 
ATOM      7  C   UNL     1      46.322   2.804   7.617  0.00  0.00    +0.000 A 
ATOM      8  C   UNL     1      45.765   1.917   8.540  0.00  0.00    +0.000 A 
ATOM      9  C   UNL     1      45.075   2.409   9.657  0.00  0.00    +0.000 A 
BRANCH   7  10
ATOM     10  C   UNL     1      47.077   2.344   6.419  0.00  0.00    +0.000 C 
ATOM     11  N   UNL     1      47.175   3.208   5.366  0.00  0.00    +0.000 N 
ATOM     12  O   UNL     1      47.556   1.220   6.354  0.00  0.00    +0.000 OA
ATOM     13  H   UNL     1      46.597   4.027   5.280  0.00  0.00    +0.000 HD
ATOM     14  H   UNL     1      47.587   2.833   4.519  0.00  0.00    +0.000 HD
ENDBRANCH   7  10
ENDBRANCH   2   4
BRANCH   2  15
ATOM     15  C   UNL     1      45.281   4.722  12.216  0.00  0.00    +0.000 C 
BRANCH  15  16
ATOM     16  N   UNL     1      45.542   6.165  12.275  0.00  0.00    +0.000 N 
ATOM     17  H   UNL     1      45.292   6.686  11.439  0.00  0.00    +0.000 HD
BRANCH  16  18
ATOM     18  C   UNL     1      46.758   6.624  12.805  0.00  0.00    +0.000 A 
ATOM     19  C   UNL     1      47.364   6.069  13.938  0.00  0.00    +0.000 A 
ATOM     20  C   UNL     1      48.530   6.616  14.479  0.00  0.00    +0.000 A 
ATOM     21  C   UNL     1      49.099   7.752  13.914  0.00  0.00    +0.000 A 
ATOM     22  C   UNL     1      48.501   8.343  12.805  0.00  0.00    +0.000 A 
ATOM     23  C   UNL     1      47.344   7.777  12.254  0.00  0.00    +0.000 A 
BRANCH  22  24
ATOM     24  O   UNL     1      49.008   9.456  12.175  0.00  0.00    +0.000 OA
BRANCH  24  25
ATOM     25  C   UNL     1      50.190   9.287  11.363  0.00  0.00    +0.000 C 
ATOM     26  C   UNL     1      50.664   7.837  11.182  0.00  0.00    +0.000 C 
ATOM     27  C   UNL     1      52.036   8.387  11.554  0.00  0.00    +0.000 C 
ATOM     28  O   UNL     1      51.448   9.622  12.022  0.00  0.00    +0.000 OA
ENDBRANCH  24  25
ENDBRANCH  22  24
ENDBRANCH  16  18
ENDBRANCH  15  16
ENDBRANCH   2  15
TORSDOF 7
ENDMDL
MODEL 5
REMARK VINA RESULT:    -6.550      3.269      4.982
REMARK INTER + INTRA:         -10.080
REMARK INTER:                  -8.651
REMARK INTRA:                  -1.429
REMARK UNBOUND:                -0.849
REMARK  Name = 
REMARK  9 active torsions:
REMARK  status: ('A' for Active; 'I' for Inactive)
REMARK    1  A    between atoms: C_1  and  C_2
REMARK    2  A    between atoms: C_2  and  C_3
REMARK    3  A    between atoms: C_2  and  C_4
REMARK    4  A    between atoms: C_2  and  C_17
REMARK    5  A    between atoms: C_4  and  N_5
REMARK    6  A    between atoms: N_5  and  C_6
REMARK    7  A    between atoms: C_10  and  O_11
REMARK    8  A    between atoms: O_11  and  C_12
REMARK    9  A    between atoms: C_20  and  C_21
REMARK                            x       y       z     vdW  Elec       q    Type
REMARK                         _______ _______ _______ _____ _____    ______ ____
ROOT
ATOM      1  C   UNL     1      47.457   9.104  12.864  0.00  0.00    +0.000 C 
ATOM      2  C   UNL     1      48.237   7.788  12.652  0.00  0.00    +0.000 C 
ATOM      3  C   UNL     1      49.109   7.962  11.384  0.00  0.00    +0.000 C 
ENDROOT
BRANCH   2   4
ATOM      4  C   UNL     1      47.222   6.619  12.517  0.00  0.00    +0.000 A 
ATOM      5  C   UNL     1      46.403   6.455  11.386  0.00  0.00    +0.000 A 
ATOM      6  C   UNL     1      45.521   5.372  11.277  0.00  0.00    +0.000 A 
ATOM      7  C   UNL     1      45.440   4.415  12.289  0.00  0.00    +0.000 A 
ATOM      8  C   UNL     1      46.220   4.571  13.436  0.00  0.00    +0.000 A 
ATOM      9  C   UNL     1      47.095   5.662  13.547  0.00  0.00    +0.000 A 
BRANCH   7  10
ATOM     10  C   UNL     1      44.504   3.272  12.106  0.00  0.00    +0.000 C 
ATOM     11  N   UNL     1      44.485   2.661  10.885  0.00  0.00    +0.000 N 
ATOM     12  O   UNL     1      43.744   2.915  12.997  0.00  0.00    +0.000 OA
ATOM     13  H   UNL     1      44.902   3.072  10.066  0.00  0.00    +0.000 HD
ATOM     14  H   UNL     1      43.759   1.967  10.745  0.00  0.00    +0.000 HD
ENDBRANCH   7  10
ENDBRANCH   2   4
BRANCH   2  15
ATOM     15  C   UNL     1      49.172   7.492  13.871  0.00  0.00    +0.000 C 
BRANCH  15  16
ATOM     16  N   UNL     1      49.134   8.513  14.925  0.00  0.00    +0.000 N 
ATOM     17  H   UNL     1      49.953   9.113  14.977  0.00  0.00    +0.000 HD
BRANCH  16  18
ATOM     18  C   UNL     1      48.689   8.162  16.208  0.00  0.00    +0.000 A 
ATOM     19  C   UNL     1      48.265   9.097  17.159  0.00  0.00    +0.000 A 
ATOM     20  C   UNL     1      47.914   8.708  18.454  0.00  0.00    +0.000 A 
ATOM     21  C   UNL     1      48.009   7.373  18.835  0.00  0.00    +0.000 A 
ATOM     22  C   UNL     1      48.457   6.426  17.919  0.00  0.00    +0.000 A 
ATOM     23  C   UNL     1      48.786   6.821  16.615  0.00  0.00    +0.000 A 
BRANCH  22  24
ATOM     24  O   UNL     1      48.563   5.086  18.208  0.00  0.00    +0.000 OA
BRANCH  24  25
ATOM     25  C   UNL     1      48.584   4.160  17.100  0.00  0.00    +0.000 C 
ATOM     26  C   UNL     1      47.798   2.857  17.316  0.00  0.00    +0.000 C 
ATOM     27  C   UNL     1      49.061   2.176  16.802  0.00  0.00    +0.000 C 
ATOM     28  O   UNL     1      49.819   3.398  16.953  0.00  0.00    +0.000 OA
ENDBRANCH  24  25
ENDBRANCH  22  24
ENDBRANCH  16  18
ENDBRANCH  15  16
ENDBRANCH   2  15
TORSDOF 7
ENDMDL
MODEL 6
REMARK VINA RESULT:    -6.448      3.204      5.185
REMARK INTER + INTRA:          -9.935
REMARK INTER:                  -8.796
REMARK INTRA:                  -1.139
REMARK UNBOUND:                -0.849
REMARK  Name = 
REMARK  9 active torsions:
REMARK  status: ('A' for Active; 'I' for Inactive)
REMARK    1  A    between atoms: C_1  and  C_2
REMARK    2  A    between atoms: C_2  and  C_3
REMARK    3  A    between atoms: C_2  and  C_4
REMARK    4  A    between atoms: C_2  and  C_17
REMARK    5  A    between atoms: C_4  and  N_5
REMARK    6  A    between atoms: N_5  and  C_6
REMARK    7  A    between atoms: C_10  and  O_11
REMARK    8  A    between atoms: O_11  and  C_12
REMARK    9  A    between atoms: C_20  and  C_21
REMARK                            x       y       z     vdW  Elec       q    Type
REMARK                         _______ _______ _______ _____ _____    ______ ____
ROOT
ATOM      1  C   UNL     1      47.093   8.652  13.551  0.00  0.00    +0.000 C 
ATOM      2  C   UNL     1      47.923   7.463  13.020  0.00  0.00    +0.000 C 
ATOM      3  C   UNL     1      48.775   7.982  11.836  0.00  0.00    +0.000 C 
ENDROOT
BRANCH   2   4
ATOM      4  C   UNL     1      46.955   6.323  12.599  0.00  0.00    +0.000 A 
ATOM      5  C   UNL     1      46.775   5.161  13.369  0.00  0.00    +0.000 A 
ATOM      6  C   UNL     1      45.870   4.164  12.982  0.00  0.00    +0.000 A 
ATOM      7  C   UNL     1      45.110   4.304  11.820  0.00  0.00    +0.000 A 
ATOM      8  C   UNL     1      45.292   5.434  11.021  0.00  0.00    +0.000 A 
ATOM      9  C   UNL     1      46.207   6.426  11.406  0.00  0.00    +0.000 A 
BRANCH   7  10
ATOM     10  C   UNL     1      44.146   3.224  11.472  0.00  0.00    +0.000 C 
ATOM     11  N   UNL     1      43.730   2.402  12.480  0.00  0.00    +0.000 N 
ATOM     12  O   UNL     1      43.770   3.045  10.321  0.00  0.00    +0.000 OA
ATOM     13  H   UNL     1      44.195   2.358  13.371  0.00  0.00    +0.000 HD
ATOM     14  H   UNL     1      43.170   1.604  12.201  0.00  0.00    +0.000 HD
ENDBRANCH   7  10
ENDBRANCH   2   4
BRANCH   2  15
ATOM     15  C   UNL     1      48.881   6.914  14.128  0.00  0.00    +0.000 C 
BRANCH  15  16
ATOM     16  N   UNL     1      48.571   7.385  15.484  0.00  0.00    +0.000 N 
ATOM     17  H   UNL     1      49.036   8.245  15.760  0.00  0.00    +0.000 HD
BRANCH  16  18
ATOM     18  C   UNL     1      48.549   6.466  16.544  0.00  0.00    +0.000 A 
ATOM     19  C   UNL     1      48.294   6.827  17.872  0.00  0.00    +0.000 A 
ATOM     20  C   UNL     1      48.368   5.892  18.906  0.00  0.00    +0.000 A 
ATOM     21  C   UNL     1      48.731   4.576  18.636  0.00  0.00    +0.000 A 
ATOM     22  C   UNL     1      49.020   4.195  17.329  0.00  0.00    +0.000 A 
ATOM     23  C   UNL     1      48.922   5.134  16.294  0.00  0.00    +0.000 A 
BRANCH  22  24
ATOM     24  O   UNL     1      49.368   2.913  16.974  0.00  0.00    +0.000 OA
BRANCH  24  25
ATOM     25  C   UNL     1      50.375   2.247  17.765  0.00  0.00    +0.000 C 
ATOM     26  C   UNL     1      51.735   2.959  17.836  0.00  0.00    +0.000 C 
ATOM     27  C   UNL     1      52.312   1.590  17.499  0.00  0.00    +0.000 C 
ATOM     28  O   UNL     1      51.005   1.097  17.126  0.00  0.00    +0.000 OA
ENDBRANCH  24  25
ENDBRANCH  22  24
ENDBRANCH  16  18
ENDBRANCH  15  16
ENDBRANCH   2  15
TORSDOF 7
ENDMDL
MODEL 7
REMARK VINA RESULT:    -6.409      1.860      2.031
REMARK INTER + INTRA:          -9.880
REMARK INTER:                  -8.917
REMARK INTRA:                  -0.963
REMARK UNBOUND:                -0.849
REMARK  Name = 
REMARK  9 active torsions:
REMARK  status: ('A' for Active; 'I' for Inactive)
REMARK    1  A    between atoms: C_1  and  C_2
REMARK    2  A    between atoms: C_2  and  C_3
REMARK    3  A    between atoms: C_2  and  C_4
REMARK    4  A    between atoms: C_2  and  C_17
REMARK    5  A    between atoms: C_4  and  N_5
REMARK    6  A    between atoms: N_5  and  C_6
REMARK    7  A    between atoms: C_10  and  O_11
REMARK    8  A    between atoms: O_11  and  C_12
REMARK    9  A    between atoms: C_20  and  C_21
REMARK                            x       y       z     vdW  Elec       q    Type
REMARK                         _______ _______ _______ _____ _____    ______ ____
ROOT
ATOM      1  C   UNL     1      43.079   4.317  12.542  0.00  0.00    +0.000 C 
ATOM      2  C   UNL     1      44.026   5.250  11.756  0.00  0.00    +0.000 C 
ATOM      3  C   UNL     1      43.196   6.472  11.293  0.00  0.00    +0.000 C 
ENDROOT
BRANCH   2   4
ATOM      4  C   UNL     1      44.632   4.460  10.562  0.00  0.00    +0.000 A 
ATOM      5  C   UNL     1      45.374   5.082   9.543  0.00  0.00    +0.000 A 
ATOM      6  C   UNL     1      45.938   4.340   8.497  0.00  0.00    +0.000 A 
ATOM      7  C   UNL     1      45.787   2.954   8.445  0.00  0.00    +0.000 A 
ATOM      8  C   UNL     1      45.030   2.316   9.428  0.00  0.00    +0.000 A 
ATOM      9  C   UNL     1      44.458   3.063  10.469  0.00  0.00    +0.000 A 
BRANCH   7  10
ATOM     10  C   UNL     1      46.430   2.215   7.324  0.00  0.00    +0.000 C 
ATOM     11  N   UNL     1      46.936   0.976   7.594  0.00  0.00    +0.000 N 
ATOM     12  O   UNL     1      46.545   2.710   6.210  0.00  0.00    +0.000 OA
ATOM     13  H   UNL     1      47.083   0.641   8.531  0.00  0.00    +0.000 HD
ATOM     14  H   UNL     1      47.473   0.542   6.851  0.00  0.00    +0.000 HD
ENDBRANCH   7  10
ENDBRANCH   2   4
BRANCH   2  15
ATOM     15  C   UNL     1      45.197   5.749  12.664  0.00  0.00    +0.000 C 
BRANCH  15  16
ATOM     16  N   UNL     1      45.717   7.075  12.307  0.00  0.00    +0.000 N 
ATOM     17  H   UNL     1      45.413   7.431  11.405  0.00  0.00    +0.000 HD
BRANCH  16  18
ATOM     18  C   UNL     1      47.072   7.367  12.529  0.00  0.00    +0.000 A 
ATOM     19  C   UNL     1      48.018   7.464  11.502  0.00  0.00    +0.000 A 
ATOM     20  C   UNL     1      49.371   7.669  11.778  0.00  0.00    +0.000 A 
ATOM     21  C   UNL     1      49.813   7.751  13.095  0.00  0.00    +0.000 A 
ATOM     22  C   UNL     1      48.900   7.627  14.137  0.00  0.00    +0.000 A 
ATOM     23  C   UNL     1      47.540   7.444  13.852  0.00  0.00    +0.000 A 
BRANCH  22  24
ATOM     24  O   UNL     1      49.249   7.714  15.464  0.00  0.00    +0.000 OA
BRANCH  24  25
ATOM     25  C   UNL     1      49.231   6.500  16.245  0.00  0.00    +0.000 C 
ATOM     26  C   UNL     1      49.256   6.695  17.769  0.00  0.00    +0.000 C 
ATOM     27  C   UNL     1      50.367   5.653  17.743  0.00  0.00    +0.000 C 
ATOM     28  O   UNL     1      50.502   5.787  16.310  0.00  0.00    +0.000 OA
ENDBRANCH  24  25
ENDBRANCH  22  24
ENDBRANCH  16  18
ENDBRANCH  15  16
ENDBRANCH   2  15
TORSDOF 7
ENDMDL
MODEL 8
REMARK VINA RESULT:    -6.347      2.816      3.381
REMARK INTER + INTRA:          -9.793
REMARK INTER:                  -8.936
REMARK INTRA:                  -0.857
REMARK UNBOUND:                -0.849
REMARK  Name = 
REMARK  9 active torsions:
REMARK  status: ('A' for Active; 'I' for Inactive)
REMARK    1  A    between atoms: C_1  and  C_2
REMARK    2  A    between atoms: C_2  and  C_3
REMARK    3  A    between atoms: C_2  and  C_4
REMARK    4  A    between atoms: C_2  and  C_17
REMARK    5  A    between atoms: C_4  and  N_5
REMARK    6  A    between atoms: N_5  and  C_6
REMARK    7  A    between atoms: C_10  and  O_11
REMARK    8  A    between atoms: O_11  and  C_12
REMARK    9  A    between atoms: C_20  and  C_21
REMARK                            x       y       z     vdW  Elec       q    Type
REMARK                         _______ _______ _______ _____ _____    ______ ____
ROOT
ATOM      1  C   UNL     1      43.364   4.135  12.877  0.00  0.00    +0.000 C 
ATOM      2  C   UNL     1      43.879   5.186  11.869  0.00  0.00    +0.000 C 
ATOM      3  C   UNL     1      42.674   6.067  11.459  0.00  0.00    +0.000 C 
ENDROOT
BRANCH   2   4
ATOM      4  C   UNL     1      44.515   4.450  10.657  0.00  0.00    +0.000 A 
ATOM      5  C   UNL     1      45.314   5.110   9.706  0.00  0.00    +0.000 A 
ATOM      6  C   UNL     1      45.902   4.415   8.642  0.00  0.00    +0.000 A 
ATOM      7  C   UNL     1      45.720   3.038   8.503  0.00  0.00    +0.000 A 
ATOM      8  C   UNL     1      44.907   2.365   9.416  0.00  0.00    +0.000 A 
ATOM      9  C   UNL     1      44.311   3.066  10.475  0.00  0.00    +0.000 A 
BRANCH   7  10
ATOM     10  C   UNL     1      46.391   2.349   7.367  0.00  0.00    +0.000 C 
ATOM     11  N   UNL     1      46.502   3.033   6.191  0.00  0.00    +0.000 N 
ATOM     12  O   UNL     1      46.791   1.196   7.461  0.00  0.00    +0.000 OA
ATOM     13  H   UNL     1      45.977   3.870   5.998  0.00  0.00    +0.000 HD
ATOM     14  H   UNL     1      46.853   2.505   5.399  0.00  0.00    +0.000 HD
ENDBRANCH   7  10
ENDBRANCH   2   4
BRANCH   2  15
ATOM     15  C   UNL     1      44.970   6.097  12.523  0.00  0.00    +0.000 C 
BRANCH  15  16
ATOM     16  N   UNL     1      44.701   7.536  12.416  0.00  0.00    +0.000 N 
ATOM     17  H   UNL     1      43.932   7.789  11.801  0.00  0.00    +0.000 HD
BRANCH  16  18
ATOM     18  C   UNL     1      45.773   8.429  12.268  0.00  0.00    +0.000 A 
ATOM     19  C   UNL     1      45.610   9.806  12.081  0.00  0.00    +0.000 A 
ATOM     20  C   UNL     1      46.704  10.643  11.850  0.00  0.00    +0.000 A 
ATOM     21  C   UNL     1      47.988  10.112  11.771  0.00  0.00    +0.000 A 
ATOM     22  C   UNL     1      48.177   8.742  11.923  0.00  0.00    +0.000 A 
ATOM     23  C   UNL     1      47.077   7.911  12.176  0.00  0.00    +0.000 A 
BRANCH  22  24
ATOM     24  O   UNL     1      49.412   8.139  11.877  0.00  0.00    +0.000 OA
BRANCH  24  25
ATOM     25  C   UNL     1      50.195   8.120  13.090  0.00  0.00    +0.000 C 
ATOM     26  C   UNL     1      49.435   8.498  14.371  0.00  0.00    +0.000 C 
ATOM     27  C   UNL     1      50.619   9.421  14.633  0.00  0.00    +0.000 C 
ATOM     28  O   UNL     1      51.083   9.263  13.273  0.00  0.00    +0.000 OA
ENDBRANCH  24  25
ENDBRANCH  22  24
ENDBRANCH  16  18
ENDBRANCH  15  16
ENDBRANCH   2  15
TORSDOF 7
ENDMDL
MODEL 9
REMARK VINA RESULT:    -6.173      2.576      8.461
REMARK INTER + INTRA:          -9.548
REMARK INTER:                  -8.683
REMARK INTRA:                  -0.864
REMARK UNBOUND:                -0.849
REMARK  Name = 
REMARK  9 active torsions:
REMARK  status: ('A' for Active; 'I' for Inactive)
REMARK    1  A    between atoms: C_1  and  C_2
REMARK    2  A    between atoms: C_2  and  C_3
REMARK    3  A    between atoms: C_2  and  C_4
REMARK    4  A    between atoms: C_2  and  C_17
REMARK    5  A    between atoms: C_4  and  N_5
REMARK    6  A    between atoms: N_5  and  C_6
REMARK    7  A    between atoms: C_10  and  O_11
REMARK    8  A    between atoms: O_11  and  C_12
REMARK    9  A    between atoms: C_20  and  C_21
REMARK                            x       y       z     vdW  Elec       q    Type
REMARK                         _______ _______ _______ _____ _____    ______ ____
ROOT
ATOM      1  C   UNL     1      48.900   8.383  11.862  0.00  0.00    +0.000 C 
ATOM      2  C   UNL     1      47.650   7.953  12.661  0.00  0.00    +0.000 C 
ATOM      3  C   UNL     1      46.580   9.057  12.482  0.00  0.00    +0.000 C 
ENDROOT
BRANCH   2   4
ATOM      4  C   UNL     1      48.049   7.751  14.149  0.00  0.00    +0.000 A 
ATOM      5  C   UNL     1      48.339   6.486  14.689  0.00  0.00    +0.000 A 
ATOM      6  C   UNL     1      48.729   6.337  16.026  0.00  0.00    +0.000 A 
ATOM      7  C   UNL     1      48.853   7.449  16.860  0.00  0.00    +0.000 A 
ATOM      8  C   UNL     1      48.542   8.713  16.357  0.00  0.00    +0.000 A 
ATOM      9  C   UNL     1      48.141   8.858  15.020  0.00  0.00    +0.000 A 
BRANCH   7  10
ATOM     10  C   UNL     1      49.296   7.233  18.265  0.00  0.00    +0.000 C 
ATOM     11  N   UNL     1      50.370   6.414  18.468  0.00  0.00    +0.000 N 
ATOM     12  O   UNL     1      48.699   7.730  19.211  0.00  0.00    +0.000 OA
ATOM     13  H   UNL     1      50.727   5.800  17.755  0.00  0.00    +0.000 HD
ATOM     14  H   UNL     1      50.580   6.186  19.433  0.00  0.00    +0.000 HD
ENDBRANCH   7  10
ENDBRANCH   2   4
BRANCH   2  15
ATOM     15  C   UNL     1      47.078   6.603  12.115  0.00  0.00    +0.000 C 
BRANCH  15  16
ATOM     16  N   UNL     1      45.730   6.703  11.544  0.00  0.00    +0.000 N 
ATOM     17  H   UNL     1      45.184   7.501  11.858  0.00  0.00    +0.000 HD
BRANCH  16  18
ATOM     18  C   UNL     1      44.930   5.553  11.459  0.00  0.00    +0.000 A 
ATOM     19  C   UNL     1      44.098   5.115  12.495  0.00  0.00    +0.000 A 
ATOM     20  C   UNL     1      43.387   3.916  12.399  0.00  0.00    +0.000 A 
ATOM     21  C   UNL     1      43.519   3.112  11.271  0.00  0.00    +0.000 A 
ATOM     22  C   UNL     1      44.363   3.508  10.238  0.00  0.00    +0.000 A 
ATOM     23  C   UNL     1      45.056   4.722  10.332  0.00  0.00    +0.000 A 
BRANCH  22  24
ATOM     24  O   UNL     1      44.536   2.783   9.082  0.00  0.00    +0.000 OA
BRANCH  24  25
ATOM     25  C   UNL     1      45.877   2.373   8.741  0.00  0.00    +0.000 C 
ATOM     26  C   UNL     1      46.358   2.789   7.342  0.00  0.00    +0.000 C 
ATOM     27  C   UNL     1      46.795   1.335   7.213  0.00  0.00    +0.000 C 
ATOM     28  O   UNL     1      46.022   0.967   8.378  0.00  0.00    +0.000 OA
ENDBRANCH  24  25
ENDBRANCH  22  24
ENDBRANCH  16  18
ENDBRANCH  15  16
ENDBRANCH   2  15
TORSDOF 7
ENDMDL
