MODEL 1
REMARK VINA RESULT:    -8.251      0.000      0.000
REMARK INTER + INTRA:         -10.642
REMARK INTER:                 -10.181
REMARK INTRA:                  -0.461
REMARK UNBOUND:                -0.461
REMARK  Name = 
REMARK  5 active torsions:
REMARK  status: ('A' for Active; 'I' for Inactive)
REMARK    1  A    between atoms: C_1  and  C_2
REMARK    2  A    between atoms: N_5  and  C_6
REMARK    3  A    between atoms: C_6  and  C_7
REMARK    4  A    between atoms: C_11  and  C_12
REMARK    5  A    between atoms: C_22  and  C_23
REMARK                            x       y       z     vdW  Elec       q    Type
REMARK                         _______ _______ _______ _____ _____    ______ ____
ROOT
ATOM      1  C   UNL     1      49.289   6.691  17.124  0.00  0.00    +0.000 C 
ATOM      2  C   UNL     1      48.908   5.264  16.867  0.00  0.00    +0.000 A 
ATOM      3  N   UNL     1      47.950   5.093  15.904  0.00  0.00    +0.000 NA
ATOM      4  C   UNL     1      47.538   3.850  15.586  0.00  0.00    +0.000 A 
ATOM      5  N   UNL     1      46.653   3.648  14.527  0.00  0.00    +0.000 N 
ATOM      6  C   UNL     1      48.085   2.739  16.219  0.00  0.00    +0.000 A 
ATOM      7  C   UNL     1      49.055   2.908  17.212  0.00  0.00    +0.000 A 
ATOM      8  C   UNL     1      49.482   4.193  17.556  0.00  0.00    +0.000 A 
ATOM      9  H   UNL     1      45.983   2.908  14.702  0.00  0.00    +0.000 HD
ENDROOT
BRANCH   8  10
ATOM     10  C   UNL     1      50.537   4.390  18.584  0.00  0.00    +0.000 C 
ATOM     11  N   UNL     1      50.149   4.394  19.898  0.00  0.00    +0.000 N 
ATOM     12  O   UNL     1      51.721   4.563  18.304  0.00  0.00    +0.000 OA
ATOM     13  H   UNL     1      49.183   4.447  20.195  0.00  0.00    +0.000 HD
ATOM     14  H   UNL     1      50.867   4.603  20.584  0.00  0.00    +0.000 HD
ENDBRANCH   8  10
BRANCH   5  15
ATOM     15  C   UNL     1      46.030   4.822  13.915  0.00  0.00    +0.000 C 
BRANCH  15  16
ATOM     16  C   UNL     1      45.111   4.500  12.747  0.00  0.00    +0.000 A 
ATOM     17  C   UNL     1      43.755   4.750  12.842  0.00  0.00    +0.000 A 
ATOM     18  C   UNL     1      43.007   4.515  11.714  0.00  0.00    +0.000 A 
ATOM     19  N   UNL     1      43.526   4.069  10.558  0.00  0.00    +0.000 NA
ATOM     20  C   UNL     1      44.853   3.835  10.545  0.00  0.00    +0.000 A 
ATOM     21  N   UNL     1      45.670   4.022  11.605  0.00  0.00    +0.000 NA
BRANCH  20  22
ATOM     22  C   UNL     1      45.446   3.370   9.270  0.00  0.00    +0.000 A 
ATOM     23  C   UNL     1      45.737   4.268   8.218  0.00  0.00    +0.000 A 
ATOM     24  C   UNL     1      46.295   3.833   7.010  0.00  0.00    +0.000 A 
ATOM     25  C   UNL     1      46.576   2.484   6.822  0.00  0.00    +0.000 A 
ATOM     26  C   UNL     1      46.304   1.580   7.844  0.00  0.00    +0.000 A 
ATOM     27 CL   UNL     1      46.652  -0.091   7.617  0.00  0.00    +0.000 Cl
ATOM     28  C   UNL     1      45.749   2.012   9.053  0.00  0.00    +0.000 A 
ENDBRANCH  20  22
ENDBRANCH  15  16
ENDBRANCH   5  15
TORSDOF 4
ENDMDL
MODEL 2
REMARK VINA RESULT:    -7.902      3.540      4.522
REMARK INTER + INTRA:         -10.210
REMARK INTER:                  -9.698
REMARK INTRA:                  -0.513
REMARK UNBOUND:                -0.461
REMARK  Name = 
REMARK  5 active torsions:
REMARK  status: ('A' for Active; 'I' for Inactive)
REMARK    1  A    between atoms: C_1  and  C_2
REMARK    2  A    between atoms: N_5  and  C_6
REMARK    3  A    between atoms: C_6  and  C_7
REMARK    4  A    between atoms: C_11  and  C_12
REMARK    5  A    between atoms: C_22  and  C_23
REMARK                            x       y       z     vdW  Elec       q    Type
REMARK                         _______ _______ _______ _____ _____    ______ ____
ROOT
ATOM      1  C   UNL     1      45.491   9.495  12.501  0.00  0.00    +0.000 C 
ATOM      2  C   UNL     1      46.672   8.601  12.734  0.00  0.00    +0.000 A 
ATOM      3  N   UNL     1      46.357   7.308  13.054  0.00  0.00    +0.000 NA
ATOM      4  C   UNL     1      47.342   6.416  13.276  0.00  0.00    +0.000 A 
ATOM      5  N   UNL     1      47.042   5.070  13.485  0.00  0.00    +0.000 N 
ATOM      6  C   UNL     1      48.676   6.794  13.174  0.00  0.00    +0.000 A 
ATOM      7  C   UNL     1      49.005   8.116  12.859  0.00  0.00    +0.000 A 
ATOM      8  C   UNL     1      47.992   9.051  12.636  0.00  0.00    +0.000 A 
ATOM      9  H   UNL     1      47.645   4.628  14.170  0.00  0.00    +0.000 HD
ENDROOT
BRANCH   8  10
ATOM     10  C   UNL     1      48.322  10.453  12.268  0.00  0.00    +0.000 C 
ATOM     11  N   UNL     1      48.256  11.400  13.255  0.00  0.00    +0.000 N 
ATOM     12  O   UNL     1      48.630  10.789  11.127  0.00  0.00    +0.000 OA
ATOM     13  H   UNL     1      47.834  11.237  14.159  0.00  0.00    +0.000 HD
ATOM     14  H   UNL     1      48.413  12.362  12.973  0.00  0.00    +0.000 HD
ENDBRANCH   8  10
BRANCH   5  15
ATOM     15  C   UNL     1      45.640   4.694  13.661  0.00  0.00    +0.000 C 
BRANCH  15  16
ATOM     16  C   UNL     1      44.862   4.562  12.360  0.00  0.00    +0.000 A 
ATOM     17  C   UNL     1      43.593   5.100  12.253  0.00  0.00    +0.000 A 
ATOM     18  C   UNL     1      42.995   5.017  11.019  0.00  0.00    +0.000 A 
ATOM     19  N   UNL     1      43.577   4.455   9.947  0.00  0.00    +0.000 NA
ATOM     20  C   UNL     1      44.808   3.940  10.131  0.00  0.00    +0.000 A 
ATOM     21  N   UNL     1      45.474   3.961  11.307  0.00  0.00    +0.000 NA
BRANCH  20  22
ATOM     22  C   UNL     1      45.476   3.342   8.952  0.00  0.00    +0.000 A 
ATOM     23  C   UNL     1      45.920   4.136   7.871  0.00  0.00    +0.000 A 
ATOM     24  C   UNL     1      46.549   3.575   6.753  0.00  0.00    +0.000 A 
ATOM     25  C   UNL     1      46.750   2.201   6.688  0.00  0.00    +0.000 A 
ATOM     26  C   UNL     1      46.326   1.397   7.742  0.00  0.00    +0.000 A 
ATOM     27 CL   UNL     1      46.573  -0.306   7.666  0.00  0.00    +0.000 Cl
ATOM     28  C   UNL     1      45.700   1.955   8.860  0.00  0.00    +0.000 A 
ENDBRANCH  20  22
ENDBRANCH  15  16
ENDBRANCH   5  15
TORSDOF 4
ENDMDL
MODEL 3
REMARK VINA RESULT:    -7.782      3.164      3.815
REMARK INTER + INTRA:         -10.062
REMARK INTER:                  -9.506
REMARK INTRA:                  -0.556
REMARK UNBOUND:                -0.461
REMARK  Name = 
REMARK  5 active torsions:
REMARK  status: ('A' for Active; 'I' for Inactive)
REMARK    1  A    between atoms: C_1  and  C_2
REMARK    2  A    between atoms: N_5  and  C_6
REMARK    3  A    between atoms: C_6  and  C_7
REMARK    4  A    between atoms: C_11  and  C_12
REMARK    5  A    between atoms: C_22  and  C_23
REMARK                            x       y       z     vdW  Elec       q    Type
REMARK                         _______ _______ _______ _____ _____    ______ ____
ROOT
ATOM      1  C   UNL     1      49.583   9.422  11.432  0.00  0.00    +0.000 C 
ATOM      2  C   UNL     1      49.282   8.513  12.586  0.00  0.00    +0.000 A 
ATOM      3  N   UNL     1      48.035   7.949  12.560  0.00  0.00    +0.000 NA
ATOM      4  C   UNL     1      47.661   7.109  13.545  0.00  0.00    +0.000 A 
ATOM      5  N   UNL     1      46.444   6.434  13.473  0.00  0.00    +0.000 N 
ATOM      6  C   UNL     1      48.535   6.800  14.581  0.00  0.00    +0.000 A 
ATOM      7  C   UNL     1      49.807   7.381  14.620  0.00  0.00    +0.000 A 
ATOM      8  C   UNL     1      50.200   8.261  13.609  0.00  0.00    +0.000 A 
ATOM      9  H   UNL     1      45.988   6.334  14.374  0.00  0.00    +0.000 HD
ENDROOT
BRANCH   8  10
ATOM     10  C   UNL     1      51.560   8.862  13.615  0.00  0.00    +0.000 C 
ATOM     11  N   UNL     1      52.584   8.118  13.091  0.00  0.00    +0.000 N 
ATOM     12  O   UNL     1      51.797   9.975  14.077  0.00  0.00    +0.000 OA
ATOM     13  H   UNL     1      52.503   7.135  12.868  0.00  0.00    +0.000 HD
ATOM     14  H   UNL     1      53.517   8.510  13.168  0.00  0.00    +0.000 HD
ENDBRANCH   8  10
BRANCH   5  15
ATOM     15  C   UNL     1      45.503   6.817  12.421  0.00  0.00    +0.000 C 
BRANCH  15  16
ATOM     16  C   UNL     1      44.838   5.640  11.722  0.00  0.00    +0.000 A 
ATOM     17  C   UNL     1      43.566   5.243  12.091  0.00  0.00    +0.000 A 
ATOM     18  C   UNL     1      43.002   4.232  11.352  0.00  0.00    +0.000 A 
ATOM     19  N   UNL     1      43.616   3.635  10.318  0.00  0.00    +0.000 NA
ATOM     20  C   UNL     1      44.859   4.065  10.026  0.00  0.00    +0.000 A 
ATOM     21  N   UNL     1      45.504   5.043  10.699  0.00  0.00    +0.000 NA
BRANCH  20  22
ATOM     22  C   UNL     1      45.540   3.437   8.870  0.00  0.00    +0.000 A 
ATOM     23  C   UNL     1      46.025   4.207   7.789  0.00  0.00    +0.000 A 
ATOM     24  C   UNL     1      46.666   3.618   6.693  0.00  0.00    +0.000 A 
ATOM     25  C   UNL     1      46.838   2.239   6.650  0.00  0.00    +0.000 A 
ATOM     26  C   UNL     1      46.373   1.458   7.704  0.00  0.00    +0.000 A 
ATOM     27 CL   UNL     1      46.585  -0.250   7.656  0.00  0.00    +0.000 Cl
ATOM     28  C   UNL     1      45.735   2.044   8.801  0.00  0.00    +0.000 A 
ENDBRANCH  20  22
ENDBRANCH  15  16
ENDBRANCH   5  15
TORSDOF 4
ENDMDL
MODEL 4
REMARK VINA RESULT:    -7.482      4.426      8.060
REMARK INTER + INTRA:          -9.692
REMARK INTER:                  -9.283
REMARK INTRA:                  -0.410
REMARK UNBOUND:                -0.461
REMARK  Name = 
REMARK  5 active torsions:
REMARK  status: ('A' for Active; 'I' for Inactive)
REMARK    1  A    between atoms: C_1  and  C_2
REMARK    2  A    between atoms: N_5  and  C_6
REMARK    3  A    between atoms: C_6  and  C_7
REMARK    4  A    between atoms: C_11  and  C_12
REMARK    5  A    between atoms: C_22  and  C_23
REMARK                            x       y       z     vdW  Elec       q    Type
REMARK                         _______ _______ _______ _____ _____    ______ ____
ROOT
ATOM      1  C   UNL     1      46.857   4.856   7.648  0.00  0.00    +0.000 C 
ATOM      2  C   UNL     1      46.063   3.730   8.239  0.00  0.00    +0.000 A 
ATOM      3  N   UNL     1      45.212   4.097   9.247  0.00  0.00    +0.000 NA
ATOM      4  C   UNL     1      44.443   3.166   9.844  0.00  0.00    +0.000 A 
ATOM      5  N   UNL     1      43.487   3.538  10.787  0.00  0.00    +0.000 N 
ATOM      6  C   UNL     1      44.499   1.837   9.439  0.00  0.00    +0.000 A 
ATOM      7  C   UNL     1      45.374   1.453   8.418  0.00  0.00    +0.000 A 
ATOM      8  C   UNL     1      46.182   2.409   7.799  0.00  0.00    +0.000 A 
ATOM      9  H   UNL     1      43.398   2.876  11.550  0.00  0.00    +0.000 HD
ENDROOT
BRANCH   8  10
ATOM     10  C   UNL     1      47.094   2.027   6.689  0.00  0.00    +0.000 C 
ATOM     11  N   UNL     1      46.763   2.441   5.426  0.00  0.00    +0.000 N 
ATOM     12  O   UNL     1      48.107   1.352   6.858  0.00  0.00    +0.000 OA
ATOM     13  H   UNL     1      45.862   2.831   5.183  0.00  0.00    +0.000 HD
ATOM     14  H   UNL     1      47.354   2.111   4.670  0.00  0.00    +0.000 HD
ENDBRANCH   8  10
BRANCH   5  15
ATOM     15  C   UNL     1      43.484   4.923  11.258  0.00  0.00    +0.000 C 
BRANCH  15  16
ATOM     16  C   UNL     1      44.655   5.275  12.163  0.00  0.00    +0.000 A 
ATOM     17  C   UNL     1      44.961   4.471  13.245  0.00  0.00    +0.000 A 
ATOM     18  C   UNL     1      46.086   4.807  13.959  0.00  0.00    +0.000 A 
ATOM     19  N   UNL     1      46.875   5.850  13.655  0.00  0.00    +0.000 NA
ATOM     20  C   UNL     1      46.506   6.596  12.596  0.00  0.00    +0.000 A 
ATOM     21  N   UNL     1      45.412   6.356  11.840  0.00  0.00    +0.000 NA
BRANCH  20  22
ATOM     22  C   UNL     1      47.380   7.734  12.230  0.00  0.00    +0.000 A 
ATOM     23  C   UNL     1      46.905   9.065  12.233  0.00  0.00    +0.000 A 
ATOM     24  C   UNL     1      47.727  10.143  11.885  0.00  0.00    +0.000 A 
ATOM     25  C   UNL     1      49.050   9.917  11.523  0.00  0.00    +0.000 A 
ATOM     26  C   UNL     1      49.545   8.616  11.517  0.00  0.00    +0.000 A 
ATOM     27 CL   UNL     1      51.184   8.332  11.071  0.00  0.00    +0.000 Cl
ATOM     28  C   UNL     1      48.727   7.538  11.866  0.00  0.00    +0.000 A 
ENDBRANCH  20  22
ENDBRANCH  15  16
ENDBRANCH   5  15
TORSDOF 4
ENDMDL
MODEL 5
REMARK VINA RESULT:    -7.313      2.946      4.116
REMARK INTER + INTRA:          -9.483
REMARK INTER:                 -10.484
REMARK INTRA:                   1.000
REMARK UNBOUND:                -0.461
REMARK  Name = 
REMARK  5 active torsions:
REMARK  status: ('A' for Active; 'I' for Inactive)
REMARK    1  A    between atoms: C_1  and  C_2
REMARK    2  A    between atoms: N_5  and  C_6
REMARK    3  A    between atoms: C_6  and  C_7
REMARK    4  A    between atoms: C_11  and  C_12
REMARK    5  A    between atoms: C_22  and  C_23
REMARK                            x       y       z     vdW  Elec       q    Type
REMARK                         _______ _______ _______ _____ _____    ______ ____
ROOT
ATOM      1  C   UNL     1      46.437   4.936  14.058  0.00  0.00    +0.000 C 
ATOM      2  C   UNL     1      46.260   6.168  13.222  0.00  0.00    +0.000 A 
ATOM      3  N   UNL     1      45.055   6.253  12.577  0.00  0.00    +0.000 NA
ATOM      4  C   UNL     1      44.786   7.324  11.804  0.00  0.00    +0.000 A 
ATOM      5  N   UNL     1      43.523   7.486  11.237  0.00  0.00    +0.000 N 
ATOM      6  C   UNL     1      45.716   8.348  11.665  0.00  0.00    +0.000 A 
ATOM      7  C   UNL     1      46.953   8.262  12.312  0.00  0.00    +0.000 A 
ATOM      8  C   UNL     1      47.245   7.152  13.108  0.00  0.00    +0.000 A 
ATOM      9  H   UNL     1      43.552   7.886  10.306  0.00  0.00    +0.000 HD
ENDROOT
BRANCH   8  10
ATOM     10  C   UNL     1      48.541   7.058  13.831  0.00  0.00    +0.000 C 
ATOM     11  N   UNL     1      48.526   7.254  15.187  0.00  0.00    +0.000 N 
ATOM     12  O   UNL     1      49.607   6.831  13.265  0.00  0.00    +0.000 OA
ATOM     13  H   UNL     1      47.730   7.626  15.689  0.00  0.00    +0.000 HD
ATOM     14  H   UNL     1      49.426   7.259  15.655  0.00  0.00    +0.000 HD
ENDBRANCH   8  10
BRANCH   5  15
ATOM     15  C   UNL     1      42.577   6.373  11.329  0.00  0.00    +0.000 C 
BRANCH  15  16
ATOM     16  C   UNL     1      43.226   4.998  11.275  0.00  0.00    +0.000 A 
ATOM     17  C   UNL     1      42.964   4.069  12.263  0.00  0.00    +0.000 A 
ATOM     18  C   UNL     1      43.517   2.822  12.094  0.00  0.00    +0.000 A 
ATOM     19  N   UNL     1      44.276   2.483  11.040  0.00  0.00    +0.000 NA
ATOM     20  C   UNL     1      44.500   3.445  10.124  0.00  0.00    +0.000 A 
ATOM     21  N   UNL     1      44.011   4.703  10.206  0.00  0.00    +0.000 NA
BRANCH  20  22
ATOM     22  C   UNL     1      45.311   3.079   8.941  0.00  0.00    +0.000 A 
ATOM     23  C   UNL     1      45.719   4.047   7.995  0.00  0.00    +0.000 A 
ATOM     24  C   UNL     1      46.484   3.705   6.873  0.00  0.00    +0.000 A 
ATOM     25  C   UNL     1      46.859   2.383   6.667  0.00  0.00    +0.000 A 
ATOM     26  C   UNL     1      46.474   1.411   7.586  0.00  0.00    +0.000 A 
ATOM     27 CL   UNL     1      46.939  -0.228   7.336  0.00  0.00    +0.000 Cl
ATOM     28  C   UNL     1      45.713   1.750   8.708  0.00  0.00    +0.000 A 
ENDBRANCH  20  22
ENDBRANCH  15  16
ENDBRANCH   5  15
TORSDOF 4
ENDMDL
MODEL 6
REMARK VINA RESULT:    -7.246      1.511      2.150
REMARK INTER + INTRA:          -9.401
REMARK INTER:                  -8.932
REMARK INTRA:                  -0.469
REMARK UNBOUND:                -0.461
REMARK  Name = 
REMARK  5 active torsions:
REMARK  status: ('A' for Active; 'I' for Inactive)
REMARK    1  A    between atoms: C_1  and  C_2
REMARK    2  A    between atoms: N_5  and  C_6
REMARK    3  A    between atoms: C_6  and  C_7
REMARK    4  A    between atoms: C_11  and  C_12
REMARK    5  A    between atoms: C_22  and  C_23
REMARK                            x       y       z     vdW  Elec       q    Type
REMARK                         _______ _______ _______ _____ _____    ______ ____
ROOT
ATOM      1  C   UNL     1      47.427   2.724  17.760  0.00  0.00    +0.000 C 
ATOM      2  C   UNL     1      47.775   3.896  16.893  0.00  0.00    +0.000 A 
ATOM      3  N   UNL     1      46.960   4.065  15.805  0.00  0.00    +0.000 NA
ATOM      4  C   UNL     1      47.177   5.093  14.962  0.00  0.00    +0.000 A 
ATOM      5  N   UNL     1      46.289   5.351  13.919  0.00  0.00    +0.000 N 
ATOM      6  C   UNL     1      48.216   5.989  15.191  0.00  0.00    +0.000 A 
ATOM      7  C   UNL     1      49.059   5.816  16.293  0.00  0.00    +0.000 A 
ATOM      8  C   UNL     1      48.848   4.748  17.168  0.00  0.00    +0.000 A 
ATOM      9  H   UNL     1      46.747   5.669  13.072  0.00  0.00    +0.000 HD
ENDROOT
BRANCH   8  10
ATOM     10  C   UNL     1      49.713   4.567  18.363  0.00  0.00    +0.000 C 
ATOM     11  N   UNL     1      50.789   3.728  18.246  0.00  0.00    +0.000 N 
ATOM     12  O   UNL     1      49.492   5.119  19.438  0.00  0.00    +0.000 OA
ATOM     13  H   UNL     1      50.926   3.101  17.464  0.00  0.00    +0.000 HD
ATOM     14  H   UNL     1      51.327   3.557  19.089  0.00  0.00    +0.000 HD
ENDBRANCH   8  10
BRANCH   5  15
ATOM     15  C   UNL     1      45.244   4.365  13.643  0.00  0.00    +0.000 C 
BRANCH  15  16
ATOM     16  C   UNL     1      44.665   4.448  12.238  0.00  0.00    +0.000 A 
ATOM     17  C   UNL     1      43.621   5.312  11.969  0.00  0.00    +0.000 A 
ATOM     18  C   UNL     1      43.216   5.394  10.658  0.00  0.00    +0.000 A 
ATOM     19  N   UNL     1      43.778   4.691   9.661  0.00  0.00    +0.000 NA
ATOM     20  C   UNL     1      44.782   3.860  10.003  0.00  0.00    +0.000 A 
ATOM     21  N   UNL     1      45.243   3.700  11.263  0.00  0.00    +0.000 NA
BRANCH  20  22
ATOM     22  C   UNL     1      45.433   3.099   8.912  0.00  0.00    +0.000 A 
ATOM     23  C   UNL     1      45.628   1.702   8.997  0.00  0.00    +0.000 A 
ATOM     24  C   UNL     1      46.246   0.979   7.969  0.00  0.00    +0.000 A 
ATOM     25  C   UNL     1      46.686   1.638   6.827  0.00  0.00    +0.000 A 
ATOM     26  C   UNL     1      46.501   3.013   6.715  0.00  0.00    +0.000 A 
ATOM     27 CL   UNL     1      47.043   3.832   5.301  0.00  0.00    +0.000 Cl
ATOM     28  C   UNL     1      45.883   3.737   7.739  0.00  0.00    +0.000 A 
ENDBRANCH  20  22
ENDBRANCH  15  16
ENDBRANCH   5  15
TORSDOF 4
ENDMDL
MODEL 7
REMARK VINA RESULT:    -7.087      4.364      9.294
REMARK INTER + INTRA:          -9.205
REMARK INTER:                  -8.855
REMARK INTRA:                  -0.350
REMARK UNBOUND:                -0.461
REMARK  Name = 
REMARK  5 active torsions:
REMARK  status: ('A' for Active; 'I' for Inactive)
REMARK    1  A    between atoms: C_1  and  C_2
REMARK    2  A    between atoms: N_5  and  C_6
REMARK    3  A    between atoms: C_6  and  C_7
REMARK    4  A    between atoms: C_11  and  C_12
REMARK    5  A    between atoms: C_22  and  C_23
REMARK                            x       y       z     vdW  Elec       q    Type
REMARK                         _______ _______ _______ _____ _____    ______ ____
ROOT
ATOM      1  C   UNL     1      43.967   3.077  12.530  0.00  0.00    +0.000 C 
ATOM      2  C   UNL     1      44.949   4.209  12.524  0.00  0.00    +0.000 A 
ATOM      3  N   UNL     1      45.715   4.308  13.655  0.00  0.00    +0.000 NA
ATOM      4  C   UNL     1      46.637   5.286  13.754  0.00  0.00    +0.000 A 
ATOM      5  N   UNL     1      47.506   5.330  14.843  0.00  0.00    +0.000 N 
ATOM      6  C   UNL     1      46.825   6.189  12.713  0.00  0.00    +0.000 A 
ATOM      7  C   UNL     1      46.038   6.101  11.560  0.00  0.00    +0.000 A 
ATOM      8  C   UNL     1      45.073   5.097  11.452  0.00  0.00    +0.000 A 
ATOM      9  H   UNL     1      47.709   6.273  15.154  0.00  0.00    +0.000 HD
ENDROOT
BRANCH   8  10
ATOM     10  C   UNL     1      44.251   4.966  10.221  0.00  0.00    +0.000 C 
ATOM     11  N   UNL     1      44.903   4.680   9.050  0.00  0.00    +0.000 N 
ATOM     12  O   UNL     1      43.032   5.118  10.211  0.00  0.00    +0.000 OA
ATOM     13  H   UNL     1      45.908   4.727   8.945  0.00  0.00    +0.000 HD
ATOM     14  H   UNL     1      44.338   4.666   8.207  0.00  0.00    +0.000 HD
ENDBRANCH   8  10
BRANCH   5  15
ATOM     15  C   UNL     1      47.256   4.422  15.963  0.00  0.00    +0.000 C 
BRANCH  15  16
ATOM     16  C   UNL     1      48.282   4.517  17.082  0.00  0.00    +0.000 A 
ATOM     17  C   UNL     1      48.027   5.301  18.191  0.00  0.00    +0.000 A 
ATOM     18  C   UNL     1      48.963   5.263  19.196  0.00  0.00    +0.000 A 
ATOM     19  N   UNL     1      50.078   4.516  19.145  0.00  0.00    +0.000 NA
ATOM     20  C   UNL     1      50.265   3.789  18.027  0.00  0.00    +0.000 A 
ATOM     21  N   UNL     1      49.411   3.769  16.980  0.00  0.00    +0.000 NA
BRANCH  20  22
ATOM     22  C   UNL     1      51.475   2.938  17.966  0.00  0.00    +0.000 A 
ATOM     23  C   UNL     1      51.434   1.629  17.434  0.00  0.00    +0.000 A 
ATOM     24  C   UNL     1      52.575   0.819  17.378  0.00  0.00    +0.000 A 
ATOM     25  C   UNL     1      53.790   1.299  17.854  0.00  0.00    +0.000 A 
ATOM     26  C   UNL     1      53.859   2.586  18.379  0.00  0.00    +0.000 A 
ATOM     27 CL   UNL     1      55.361   3.185  18.970  0.00  0.00    +0.000 Cl
ATOM     28  C   UNL     1      52.721   3.398  18.435  0.00  0.00    +0.000 A 
ENDBRANCH  20  22
ENDBRANCH  15  16
ENDBRANCH   5  15
TORSDOF 4
ENDMDL
MODEL 8
REMARK VINA RESULT:    -7.057      2.010      2.546
REMARK INTER + INTRA:          -9.168
REMARK INTER:                  -8.703
REMARK INTRA:                  -0.465
REMARK UNBOUND:                -0.461
REMARK  Name = 
REMARK  5 active torsions:
REMARK  status: ('A' for Active; 'I' for Inactive)
REMARK    1  A    between atoms: C_1  and  C_2
REMARK    2  A    between atoms: N_5  and  C_6
REMARK    3  A    between atoms: C_6  and  C_7
REMARK    4  A    between atoms: C_11  and  C_12
REMARK    5  A    between atoms: C_22  and  C_23
REMARK                            x       y       z     vdW  Elec       q    Type
REMARK                         _______ _______ _______ _____ _____    ______ ____
ROOT
ATOM      1  C   UNL     1      51.901   6.235  16.849  0.00  0.00    +0.000 C 
ATOM      2  C   UNL     1      50.568   5.582  17.061  0.00  0.00    +0.000 A 
ATOM      3  N   UNL     1      49.627   5.882  16.113  0.00  0.00    +0.000 NA
ATOM      4  C   UNL     1      48.396   5.343  16.200  0.00  0.00    +0.000 A 
ATOM      5  N   UNL     1      47.464   5.541  15.183  0.00  0.00    +0.000 N 
ATOM      6  C   UNL     1      48.074   4.477  17.240  0.00  0.00    +0.000 A 
ATOM      7  C   UNL     1      49.027   4.175  18.218  0.00  0.00    +0.000 A 
ATOM      8  C   UNL     1      50.304   4.736  18.141  0.00  0.00    +0.000 A 
ATOM      9  H   UNL     1      46.515   5.648  15.524  0.00  0.00    +0.000 HD
ENDROOT
BRANCH   8  10
ATOM     10  C   UNL     1      51.340   4.401  19.153  0.00  0.00    +0.000 C 
ATOM     11  N   UNL     1      52.152   3.327  18.897  0.00  0.00    +0.000 N 
ATOM     12  O   UNL     1      51.484   5.030  20.198  0.00  0.00    +0.000 OA
ATOM     13  H   UNL     1      51.975   2.656  18.162  0.00  0.00    +0.000 HD
ATOM     14  H   UNL     1      52.805   3.066  19.629  0.00  0.00    +0.000 HD
ENDBRANCH   8  10
BRANCH   5  15
ATOM     15  C   UNL     1      47.784   6.508  14.133  0.00  0.00    +0.000 C 
BRANCH  15  16
ATOM     16  C   UNL     1      46.696   6.667  13.081  0.00  0.00    +0.000 A 
ATOM     17  C   UNL     1      46.037   7.874  12.942  0.00  0.00    +0.000 A 
ATOM     18  C   UNL     1      45.133   7.964  11.912  0.00  0.00    +0.000 A 
ATOM     19  N   UNL     1      44.873   6.958  11.061  0.00  0.00    +0.000 NA
ATOM     20  C   UNL     1      45.544   5.808  11.267  0.00  0.00    +0.000 A 
ATOM     21  N   UNL     1      46.442   5.617  12.258  0.00  0.00    +0.000 NA
BRANCH  20  22
ATOM     22  C   UNL     1      45.291   4.697  10.320  0.00  0.00    +0.000 A 
ATOM     23  C   UNL     1      44.484   3.592  10.673  0.00  0.00    +0.000 A 
ATOM     24  C   UNL     1      44.245   2.538   9.783  0.00  0.00    +0.000 A 
ATOM     25  C   UNL     1      44.810   2.563   8.512  0.00  0.00    +0.000 A 
ATOM     26  C   UNL     1      45.605   3.642   8.138  0.00  0.00    +0.000 A 
ATOM     27 CL   UNL     1      46.304   3.678   6.565  0.00  0.00    +0.000 Cl
ATOM     28  C   UNL     1      45.843   4.697   9.024  0.00  0.00    +0.000 A 
ENDBRANCH  20  22
ENDBRANCH  15  16
ENDBRANCH   5  15
TORSDOF 4
ENDMDL
MODEL 9
REMARK VINA RESULT:    -6.827      2.863      4.476
REMARK INTER + INTRA:          -8.884
REMARK INTER:                  -8.257
REMARK INTRA:                  -0.626
REMARK UNBOUND:                -0.461
REMARK  Name = 
REMARK  5 active torsions:
REMARK  status: ('A' for Active; 'I' for Inactive)
REMARK    1  A    between atoms: C_1  and  C_2
REMARK    2  A    between atoms: N_5  and  C_6
REMARK    3  A    between atoms: C_6  and  C_7
REMARK    4  A    between atoms: C_11  and  C_12
REMARK    5  A    between atoms: C_22  and  C_23
REMARK                            x       y       z     vdW  Elec       q    Type
REMARK                         _______ _______ _______ _____ _____    ______ ____
ROOT
ATOM      1  C   UNL     1      52.367   4.798  19.151  0.00  0.00    +0.000 C 
ATOM      2  C   UNL     1      51.906   3.557  18.447  0.00  0.00    +0.000 A 
ATOM      3  N   UNL     1      50.603   3.587  18.028  0.00  0.00    +0.000 NA
ATOM      4  C   UNL     1      50.086   2.527  17.377  0.00  0.00    +0.000 A 
ATOM      5  N   UNL     1      48.802   2.587  16.839  0.00  0.00    +0.000 N 
ATOM      6  C   UNL     1      50.867   1.406  17.118  0.00  0.00    +0.000 A 
ATOM      7  C   UNL     1      52.195   1.364  17.553  0.00  0.00    +0.000 A 
ATOM      8  C   UNL     1      52.738   2.454  18.238  0.00  0.00    +0.000 A 
ATOM      9  H   UNL     1      48.296   1.711  16.914  0.00  0.00    +0.000 HD
ENDROOT
BRANCH   8  10
ATOM     10  C   UNL     1      54.157   2.441  18.679  0.00  0.00    +0.000 C 
ATOM     11  N   UNL     1      54.434   1.905  19.908  0.00  0.00    +0.000 N 
ATOM     12  O   UNL     1      55.073   2.899  17.999  0.00  0.00    +0.000 OA
ATOM     13  H   UNL     1      53.724   1.684  20.594  0.00  0.00    +0.000 HD
ATOM     14  H   UNL     1      55.396   1.969  20.227  0.00  0.00    +0.000 HD
ENDBRANCH   8  10
BRANCH   5  15
ATOM     15  C   UNL     1      47.964   3.738  17.176  0.00  0.00    +0.000 C 
BRANCH  15  16
ATOM     16  C   UNL     1      47.897   4.799  16.088  0.00  0.00    +0.000 A 
ATOM     17  C   UNL     1      48.701   5.921  16.164  0.00  0.00    +0.000 A 
ATOM     18  C   UNL     1      48.647   6.786  15.098  0.00  0.00    +0.000 A 
ATOM     19  N   UNL     1      47.870   6.590  14.020  0.00  0.00    +0.000 NA
ATOM     20  C   UNL     1      47.104   5.482  14.024  0.00  0.00    +0.000 A 
ATOM     21  N   UNL     1      47.078   4.578  15.028  0.00  0.00    +0.000 NA
BRANCH  20  22
ATOM     22  C   UNL     1      46.263   5.236  12.830  0.00  0.00    +0.000 A 
ATOM     23  C   UNL     1      46.380   6.027  11.666  0.00  0.00    +0.000 A 
ATOM     24  C   UNL     1      45.585   5.800  10.536  0.00  0.00    +0.000 A 
ATOM     25  C   UNL     1      44.648   4.773  10.543  0.00  0.00    +0.000 A 
ATOM     26  C   UNL     1      44.515   3.976  11.676  0.00  0.00    +0.000 A 
ATOM     27 CL   UNL     1      43.357   2.702  11.689  0.00  0.00    +0.000 Cl
ATOM     28  C   UNL     1      45.310   4.199  12.804  0.00  0.00    +0.000 A 
ENDBRANCH  20  22
ENDBRANCH  15  16
ENDBRANCH   5  15
TORSDOF 4
ENDMDL
