MODEL 1
REMARK VINA RESULT:    -7.735      0.000      0.000
REMARK INTER + INTRA:         -12.459
REMARK INTER:                 -11.127
REMARK INTRA:                  -1.332
REMARK UNBOUND:                -1.332
REMARK  Name = 
REMARK  8 active torsions:
REMARK  status: ('A' for Active; 'I' for Inactive)
REMARK    1  A    between atoms: N_1  and  C_2
REMARK    2  A    between atoms: C_2  and  C_3
REMARK    3  A    between atoms: C_3  and  N_4
REMARK    4  A    between atoms: C_3  and  C_17
REMARK    5  A    between atoms: C_5  and  C_7
REMARK    6  A    between atoms: C_20  and  C_21
REMARK    7  A    between atoms: C_21  and  N_22
REMARK    8  A    between atoms: C_23  and  C_25
REMARK                            x       y       z     vdW  Elec       q    Type
REMARK                         _______ _______ _______ _____ _____    ______ ____
ROOT
ATOM      1  C   UNL     1      48.041   7.338  14.019  0.00  0.00    +0.000 C 
ENDROOT
BRANCH   1   2
ATOM      2  C   UNL     1      47.031   6.613  13.114  0.00  0.00    +0.000 A 
ATOM      3  C   UNL     1      46.702   5.266  13.342  0.00  0.00    +0.000 A 
ATOM      4  C   UNL     1      45.769   4.593  12.532  0.00  0.00    +0.000 A 
ATOM      5  C   UNL     1      45.144   5.246  11.462  0.00  0.00    +0.000 A 
ATOM      6  C   UNL     1      45.455   6.596  11.242  0.00  0.00    +0.000 A 
ATOM      7  C   UNL     1      46.386   7.266  12.051  0.00  0.00    +0.000 A 
BRANCH   5   8
ATOM      8  C   UNL     1      44.178   4.526  10.544  0.00  0.00    +0.000 C 
BRANCH   8   9
ATOM      9  N   UNL     1      44.821   3.533   9.718  0.00  0.00    +0.000 N 
ATOM     10  C   UNL     1      45.566   3.902   8.615  0.00  0.00    +0.000 C 
ATOM     11  O   UNL     1      45.713   5.065   8.269  0.00  0.00    +0.000 OA
ATOM     12  H   UNL     1      44.858   2.584  10.050  0.00  0.00    +0.000 HD
BRANCH  10  13
ATOM     13  C   UNL     1      46.166   2.775   7.887  0.00  0.00    +0.000 A 
ATOM     14  C   UNL     1      46.919   2.773   6.674  0.00  0.00    +0.000 A 
ATOM     15  C   UNL     1      47.295   1.478   6.398  0.00  0.00    +0.000 A 
ATOM     16  N   UNL     1      46.798   0.679   7.392  0.00  0.00    +0.000 N 
ATOM     17  C   UNL     1      46.117   1.451   8.298  0.00  0.00    +0.000 A 
ATOM     18  H   UNL     1      46.924  -0.325   7.454  0.00  0.00    +0.000 HD
ENDBRANCH  10  13
ENDBRANCH   8   9
ENDBRANCH   5   8
ENDBRANCH   1   2
BRANCH   1  19
ATOM     19  N   UNL     1      48.024   6.721  15.339  0.00  0.00    +0.000 N 
ATOM     20  C   UNL     1      49.153   6.302  16.005  0.00  0.00    +0.000 C 
ATOM     21  O   UNL     1      50.291   6.533  15.623  0.00  0.00    +0.000 OA
ATOM     22  H   UNL     1      47.138   6.304  15.600  0.00  0.00    +0.000 HD
BRANCH  20  23
ATOM     23  C   UNL     1      48.898   5.589  17.255  0.00  0.00    +0.000 A 
ATOM     24  C   UNL     1      49.058   4.214  17.356  0.00  0.00    +0.000 A 
ATOM     25  S   UNL     1      48.700   3.608  18.914  0.00  0.00    +0.000 S 
ATOM     26  C   UNL     1      48.275   5.156  19.482  0.00  0.00    +0.000 A 
ATOM     27  N   UNL     1      47.830   5.353  20.752  0.00  0.00    +0.000 NA
ATOM     28  C   UNL     1      47.513   6.574  21.025  0.00  0.00    +0.000 A 
ATOM     29  N   UNL     1      47.612   7.626  20.149  0.00  0.00    +0.000 N 
ATOM     30  C   UNL     1      48.094   7.483  18.875  0.00  0.00    +0.000 A 
ATOM     31  O   UNL     1      48.250   8.458  18.151  0.00  0.00    +0.000 OA
ATOM     32  C   UNL     1      48.434   6.122  18.510  0.00  0.00    +0.000 A 
ATOM     33  H   UNL     1      47.381   8.565  20.424  0.00  0.00    +0.000 HD
ENDBRANCH  20  23
ENDBRANCH   1  19
BRANCH   1  34
ATOM     34  C   UNL     1      47.767   8.864  14.141  0.00  0.00    +0.000 C 
BRANCH  34  35
ATOM     35  N   UNL     1      47.504   9.349  15.497  0.00  0.00    +0.000 NA
ATOM     36  H   UNL     1      47.166   8.564  16.055  0.00  0.00    +0.000 HD
ATOM     37  H   UNL     1      46.751  10.034  15.474  0.00  0.00    +0.000 HD
ENDBRANCH  34  35
ENDBRANCH   1  34
TORSDOF 8
ENDMDL
MODEL 2
REMARK VINA RESULT:    -7.362      2.645      4.183
REMARK INTER + INTRA:         -11.922
REMARK INTER:                 -10.644
REMARK INTRA:                  -1.277
REMARK UNBOUND:                -1.332
REMARK  Name = 
REMARK  8 active torsions:
REMARK  status: ('A' for Active; 'I' for Inactive)
REMARK    1  A    between atoms: N_1  and  C_2
REMARK    2  A    between atoms: C_2  and  C_3
REMARK    3  A    between atoms: C_3  and  N_4
REMARK    4  A    between atoms: C_3  and  C_17
REMARK    5  A    between atoms: C_5  and  C_7
REMARK    6  A    between atoms: C_20  and  C_21
REMARK    7  A    between atoms: C_21  and  N_22
REMARK    8  A    between atoms: C_23  and  C_25
REMARK                            x       y       z     vdW  Elec       q    Type
REMARK                         _______ _______ _______ _____ _____    ______ ____
ROOT
ATOM      1  C   UNL     1      46.964   4.995  15.075  0.00  0.00    +0.000 C 
ENDROOT
BRANCH   1   2
ATOM      2  C   UNL     1      46.286   4.792  13.709  0.00  0.00    +0.000 A 
ATOM      3  C   UNL     1      46.062   5.882  12.853  0.00  0.00    +0.000 A 
ATOM      4  C   UNL     1      45.457   5.710  11.594  0.00  0.00    +0.000 A 
ATOM      5  C   UNL     1      45.051   4.442  11.158  0.00  0.00    +0.000 A 
ATOM      6  C   UNL     1      45.290   3.349  12.002  0.00  0.00    +0.000 A 
ATOM      7  C   UNL     1      45.893   3.521  13.258  0.00  0.00    +0.000 A 
BRANCH   5   8
ATOM      8  C   UNL     1      44.349   4.244   9.831  0.00  0.00    +0.000 C 
BRANCH   8   9
ATOM      9  N   UNL     1      45.260   3.951   8.751  0.00  0.00    +0.000 N 
ATOM     10  C   UNL     1      45.544   2.647   8.394  0.00  0.00    +0.000 C 
ATOM     11  O   UNL     1      45.062   1.680   8.966  0.00  0.00    +0.000 OA
ATOM     12  H   UNL     1      45.556   4.707   8.155  0.00  0.00    +0.000 HD
BRANCH  10  13
ATOM     13  C   UNL     1      46.478   2.518   7.268  0.00  0.00    +0.000 A 
ATOM     14  C   UNL     1      46.514   3.229   6.030  0.00  0.00    +0.000 A 
ATOM     15  C   UNL     1      47.591   2.779   5.301  0.00  0.00    +0.000 A 
ATOM     16  N   UNL     1      48.220   1.813   6.040  0.00  0.00    +0.000 N 
ATOM     17  C   UNL     1      47.558   1.648   7.229  0.00  0.00    +0.000 A 
ATOM     18  H   UNL     1      49.051   1.307   5.755  0.00  0.00    +0.000 HD
ENDBRANCH  10  13
ENDBRANCH   8   9
ENDBRANCH   5   8
ENDBRANCH   1   2
BRANCH   1  19
ATOM     19  N   UNL     1      48.137   5.841  14.903  0.00  0.00    +0.000 N 
ATOM     20  C   UNL     1      48.785   6.475  15.938  0.00  0.00    +0.000 C 
ATOM     21  O   UNL     1      48.530   6.281  17.118  0.00  0.00    +0.000 OA
ATOM     22  H   UNL     1      48.254   6.217  13.970  0.00  0.00    +0.000 HD
BRANCH  20  23
ATOM     23  C   UNL     1      49.855   7.382  15.528  0.00  0.00    +0.000 A 
ATOM     24  C   UNL     1      51.181   7.139  15.855  0.00  0.00    +0.000 A 
ATOM     25  S   UNL     1      52.249   8.337  15.267  0.00  0.00    +0.000 S 
ATOM     26  C   UNL     1      50.965   9.239  14.602  0.00  0.00    +0.000 A 
ATOM     27  N   UNL     1      51.176  10.425  13.973  0.00  0.00    +0.000 NA
ATOM     28  C   UNL     1      50.103  11.007  13.554  0.00  0.00    +0.000 A 
ATOM     29  N   UNL     1      48.833  10.507  13.694  0.00  0.00    +0.000 N 
ATOM     30  C   UNL     1      48.575   9.297  14.282  0.00  0.00    +0.000 A 
ATOM     31  O   UNL     1      47.439   8.843  14.311  0.00  0.00    +0.000 OA
ATOM     32  C   UNL     1      49.748   8.619  14.798  0.00  0.00    +0.000 A 
ATOM     33  H   UNL     1      48.033  10.987  13.319  0.00  0.00    +0.000 HD
ENDBRANCH  20  23
ENDBRANCH   1  19
BRANCH   1  34
ATOM     34  C   UNL     1      47.366   3.659  15.763  0.00  0.00    +0.000 C 
BRANCH  34  35
ATOM     35  N   UNL     1      46.826   3.458  17.109  0.00  0.00    +0.000 NA
ATOM     36  H   UNL     1      47.603   3.474  17.768  0.00  0.00    +0.000 HD
ATOM     37  H   UNL     1      46.409   2.531  17.175  0.00  0.00    +0.000 HD
ENDBRANCH  34  35
ENDBRANCH   1  34
TORSDOF 8
ENDMDL
MODEL 3
REMARK VINA RESULT:    -7.240      3.156      4.433
REMARK INTER + INTRA:         -11.746
REMARK INTER:                 -10.429
REMARK INTRA:                  -1.317
REMARK UNBOUND:                -1.332
REMARK  Name = 
REMARK  8 active torsions:
REMARK  status: ('A' for Active; 'I' for Inactive)
REMARK    1  A    between atoms: N_1  and  C_2
REMARK    2  A    between atoms: C_2  and  C_3
REMARK    3  A    between atoms: C_3  and  N_4
REMARK    4  A    between atoms: C_3  and  C_17
REMARK    5  A    between atoms: C_5  and  C_7
REMARK    6  A    between atoms: C_20  and  C_21
REMARK    7  A    between atoms: C_21  and  N_22
REMARK    8  A    between atoms: C_23  and  C_25
REMARK                            x       y       z     vdW  Elec       q    Type
REMARK                         _______ _______ _______ _____ _____    ______ ____
ROOT
ATOM      1  C   UNL     1      46.940   5.694  14.383  0.00  0.00    +0.000 C 
ENDROOT
BRANCH   1   2
ATOM      2  C   UNL     1      46.222   5.326  13.074  0.00  0.00    +0.000 A 
ATOM      3  C   UNL     1      45.337   4.236  13.025  0.00  0.00    +0.000 A 
ATOM      4  C   UNL     1      44.660   3.896  11.839  0.00  0.00    +0.000 A 
ATOM      5  C   UNL     1      44.857   4.632  10.664  0.00  0.00    +0.000 A 
ATOM      6  C   UNL     1      45.724   5.732  10.713  0.00  0.00    +0.000 A 
ATOM      7  C   UNL     1      46.399   6.071  11.897  0.00  0.00    +0.000 A 
BRANCH   5   8
ATOM      8  C   UNL     1      44.181   4.249   9.363  0.00  0.00    +0.000 C 
BRANCH   8   9
ATOM      9  N   UNL     1      45.118   3.913   8.319  0.00  0.00    +0.000 N 
ATOM     10  C   UNL     1      45.695   2.659   8.260  0.00  0.00    +0.000 C 
ATOM     11  O   UNL     1      45.464   1.780   9.078  0.00  0.00    +0.000 OA
ATOM     12  H   UNL     1      45.216   4.545   7.542  0.00  0.00    +0.000 HD
BRANCH  10  13
ATOM     13  C   UNL     1      46.615   2.471   7.130  0.00  0.00    +0.000 A 
ATOM     14  C   UNL     1      46.618   3.094   5.846  0.00  0.00    +0.000 A 
ATOM     15  C   UNL     1      47.694   2.615   5.133  0.00  0.00    +0.000 A 
ATOM     16  N   UNL     1      48.353   1.716   5.926  0.00  0.00    +0.000 N 
ATOM     17  C   UNL     1      47.712   1.622   7.135  0.00  0.00    +0.000 A 
ATOM     18  H   UNL     1      49.190   1.207   5.665  0.00  0.00    +0.000 HD
ENDBRANCH  10  13
ENDBRANCH   8   9
ENDBRANCH   5   8
ENDBRANCH   1   2
BRANCH   1  19
ATOM     19  N   UNL     1      48.189   6.374  14.066  0.00  0.00    +0.000 N 
ATOM     20  C   UNL     1      48.330   7.742  14.027  0.00  0.00    +0.000 C 
ATOM     21  O   UNL     1      47.464   8.524  14.392  0.00  0.00    +0.000 OA
ATOM     22  H   UNL     1      48.855   5.814  13.547  0.00  0.00    +0.000 HD
BRANCH  20  23
ATOM     23  C   UNL     1      49.631   8.211  13.555  0.00  0.00    +0.000 A 
ATOM     24  C   UNL     1      49.759   8.958  12.392  0.00  0.00    +0.000 A 
ATOM     25  S   UNL     1      51.377   9.388  12.045  0.00  0.00    +0.000 S 
ATOM     26  C   UNL     1      51.955   8.548  13.410  0.00  0.00    +0.000 A 
ATOM     27  N   UNL     1      53.283   8.478  13.695  0.00  0.00    +0.000 NA
ATOM     28  C   UNL     1      53.569   7.777  14.741  0.00  0.00    +0.000 A 
ATOM     29  N   UNL     1      52.648   7.149  15.541  0.00  0.00    +0.000 N 
ATOM     30  C   UNL     1      51.299   7.227  15.318  0.00  0.00    +0.000 A 
ATOM     31  O   UNL     1      50.504   6.726  16.102  0.00  0.00    +0.000 OA
ATOM     32  C   UNL     1      50.929   7.978  14.134  0.00  0.00    +0.000 A 
ATOM     33  H   UNL     1      52.924   6.642  16.364  0.00  0.00    +0.000 HD
ENDBRANCH  20  23
ENDBRANCH   1  19
BRANCH   1  34
ATOM     34  C   UNL     1      47.219   4.465  15.295  0.00  0.00    +0.000 C 
BRANCH  34  35
ATOM     35  N   UNL     1      48.359   4.603  16.203  0.00  0.00    +0.000 NA
ATOM     36  H   UNL     1      48.732   3.671  16.388  0.00  0.00    +0.000 HD
ATOM     37  H   UNL     1      48.041   4.970  17.098  0.00  0.00    +0.000 HD
ENDBRANCH  34  35
ENDBRANCH   1  34
TORSDOF 8
ENDMDL
MODEL 4
REMARK VINA RESULT:    -7.207      3.779      8.704
REMARK INTER + INTRA:         -11.699
REMARK INTER:                 -10.578
REMARK INTRA:                  -1.121
REMARK UNBOUND:                -1.332
REMARK  Name = 
REMARK  8 active torsions:
REMARK  status: ('A' for Active; 'I' for Inactive)
REMARK    1  A    between atoms: N_1  and  C_2
REMARK    2  A    between atoms: C_2  and  C_3
REMARK    3  A    between atoms: C_3  and  N_4
REMARK    4  A    between atoms: C_3  and  C_17
REMARK    5  A    between atoms: C_5  and  C_7
REMARK    6  A    between atoms: C_20  and  C_21
REMARK    7  A    between atoms: C_21  and  N_22
REMARK    8  A    between atoms: C_23  and  C_25
REMARK                            x       y       z     vdW  Elec       q    Type
REMARK                         _______ _______ _______ _____ _____    ______ ____
ROOT
ATOM      1  C   UNL     1      47.631   6.877  13.665  0.00  0.00    +0.000 C 
ENDROOT
BRANCH   1   2
ATOM      2  C   UNL     1      47.944   5.990  14.882  0.00  0.00    +0.000 A 
ATOM      3  C   UNL     1      48.874   6.404  15.850  0.00  0.00    +0.000 A 
ATOM      4  C   UNL     1      49.161   5.611  16.976  0.00  0.00    +0.000 A 
ATOM      5  C   UNL     1      48.531   4.374  17.162  0.00  0.00    +0.000 A 
ATOM      6  C   UNL     1      47.589   3.964  16.209  0.00  0.00    +0.000 A 
ATOM      7  C   UNL     1      47.304   4.756  15.085  0.00  0.00    +0.000 A 
BRANCH   5   8
ATOM      8  C   UNL     1      48.865   3.480  18.339  0.00  0.00    +0.000 C 
BRANCH   8   9
ATOM      9  N   UNL     1      50.261   3.122  18.396  0.00  0.00    +0.000 N 
ATOM     10  C   UNL     1      50.808   2.245  17.478  0.00  0.00    +0.000 C 
ATOM     11  O   UNL     1      50.154   1.719  16.588  0.00  0.00    +0.000 OA
ATOM     12  H   UNL     1      50.866   3.646  19.006  0.00  0.00    +0.000 HD
BRANCH  10  13
ATOM     13  C   UNL     1      52.243   1.995  17.663  0.00  0.00    +0.000 A 
ATOM     14  C   UNL     1      53.299   2.916  17.938  0.00  0.00    +0.000 A 
ATOM     15  C   UNL     1      54.474   2.208  18.054  0.00  0.00    +0.000 A 
ATOM     16  N   UNL     1      54.186   0.885  17.855  0.00  0.00    +0.000 N 
ATOM     17  C   UNL     1      52.842   0.744  17.619  0.00  0.00    +0.000 A 
ATOM     18  H   UNL     1      54.858   0.128  17.886  0.00  0.00    +0.000 HD
ENDBRANCH  10  13
ENDBRANCH   8   9
ENDBRANCH   5   8
ENDBRANCH   1   2
BRANCH   1  19
ATOM     19  N   UNL     1      47.086   6.047  12.599  0.00  0.00    +0.000 N 
ATOM     20  C   UNL     1      46.065   6.441  11.765  0.00  0.00    +0.000 C 
ATOM     21  O   UNL     1      45.610   7.575  11.740  0.00  0.00    +0.000 OA
ATOM     22  H   UNL     1      47.249   5.053  12.712  0.00  0.00    +0.000 HD
BRANCH  20  23
ATOM     23  C   UNL     1      45.581   5.404  10.855  0.00  0.00    +0.000 A 
ATOM     24  C   UNL     1      45.769   5.493   9.484  0.00  0.00    +0.000 A 
ATOM     25  S   UNL     1      45.117   4.163   8.629  0.00  0.00    +0.000 S 
ATOM     26  C   UNL     1      44.523   3.458  10.062  0.00  0.00    +0.000 A 
ATOM     27  N   UNL     1      43.815   2.297  10.046  0.00  0.00    +0.000 NA
ATOM     28  C   UNL     1      43.403   1.907  11.205  0.00  0.00    +0.000 A 
ATOM     29  N   UNL     1      43.643   2.563  12.386  0.00  0.00    +0.000 N 
ATOM     30  C   UNL     1      44.386   3.711  12.456  0.00  0.00    +0.000 A 
ATOM     31  O   UNL     1      44.652   4.220  13.537  0.00  0.00    +0.000 OA
ATOM     32  C   UNL     1      44.846   4.208  11.174  0.00  0.00    +0.000 A 
ATOM     33  H   UNL     1      43.324   2.196  13.266  0.00  0.00    +0.000 HD
ENDBRANCH  20  23
ENDBRANCH   1  19
BRANCH   1  34
ATOM     34  C   UNL     1      48.868   7.664  13.148  0.00  0.00    +0.000 C 
BRANCH  34  35
ATOM     35  N   UNL     1      49.892   6.858  12.481  0.00  0.00    +0.000 NA
ATOM     36  H   UNL     1      50.806   7.239  12.728  0.00  0.00    +0.000 HD
ATOM     37  H   UNL     1      49.801   6.955  11.472  0.00  0.00    +0.000 HD
ENDBRANCH  34  35
ENDBRANCH   1  34
TORSDOF 8
ENDMDL
MODEL 5
REMARK VINA RESULT:    -7.110      1.918      2.805
REMARK INTER + INTRA:         -11.558
REMARK INTER:                 -10.214
REMARK INTRA:                  -1.344
REMARK UNBOUND:                -1.332
REMARK  Name = 
REMARK  8 active torsions:
REMARK  status: ('A' for Active; 'I' for Inactive)
REMARK    1  A    between atoms: N_1  and  C_2
REMARK    2  A    between atoms: C_2  and  C_3
REMARK    3  A    between atoms: C_3  and  N_4
REMARK    4  A    between atoms: C_3  and  C_17
REMARK    5  A    between atoms: C_5  and  C_7
REMARK    6  A    between atoms: C_20  and  C_21
REMARK    7  A    between atoms: C_21  and  N_22
REMARK    8  A    between atoms: C_23  and  C_25
REMARK                            x       y       z     vdW  Elec       q    Type
REMARK                         _______ _______ _______ _____ _____    ______ ____
ROOT
ATOM      1  C   UNL     1      46.877   8.811  12.815  0.00  0.00    +0.000 C 
ENDROOT
BRANCH   1   2
ATOM      2  C   UNL     1      46.167   7.541  12.316  0.00  0.00    +0.000 A 
ATOM      3  C   UNL     1      44.950   7.628  11.620  0.00  0.00    +0.000 A 
ATOM      4  C   UNL     1      44.296   6.476  11.144  0.00  0.00    +0.000 A 
ATOM      5  C   UNL     1      44.838   5.202  11.358  0.00  0.00    +0.000 A 
ATOM      6  C   UNL     1      46.062   5.112  12.036  0.00  0.00    +0.000 A 
ATOM      7  C   UNL     1      46.713   6.262  12.511  0.00  0.00    +0.000 A 
BRANCH   5   8
ATOM      8  C   UNL     1      44.123   3.947  10.902  0.00  0.00    +0.000 C 
BRANCH   8   9
ATOM      9  N   UNL     1      44.957   3.085  10.099  0.00  0.00    +0.000 N 
ATOM     10  C   UNL     1      45.235   3.393   8.781  0.00  0.00    +0.000 C 
ATOM     11  O   UNL     1      44.791   4.385   8.220  0.00  0.00    +0.000 OA
ATOM     12  H   UNL     1      45.468   2.349  10.557  0.00  0.00    +0.000 HD
BRANCH  10  13
ATOM     13  C   UNL     1      46.109   2.424   8.106  0.00  0.00    +0.000 A 
ATOM     14  C   UNL     1      46.084   0.997   8.142  0.00  0.00    +0.000 A 
ATOM     15  C   UNL     1      47.086   0.524   7.325  0.00  0.00    +0.000 A 
ATOM     16  N   UNL     1      47.733   1.604   6.790  0.00  0.00    +0.000 N 
ATOM     17  C   UNL     1      47.150   2.757   7.252  0.00  0.00    +0.000 A 
ATOM     18  H   UNL     1      48.513   1.559   6.144  0.00  0.00    +0.000 HD
ENDBRANCH  10  13
ENDBRANCH   8   9
ENDBRANCH   5   8
ENDBRANCH   1   2
BRANCH   1  19
ATOM     19  N   UNL     1      47.082   8.707  14.253  0.00  0.00    +0.000 N 
ATOM     20  C   UNL     1      48.185   9.204  14.909  0.00  0.00    +0.000 C 
ATOM     21  O   UNL     1      49.032   9.906  14.376  0.00  0.00    +0.000 OA
ATOM     22  H   UNL     1      46.558   7.966  14.703  0.00  0.00    +0.000 HD
BRANCH  20  23
ATOM     23  C   UNL     1      48.255   8.872  16.331  0.00  0.00    +0.000 A 
ATOM     24  C   UNL     1      47.980   9.812  17.313  0.00  0.00    +0.000 A 
ATOM     25  S   UNL     1      48.128   9.189  18.899  0.00  0.00    +0.000 S 
ATOM     26  C   UNL     1      48.610   7.662  18.318  0.00  0.00    +0.000 A 
ATOM     27  N   UNL     1      48.935   6.648  19.162  0.00  0.00    +0.000 NA
ATOM     28  C   UNL     1      49.315   5.563  18.574  0.00  0.00    +0.000 A 
ATOM     29  N   UNL     1      49.388   5.392  17.214  0.00  0.00    +0.000 N 
ATOM     30  C   UNL     1      49.030   6.370  16.325  0.00  0.00    +0.000 A 
ATOM     31  O   UNL     1      49.025   6.152  15.121  0.00  0.00    +0.000 OA
ATOM     32  C   UNL     1      48.626   7.620  16.939  0.00  0.00    +0.000 A 
ATOM     33  H   UNL     1      49.660   4.513  16.807  0.00  0.00    +0.000 HD
ENDBRANCH  20  23
ENDBRANCH   1  19
BRANCH   1  34
ATOM     34  C   UNL     1      46.100  10.117  12.481  0.00  0.00    +0.000 C 
BRANCH  34  35
ATOM     35  N   UNL     1      46.902  11.342  12.485  0.00  0.00    +0.000 NA
ATOM     36  H   UNL     1      47.839  11.107  12.811  0.00  0.00    +0.000 HD
ATOM     37  H   UNL     1      46.516  12.000  13.161  0.00  0.00    +0.000 HD
ENDBRANCH  34  35
ENDBRANCH   1  34
TORSDOF 8
ENDMDL
MODEL 6
REMARK VINA RESULT:    -6.764      3.435      8.377
REMARK INTER + INTRA:         -11.061
REMARK INTER:                  -9.858
REMARK INTRA:                  -1.203
REMARK UNBOUND:                -1.332
REMARK  Name = 
REMARK  8 active torsions:
REMARK  status: ('A' for Active; 'I' for Inactive)
REMARK    1  A    between atoms: N_1  and  C_2
REMARK    2  A    between atoms: C_2  and  C_3
REMARK    3  A    between atoms: C_3  and  N_4
REMARK    4  A    between atoms: C_3  and  C_17
REMARK    5  A    between atoms: C_5  and  C_7
REMARK    6  A    between atoms: C_20  and  C_21
REMARK    7  A    between atoms: C_21  and  N_22
REMARK    8  A    between atoms: C_23  and  C_25
REMARK                            x       y       z     vdW  Elec       q    Type
REMARK                         _______ _______ _______ _____ _____    ______ ____
ROOT
ATOM      1  C   UNL     1      47.706   8.135  12.565  0.00  0.00    +0.000 C 
ENDROOT
BRANCH   1   2
ATOM      2  C   UNL     1      48.128   7.602  13.944  0.00  0.00    +0.000 A 
ATOM      3  C   UNL     1      47.924   6.254  14.284  0.00  0.00    +0.000 A 
ATOM      4  C   UNL     1      48.319   5.747  15.536  0.00  0.00    +0.000 A 
ATOM      5  C   UNL     1      48.922   6.577  16.489  0.00  0.00    +0.000 A 
ATOM      6  C   UNL     1      49.145   7.918  16.148  0.00  0.00    +0.000 A 
ATOM      7  C   UNL     1      48.750   8.424  14.898  0.00  0.00    +0.000 A 
BRANCH   5   8
ATOM      8  C   UNL     1      49.305   6.065  17.862  0.00  0.00    +0.000 C 
BRANCH   8   9
ATOM      9  N   UNL     1      49.797   4.709  17.840  0.00  0.00    +0.000 N 
ATOM     10  C   UNL     1      51.132   4.442  17.604  0.00  0.00    +0.000 C 
ATOM     11  O   UNL     1      51.959   5.317  17.391  0.00  0.00    +0.000 OA
ATOM     12  H   UNL     1      49.191   3.973  18.163  0.00  0.00    +0.000 HD
BRANCH  10  13
ATOM     13  C   UNL     1      51.476   3.014  17.628  0.00  0.00    +0.000 A 
ATOM     14  C   UNL     1      52.731   2.385  17.887  0.00  0.00    +0.000 A 
ATOM     15  C   UNL     1      52.555   1.021  17.825  0.00  0.00    +0.000 A 
ATOM     16  N   UNL     1      51.239   0.783  17.532  0.00  0.00    +0.000 N 
ATOM     17  C   UNL     1      50.578   1.979  17.413  0.00  0.00    +0.000 A 
ATOM     18  H   UNL     1      50.818  -0.133  17.430  0.00  0.00    +0.000 HD
ENDBRANCH  10  13
ENDBRANCH   8   9
ENDBRANCH   5   8
ENDBRANCH   1   2
BRANCH   1  19
ATOM     19  N   UNL     1      47.125   7.046  11.791  0.00  0.00    +0.000 N 
ATOM     20  C   UNL     1      45.816   7.018  11.369  0.00  0.00    +0.000 C 
ATOM     21  O   UNL     1      45.048   7.963  11.476  0.00  0.00    +0.000 OA
ATOM     22  H   UNL     1      47.618   6.164  11.866  0.00  0.00    +0.000 HD
BRANCH  20  23
ATOM     23  C   UNL     1      45.406   5.772  10.725  0.00  0.00    +0.000 A 
ATOM     24  C   UNL     1      45.656   5.529   9.382  0.00  0.00    +0.000 A 
ATOM     25  S   UNL     1      45.084   4.006   8.856  0.00  0.00    +0.000 S 
ATOM     26  C   UNL     1      44.443   3.650  10.394  0.00  0.00    +0.000 A 
ATOM     27  N   UNL     1      43.771   2.493  10.637  0.00  0.00    +0.000 NA
ATOM     28  C   UNL     1      43.315   2.382  11.840  0.00  0.00    +0.000 A 
ATOM     29  N   UNL     1      43.480   3.317  12.832  0.00  0.00    +0.000 N 
ATOM     30  C   UNL     1      44.185   4.476  12.645  0.00  0.00    +0.000 A 
ATOM     31  O   UNL     1      44.385   5.244  13.577  0.00  0.00    +0.000 OA
ATOM     32  C   UNL     1      44.691   4.661  11.299  0.00  0.00    +0.000 A 
ATOM     33  H   UNL     1      43.131   3.165  13.762  0.00  0.00    +0.000 HD
ENDBRANCH  20  23
ENDBRANCH   1  19
BRANCH   1  34
ATOM     34  C   UNL     1      48.878   8.784  11.775  0.00  0.00    +0.000 C 
BRANCH  34  35
ATOM     35  N   UNL     1      48.688  10.189  11.410  0.00  0.00    +0.000 NA
ATOM     36  H   UNL     1      48.055  10.611  12.089  0.00  0.00    +0.000 HD
ATOM     37  H   UNL     1      48.222  10.247  10.506  0.00  0.00    +0.000 HD
ENDBRANCH  34  35
ENDBRANCH   1  34
TORSDOF 8
ENDMDL
MODEL 7
REMARK VINA RESULT:    -6.758      2.916      3.996
REMARK INTER + INTRA:         -11.053
REMARK INTER:                  -9.897
REMARK INTRA:                  -1.155
REMARK UNBOUND:                -1.332
REMARK  Name = 
REMARK  8 active torsions:
REMARK  status: ('A' for Active; 'I' for Inactive)
REMARK    1  A    between atoms: N_1  and  C_2
REMARK    2  A    between atoms: C_2  and  C_3
REMARK    3  A    between atoms: C_3  and  N_4
REMARK    4  A    between atoms: C_3  and  C_17
REMARK    5  A    between atoms: C_5  and  C_7
REMARK    6  A    between atoms: C_20  and  C_21
REMARK    7  A    between atoms: C_21  and  N_22
REMARK    8  A    between atoms: C_23  and  C_25
REMARK                            x       y       z     vdW  Elec       q    Type
REMARK                         _______ _______ _______ _____ _____    ______ ____
ROOT
ATOM      1  C   UNL     1      47.532   4.987  15.753  0.00  0.00    +0.000 C 
ENDROOT
BRANCH   1   2
ATOM      2  C   UNL     1      46.926   5.168  14.351  0.00  0.00    +0.000 A 
ATOM      3  C   UNL     1      47.330   6.233  13.529  0.00  0.00    +0.000 A 
ATOM      4  C   UNL     1      46.796   6.404  12.238  0.00  0.00    +0.000 A 
ATOM      5  C   UNL     1      45.835   5.518  11.735  0.00  0.00    +0.000 A 
ATOM      6  C   UNL     1      45.443   4.443  12.544  0.00  0.00    +0.000 A 
ATOM      7  C   UNL     1      45.975   4.273  13.832  0.00  0.00    +0.000 A 
BRANCH   5   8
ATOM      8  C   UNL     1      45.209   5.715  10.370  0.00  0.00    +0.000 C 
BRANCH   8   9
ATOM      9  N   UNL     1      45.821   4.902   9.347  0.00  0.00    +0.000 N 
ATOM     10  C   UNL     1      45.248   3.710   8.949  0.00  0.00    +0.000 C 
ATOM     11  O   UNL     1      44.216   3.271   9.437  0.00  0.00    +0.000 OA
ATOM     12  H   UNL     1      46.577   5.295   8.811  0.00  0.00    +0.000 HD
BRANCH  10  13
ATOM     13  C   UNL     1      45.985   3.009   7.889  0.00  0.00    +0.000 A 
ATOM     14  C   UNL     1      46.481   3.505   6.646  0.00  0.00    +0.000 A 
ATOM     15  C   UNL     1      47.132   2.480   5.997  0.00  0.00    +0.000 A 
ATOM     16  N   UNL     1      47.052   1.367   6.791  0.00  0.00    +0.000 N 
ATOM     17  C   UNL     1      46.364   1.675   7.936  0.00  0.00    +0.000 A 
ATOM     18  H   UNL     1      47.449   0.461   6.570  0.00  0.00    +0.000 HD
ENDBRANCH  10  13
ENDBRANCH   8   9
ENDBRANCH   5   8
ENDBRANCH   1   2
BRANCH   1  19
ATOM     19  N   UNL     1      48.915   5.443  15.736  0.00  0.00    +0.000 N 
ATOM     20  C   UNL     1      49.344   6.617  16.312  0.00  0.00    +0.000 C 
ATOM     21  O   UNL     1      48.638   7.323  17.017  0.00  0.00    +0.000 OA
ATOM     22  H   UNL     1      49.484   5.041  15.000  0.00  0.00    +0.000 HD
BRANCH  20  23
ATOM     23  C   UNL     1      50.745   6.947  16.061  0.00  0.00    +0.000 A 
ATOM     24  C   UNL     1      51.109   8.014  15.252  0.00  0.00    +0.000 A 
ATOM     25  S   UNL     1      52.802   8.201  15.108  0.00  0.00    +0.000 S 
ATOM     26  C   UNL     1      53.095   6.834  16.081  0.00  0.00    +0.000 A 
ATOM     27  N   UNL     1      54.357   6.399  16.339  0.00  0.00    +0.000 NA
ATOM     28  C   UNL     1      54.418   5.331  17.063  0.00  0.00    +0.000 A 
ATOM     29  N   UNL     1      53.331   4.661  17.566  0.00  0.00    +0.000 N 
ATOM     30  C   UNL     1      52.044   5.086  17.368  0.00  0.00    +0.000 A 
ATOM     31  O   UNL     1      51.105   4.513  17.905  0.00  0.00    +0.000 OA
ATOM     32  C   UNL     1      51.923   6.265  16.534  0.00  0.00    +0.000 A 
ATOM     33  H   UNL     1      53.436   3.851  18.152  0.00  0.00    +0.000 HD
ENDBRANCH  20  23
ENDBRANCH   1  19
BRANCH   1  34
ATOM     34  C   UNL     1      47.460   3.520  16.264  0.00  0.00    +0.000 C 
BRANCH  34  35
ATOM     35  N   UNL     1      46.690   3.320  17.493  0.00  0.00    +0.000 NA
ATOM     36  H   UNL     1      46.199   2.429  17.418  0.00  0.00    +0.000 HD
ATOM     37  H   UNL     1      45.974   4.040  17.568  0.00  0.00    +0.000 HD
ENDBRANCH  34  35
ENDBRANCH   1  34
TORSDOF 8
ENDMDL
MODEL 8
REMARK VINA RESULT:    -6.654      2.160      2.719
REMARK INTER + INTRA:         -10.903
REMARK INTER:                  -9.477
REMARK INTRA:                  -1.426
REMARK UNBOUND:                -1.332
REMARK  Name = 
REMARK  8 active torsions:
REMARK  status: ('A' for Active; 'I' for Inactive)
REMARK    1  A    between atoms: N_1  and  C_2
REMARK    2  A    between atoms: C_2  and  C_3
REMARK    3  A    between atoms: C_3  and  N_4
REMARK    4  A    between atoms: C_3  and  C_17
REMARK    5  A    between atoms: C_5  and  C_7
REMARK    6  A    between atoms: C_20  and  C_21
REMARK    7  A    between atoms: C_21  and  N_22
REMARK    8  A    between atoms: C_23  and  C_25
REMARK                            x       y       z     vdW  Elec       q    Type
REMARK                         _______ _______ _______ _____ _____    ______ ____
ROOT
ATOM      1  C   UNL     1      49.105   8.687  14.543  0.00  0.00    +0.000 C 
ENDROOT
BRANCH   1   2
ATOM      2  C   UNL     1      47.978   8.245  13.595  0.00  0.00    +0.000 A 
ATOM      3  C   UNL     1      46.683   8.774  13.725  0.00  0.00    +0.000 A 
ATOM      4  C   UNL     1      45.645   8.390  12.856  0.00  0.00    +0.000 A 
ATOM      5  C   UNL     1      45.870   7.457  11.836  0.00  0.00    +0.000 A 
ATOM      6  C   UNL     1      47.165   6.940  11.690  0.00  0.00    +0.000 A 
ATOM      7  C   UNL     1      48.200   7.324  12.558  0.00  0.00    +0.000 A 
BRANCH   5   8
ATOM      8  C   UNL     1      44.754   6.990  10.924  0.00  0.00    +0.000 C 
BRANCH   8   9
ATOM      9  N   UNL     1      45.151   5.906  10.059  0.00  0.00    +0.000 N 
ATOM     10  C   UNL     1      44.661   4.628  10.251  0.00  0.00    +0.000 C 
ATOM     11  O   UNL     1      43.889   4.339  11.154  0.00  0.00    +0.000 OA
ATOM     12  H   UNL     1      45.655   6.125   9.216  0.00  0.00    +0.000 HD
BRANCH  10  13
ATOM     13  C   UNL     1      45.150   3.642   9.278  0.00  0.00    +0.000 A 
ATOM     14  C   UNL     1      45.854   3.844   8.053  0.00  0.00    +0.000 A 
ATOM     15  C   UNL     1      46.123   2.614   7.498  0.00  0.00    +0.000 A 
ATOM     16  N   UNL     1      45.608   1.658   8.332  0.00  0.00    +0.000 N 
ATOM     17  C   UNL     1      45.019   2.267   9.411  0.00  0.00    +0.000 A 
ATOM     18  H   UNL     1      45.662   0.658   8.180  0.00  0.00    +0.000 HD
ENDBRANCH  10  13
ENDBRANCH   8   9
ENDBRANCH   5   8
ENDBRANCH   1   2
BRANCH   1  19
ATOM     19  N   UNL     1      49.153   7.780  15.682  0.00  0.00    +0.000 N 
ATOM     20  C   UNL     1      50.236   6.989  15.988  0.00  0.00    +0.000 C 
ATOM     21  O   UNL     1      51.317   7.071  15.422  0.00  0.00    +0.000 OA
ATOM     22  H   UNL     1      48.246   7.501  16.039  0.00  0.00    +0.000 HD
BRANCH  20  23
ATOM     23  C   UNL     1      50.021   6.055  17.092  0.00  0.00    +0.000 A 
ATOM     24  C   UNL     1      50.818   6.073  18.227  0.00  0.00    +0.000 A 
ATOM     25  S   UNL     1      50.375   4.888  19.378  0.00  0.00    +0.000 S 
ATOM     26  C   UNL     1      49.140   4.288  18.371  0.00  0.00    +0.000 A 
ATOM     27  N   UNL     1      48.374   3.225  18.736  0.00  0.00    +0.000 NA
ATOM     28  C   UNL     1      47.503   2.864  17.854  0.00  0.00    +0.000 A 
ATOM     29  N   UNL     1      47.315   3.476  16.640  0.00  0.00    +0.000 N 
ATOM     30  C   UNL     1      48.032   4.575  16.247  0.00  0.00    +0.000 A 
ATOM     31  O   UNL     1      47.777   5.147  15.196  0.00  0.00    +0.000 OA
ATOM     32  C   UNL     1      49.047   5.000  17.193  0.00  0.00    +0.000 A 
ATOM     33  H   UNL     1      46.599   3.174  16.003  0.00  0.00    +0.000 HD
ENDBRANCH  20  23
ENDBRANCH   1  19
BRANCH   1  34
ATOM     34  C   UNL     1      48.948  10.154  15.036  0.00  0.00    +0.000 C 
BRANCH  34  35
ATOM     35  N   UNL     1      50.194  10.830  15.402  0.00  0.00    +0.000 NA
ATOM     36  H   UNL     1      49.955  11.715  15.850  0.00  0.00    +0.000 HD
ATOM     37  H   UNL     1      50.715  11.064  14.559  0.00  0.00    +0.000 HD
ENDBRANCH  34  35
ENDBRANCH   1  34
TORSDOF 8
ENDMDL
MODEL 9
REMARK VINA RESULT:    -6.585      4.881      9.158
REMARK INTER + INTRA:         -10.804
REMARK INTER:                  -9.880
REMARK INTRA:                  -0.924
REMARK UNBOUND:                -1.332
REMARK  Name = 
REMARK  8 active torsions:
REMARK  status: ('A' for Active; 'I' for Inactive)
REMARK    1  A    between atoms: N_1  and  C_2
REMARK    2  A    between atoms: C_2  and  C_3
REMARK    3  A    between atoms: C_3  and  N_4
REMARK    4  A    between atoms: C_3  and  C_17
REMARK    5  A    between atoms: C_5  and  C_7
REMARK    6  A    between atoms: C_20  and  C_21
REMARK    7  A    between atoms: C_21  and  N_22
REMARK    8  A    between atoms: C_23  and  C_25
REMARK                            x       y       z     vdW  Elec       q    Type
REMARK                         _______ _______ _______ _____ _____    ______ ____
ROOT
ATOM      1  C   UNL     1      47.553   4.260  17.386  0.00  0.00    +0.000 C 
ENDROOT
BRANCH   1   2
ATOM      2  C   UNL     1      49.058   3.956  17.481  0.00  0.00    +0.000 A 
ATOM      3  C   UNL     1      49.530   2.637  17.380  0.00  0.00    +0.000 A 
ATOM      4  C   UNL     1      50.905   2.345  17.450  0.00  0.00    +0.000 A 
ATOM      5  C   UNL     1      51.848   3.364  17.633  0.00  0.00    +0.000 A 
ATOM      6  C   UNL     1      51.383   4.684  17.716  0.00  0.00    +0.000 A 
ATOM      7  C   UNL     1      50.011   4.975  17.646  0.00  0.00    +0.000 A 
BRANCH   5   8
ATOM      8  C   UNL     1      53.327   3.066  17.765  0.00  0.00    +0.000 C 
BRANCH   8   9
ATOM      9  N   UNL     1      53.664   1.713  17.395  0.00  0.00    +0.000 N 
ATOM     10  C   UNL     1      54.151   0.820  18.330  0.00  0.00    +0.000 C 
ATOM     11  O   UNL     1      54.336   1.118  19.502  0.00  0.00    +0.000 OA
ATOM     12  H   UNL     1      53.382   1.380  16.487  0.00  0.00    +0.000 HD
BRANCH  10  13
ATOM     13  C   UNL     1      54.431  -0.520  17.798  0.00  0.00    +0.000 A 
ATOM     14  C   UNL     1      54.960  -0.902  16.528  0.00  0.00    +0.000 A 
ATOM     15  C   UNL     1      55.071  -2.273  16.498  0.00  0.00    +0.000 A 
ATOM     16  N   UNL     1      54.625  -2.754  17.699  0.00  0.00    +0.000 N 
ATOM     17  C   UNL     1      54.238  -1.705  18.493  0.00  0.00    +0.000 A 
ATOM     18  H   UNL     1      54.596  -3.732  17.964  0.00  0.00    +0.000 HD
ENDBRANCH  10  13
ENDBRANCH   8   9
ENDBRANCH   5   8
ENDBRANCH   1   2
BRANCH   1  19
ATOM     19  N   UNL     1      47.292   4.987  16.151  0.00  0.00    +0.000 N 
ATOM     20  C   UNL     1      47.323   4.412  14.901  0.00  0.00    +0.000 C 
ATOM     21  O   UNL     1      47.430   3.209  14.710  0.00  0.00    +0.000 OA
ATOM     22  H   UNL     1      47.423   5.989  16.214  0.00  0.00    +0.000 HD
BRANCH  20  23
ATOM     23  C   UNL     1      47.165   5.350  13.791  0.00  0.00    +0.000 A 
ATOM     24  C   UNL     1      48.170   6.239  13.440  0.00  0.00    +0.000 A 
ATOM     25  S   UNL     1      47.754   7.234  12.113  0.00  0.00    +0.000 S 
ATOM     26  C   UNL     1      46.203   6.538  12.002  0.00  0.00    +0.000 A 
ATOM     27  N   UNL     1      45.295   6.962  11.083  0.00  0.00    +0.000 NA
ATOM     28  C   UNL     1      44.152   6.364  11.145  0.00  0.00    +0.000 A 
ATOM     29  N   UNL     1      43.835   5.368  12.035  0.00  0.00    +0.000 N 
ATOM     30  C   UNL     1      44.730   4.880  12.949  0.00  0.00    +0.000 A 
ATOM     31  O   UNL     1      44.439   3.933  13.667  0.00  0.00    +0.000 OA
ATOM     32  C   UNL     1      46.019   5.544  12.940  0.00  0.00    +0.000 A 
ATOM     33  H   UNL     1      42.938   4.913  12.018  0.00  0.00    +0.000 HD
ENDBRANCH  20  23
ENDBRANCH   1  19
BRANCH   1  34
ATOM     34  C   UNL     1      47.014   5.065  18.602  0.00  0.00    +0.000 C 
BRANCH  34  35
ATOM     35  N   UNL     1      47.053   6.522  18.458  0.00  0.00    +0.000 NA
ATOM     36  H   UNL     1      46.167   6.898  18.795  0.00  0.00    +0.000 HD
ATOM     37  H   UNL     1      47.116   6.766  17.472  0.00  0.00    +0.000 HD
ENDBRANCH  34  35
ENDBRANCH   1  34
TORSDOF 8
ENDMDL
