MODEL 1
REMARK VINA RESULT:    -7.974      0.000      0.000
REMARK INTER + INTRA:         -11.730
REMARK INTER:                 -10.770
REMARK INTRA:                  -0.960
REMARK UNBOUND:                -0.960
REMARK  Name = 
REMARK  6 active torsions:
REMARK  status: ('A' for Active; 'I' for Inactive)
REMARK    1  A    between atoms: C_2  and  C_20
REMARK    2  A    between atoms: N_3  and  C_4
REMARK    3  A    between atoms: C_4  and  C_5
REMARK    4  A    between atoms: C_8  and  C_9
REMARK    5  A    between atoms: C_9  and  N_10
REMARK    6  A    between atoms: C_11  and  C_13
REMARK                            x       y       z     vdW  Elec       q    Type
REMARK                         _______ _______ _______ _____ _____    ______ ____
ROOT
ATOM      1  C   UNL     1      46.453   7.632  12.980  0.00  0.00    +0.000 A 
ATOM      2  C   UNL     1      46.586   6.244  12.836  0.00  0.00    +0.000 A 
ATOM      3  C   UNL     1      45.665   5.509  12.079  0.00  0.00    +0.000 A 
ATOM      4  C   UNL     1      44.601   6.149  11.429  0.00  0.00    +0.000 A 
ATOM      5  C   UNL     1      44.471   7.537  11.568  0.00  0.00    +0.000 A 
ATOM      6  C   UNL     1      45.393   8.272  12.324  0.00  0.00    +0.000 A 
ENDROOT
BRANCH   1   7
ATOM      7  C   UNL     1      47.451   8.428  13.786  0.00  0.00    +0.000 C 
BRANCH   7  10
ATOM      8  O   UNL     1      49.874   7.059  14.038  0.00  0.00    +0.000 OA
ATOM      9  C   UNL     1      49.126   7.111  15.011  0.00  0.00    +0.000 C 
ATOM     10  N   UNL     1      47.886   7.697  14.950  0.00  0.00    +0.000 N 
ATOM     11  H   UNL     1      47.391   7.893  15.812  0.00  0.00    +0.000 HD
BRANCH   9  12
ATOM     12  C   UNL     1      49.500   6.512  16.299  0.00  0.00    +0.000 A 
ATOM     13  C   UNL     1      50.498   7.087  17.075  0.00  0.00    +0.000 A 
ATOM     14  S   UNL     1      50.808   6.243  18.526  0.00  0.00    +0.000 S 
ATOM     15  C   UNL     1      49.585   5.108  18.190  0.00  0.00    +0.000 A 
ATOM     16  N   UNL     1      49.301   4.104  19.065  0.00  0.00    +0.000 NA
ATOM     17  C   UNL     1      48.326   3.339  18.701  0.00  0.00    +0.000 A 
ATOM     18  N   UNL     1      47.615   3.479  17.537  0.00  0.00    +0.000 N 
ATOM     19  C   UNL     1      47.890   4.454  16.611  0.00  0.00    +0.000 A 
ATOM     20  O   UNL     1      47.268   4.518  15.554  0.00  0.00    +0.000 OA
ATOM     21  C   UNL     1      48.965   5.356  16.979  0.00  0.00    +0.000 A 
ATOM     22  H   UNL     1      46.872   2.840  17.303  0.00  0.00    +0.000 HD
ENDBRANCH   9  12
ENDBRANCH   7  10
ENDBRANCH   1   7
BRANCH   4  23
ATOM     23  C   UNL     1      43.625   5.371  10.584  0.00  0.00    +0.000 C 
BRANCH  23  24
ATOM     24  N   UNL     1      44.242   4.759   9.435  0.00  0.00    +0.000 N 
ATOM     25  C   UNL     1      44.365   3.391   9.341  0.00  0.00    +0.000 C 
ATOM     26  O   UNL     1      43.935   2.619  10.197  0.00  0.00    +0.000 OA
ATOM     27  H   UNL     1      44.845   5.299   8.818  0.00  0.00    +0.000 HD
BRANCH  25  28
ATOM     28  C   UNL     1      45.047   2.886   8.062  0.00  0.00    +0.000 C 
ATOM     29  C   UNL     1      46.027   1.758   8.318  0.00  0.00    +0.000 C 
ATOM     30  C   UNL     1      46.862   1.753   7.051  0.00  0.00    +0.000 C 
ATOM     31  C   UNL     1      46.856   3.202   6.578  0.00  0.00    +0.000 C 
ATOM     32  N   UNL     1      45.900   3.922   7.428  0.00  0.00    +0.000 NA
ATOM     33  H   UNL     1      45.315   4.533   6.856  0.00  0.00    +0.000 HD
ENDBRANCH  25  28
ENDBRANCH  23  24
ENDBRANCH   4  23
TORSDOF 6
ENDMDL
MODEL 2
REMARK VINA RESULT:    -7.624      4.512      9.570
REMARK INTER + INTRA:         -11.258
REMARK INTER:                 -10.488
REMARK INTRA:                  -0.770
REMARK UNBOUND:                -0.960
REMARK  Name = 
REMARK  6 active torsions:
REMARK  status: ('A' for Active; 'I' for Inactive)
REMARK    1  A    between atoms: C_2  and  C_20
REMARK    2  A    between atoms: N_3  and  C_4
REMARK    3  A    between atoms: C_4  and  C_5
REMARK    4  A    between atoms: C_8  and  C_9
REMARK    5  A    between atoms: C_9  and  N_10
REMARK    6  A    between atoms: C_11  and  C_13
REMARK                            x       y       z     vdW  Elec       q    Type
REMARK                         _______ _______ _______ _____ _____    ______ ____
ROOT
ATOM      1  C   UNL     1      48.613   3.310  17.167  0.00  0.00    +0.000 A 
ATOM      2  C   UNL     1      49.257   2.081  16.964  0.00  0.00    +0.000 A 
ATOM      3  C   UNL     1      50.626   1.937  17.222  0.00  0.00    +0.000 A 
ATOM      4  C   UNL     1      51.378   3.013  17.712  0.00  0.00    +0.000 A 
ATOM      5  C   UNL     1      50.734   4.239  17.921  0.00  0.00    +0.000 A 
ATOM      6  C   UNL     1      49.365   4.383  17.663  0.00  0.00    +0.000 A 
ENDROOT
BRANCH   1   7
ATOM      7  C   UNL     1      47.136   3.465  16.898  0.00  0.00    +0.000 C 
BRANCH   7  10
ATOM      8  O   UNL     1      47.261   3.045  14.139  0.00  0.00    +0.000 OA
ATOM      9  C   UNL     1      46.904   4.146  14.548  0.00  0.00    +0.000 C 
ATOM     10  N   UNL     1      46.888   4.460  15.885  0.00  0.00    +0.000 N 
ATOM     11  H   UNL     1      46.405   5.297  16.189  0.00  0.00    +0.000 HD
BRANCH   9  12
ATOM     12  C   UNL     1      46.505   5.216  13.625  0.00  0.00    +0.000 A 
ATOM     13  C   UNL     1      47.395   6.233  13.305  0.00  0.00    +0.000 A 
ATOM     14  S   UNL     1      46.748   7.396  12.235  0.00  0.00    +0.000 S 
ATOM     15  C   UNL     1      45.274   6.554  12.124  0.00  0.00    +0.000 A 
ATOM     16  N   UNL     1      44.267   7.004  11.327  0.00  0.00    +0.000 NA
ATOM     17  C   UNL     1      43.220   6.248  11.310  0.00  0.00    +0.000 A 
ATOM     18  N   UNL     1      43.084   5.086  12.025  0.00  0.00    +0.000 N 
ATOM     19  C   UNL     1      44.059   4.612  12.866  0.00  0.00    +0.000 A 
ATOM     20  O   UNL     1      43.882   3.596  13.532  0.00  0.00    +0.000 OA
ATOM     21  C   UNL     1      45.267   5.415  12.909  0.00  0.00    +0.000 A 
ATOM     22  H   UNL     1      42.235   4.545  11.979  0.00  0.00    +0.000 HD
ENDBRANCH   9  12
ENDBRANCH   7  10
ENDBRANCH   1   7
BRANCH   4  23
ATOM     23  C   UNL     1      52.844   2.857  18.026  0.00  0.00    +0.000 C 
BRANCH  23  24
ATOM     24  N   UNL     1      53.167   1.560  18.566  0.00  0.00    +0.000 N 
ATOM     25  C   UNL     1      54.095   0.748  17.952  0.00  0.00    +0.000 C 
ATOM     26  O   UNL     1      54.717   1.083  16.946  0.00  0.00    +0.000 OA
ATOM     27  H   UNL     1      52.541   1.097  19.220  0.00  0.00    +0.000 HD
BRANCH  25  28
ATOM     28  C   UNL     1      54.330  -0.604  18.640  0.00  0.00    +0.000 C 
ATOM     29  C   UNL     1      54.976  -1.629  17.727  0.00  0.00    +0.000 C 
ATOM     30  C   UNL     1      54.691  -2.934  18.446  0.00  0.00    +0.000 C 
ATOM     31  C   UNL     1      53.376  -2.696  19.178  0.00  0.00    +0.000 C 
ATOM     32  N   UNL     1      53.062  -1.269  19.032  0.00  0.00    +0.000 NA
ATOM     33  H   UNL     1      52.747  -0.887  19.926  0.00  0.00    +0.000 HD
ENDBRANCH  25  28
ENDBRANCH  23  24
ENDBRANCH   4  23
TORSDOF 6
ENDMDL
MODEL 3
REMARK VINA RESULT:    -7.498      2.007      2.452
REMARK INTER + INTRA:         -11.088
REMARK INTER:                 -10.162
REMARK INTRA:                  -0.927
REMARK UNBOUND:                -0.960
REMARK  Name = 
REMARK  6 active torsions:
REMARK  status: ('A' for Active; 'I' for Inactive)
REMARK    1  A    between atoms: C_2  and  C_20
REMARK    2  A    between atoms: N_3  and  C_4
REMARK    3  A    between atoms: C_4  and  C_5
REMARK    4  A    between atoms: C_8  and  C_9
REMARK    5  A    between atoms: C_9  and  N_10
REMARK    6  A    between atoms: C_11  and  C_13
REMARK                            x       y       z     vdW  Elec       q    Type
REMARK                         _______ _______ _______ _____ _____    ______ ____
ROOT
ATOM      1  C   UNL     1      47.043   7.324  13.328  0.00  0.00    +0.000 A 
ATOM      2  C   UNL     1      46.025   8.120  12.784  0.00  0.00    +0.000 A 
ATOM      3  C   UNL     1      45.050   7.564  11.946  0.00  0.00    +0.000 A 
ATOM      4  C   UNL     1      45.058   6.193  11.651  0.00  0.00    +0.000 A 
ATOM      5  C   UNL     1      46.071   5.397  12.200  0.00  0.00    +0.000 A 
ATOM      6  C   UNL     1      47.046   5.954  13.038  0.00  0.00    +0.000 A 
ENDROOT
BRANCH   1   7
ATOM      7  C   UNL     1      48.089   7.920  14.239  0.00  0.00    +0.000 C 
BRANCH   7  10
ATOM      8  O   UNL     1      50.186   6.585  15.517  0.00  0.00    +0.000 OA
ATOM      9  C   UNL     1      49.137   6.756  16.133  0.00  0.00    +0.000 C 
ATOM     10  N   UNL     1      48.034   7.333  15.555  0.00  0.00    +0.000 N 
ATOM     11  H   UNL     1      47.268   7.633  16.146  0.00  0.00    +0.000 HD
BRANCH   9  12
ATOM     12  C   UNL     1      48.986   6.316  17.527  0.00  0.00    +0.000 A 
ATOM     13  C   UNL     1      49.446   5.067  17.921  0.00  0.00    +0.000 A 
ATOM     14  S   UNL     1      49.164   4.723  19.569  0.00  0.00    +0.000 S 
ATOM     15  C   UNL     1      48.462   6.251  19.824  0.00  0.00    +0.000 A 
ATOM     16  N   UNL     1      48.021   6.624  21.057  0.00  0.00    +0.000 NA
ATOM     17  C   UNL     1      47.545   7.824  21.114  0.00  0.00    +0.000 A 
ATOM     18  N   UNL     1      47.460   8.682  20.048  0.00  0.00    +0.000 N 
ATOM     19  C   UNL     1      47.860   8.337  18.782  0.00  0.00    +0.000 A 
ATOM     20  O   UNL     1      47.720   9.112  17.840  0.00  0.00    +0.000 OA
ATOM     21  C   UNL     1      48.422   7.004  18.665  0.00  0.00    +0.000 A 
ATOM     22  H   UNL     1      47.066   9.603  20.155  0.00  0.00    +0.000 HD
ENDBRANCH   9  12
ENDBRANCH   7  10
ENDBRANCH   1   7
BRANCH   4  23
ATOM     23  C   UNL     1      43.993   5.579  10.779  0.00  0.00    +0.000 C 
BRANCH  23  24
ATOM     24  N   UNL     1      44.532   4.920   9.617  0.00  0.00    +0.000 N 
ATOM     25  C   UNL     1      44.426   3.555   9.464  0.00  0.00    +0.000 C 
ATOM     26  O   UNL     1      43.849   2.833  10.275  0.00  0.00    +0.000 OA
ATOM     27  H   UNL     1      45.233   5.374   9.038  0.00  0.00    +0.000 HD
BRANCH  25  28
ATOM     28  C   UNL     1      45.051   2.995   8.178  0.00  0.00    +0.000 C 
ATOM     29  C   UNL     1      45.979   1.823   8.432  0.00  0.00    +0.000 C 
ATOM     30  C   UNL     1      46.782   1.755   7.146  0.00  0.00    +0.000 C 
ATOM     31  C   UNL     1      46.837   3.194   6.647  0.00  0.00    +0.000 C 
ATOM     32  N   UNL     1      45.939   3.976   7.506  0.00  0.00    +0.000 NA
ATOM     33  H   UNL     1      45.372   4.607   6.937  0.00  0.00    +0.000 HD
ENDBRANCH  25  28
ENDBRANCH  23  24
ENDBRANCH   4  23
TORSDOF 6
ENDMDL
MODEL 4
REMARK VINA RESULT:    -7.412      2.147      3.390
REMARK INTER + INTRA:         -10.972
REMARK INTER:                 -10.090
REMARK INTRA:                  -0.883
REMARK UNBOUND:                -0.960
REMARK  Name = 
REMARK  6 active torsions:
REMARK  status: ('A' for Active; 'I' for Inactive)
REMARK    1  A    between atoms: C_2  and  C_20
REMARK    2  A    between atoms: N_3  and  C_4
REMARK    3  A    between atoms: C_4  and  C_5
REMARK    4  A    between atoms: C_8  and  C_9
REMARK    5  A    between atoms: C_9  and  N_10
REMARK    6  A    between atoms: C_11  and  C_13
REMARK                            x       y       z     vdW  Elec       q    Type
REMARK                         _______ _______ _______ _____ _____    ______ ____
ROOT
ATOM      1  C   UNL     1      46.888   4.697  14.123  0.00  0.00    +0.000 A 
ATOM      2  C   UNL     1      45.810   4.005  13.552  0.00  0.00    +0.000 A 
ATOM      3  C   UNL     1      45.259   4.416  12.332  0.00  0.00    +0.000 A 
ATOM      4  C   UNL     1      45.788   5.516  11.642  0.00  0.00    +0.000 A 
ATOM      5  C   UNL     1      46.869   6.203  12.210  0.00  0.00    +0.000 A 
ATOM      6  C   UNL     1      47.420   5.792  13.430  0.00  0.00    +0.000 A 
ENDROOT
BRANCH   1   7
ATOM      7  C   UNL     1      47.490   4.249  15.433  0.00  0.00    +0.000 C 
BRANCH   7  10
ATOM      8  O   UNL     1      49.697   5.023  16.962  0.00  0.00    +0.000 OA
ATOM      9  C   UNL     1      48.663   5.679  17.051  0.00  0.00    +0.000 C 
ATOM     10  N   UNL     1      47.511   5.323  16.394  0.00  0.00    +0.000 N 
ATOM     11  H   UNL     1      46.751   5.991  16.336  0.00  0.00    +0.000 HD
BRANCH   9  12
ATOM     12  C   UNL     1      48.584   6.874  17.902  0.00  0.00    +0.000 A 
ATOM     13  C   UNL     1      48.666   6.757  19.283  0.00  0.00    +0.000 A 
ATOM     14  S   UNL     1      48.534   8.247  20.105  0.00  0.00    +0.000 S 
ATOM     15  C   UNL     1      48.411   9.105  18.642  0.00  0.00    +0.000 A 
ATOM     16  N   UNL     1      48.301  10.462  18.631  0.00  0.00    +0.000 NA
ATOM     17  C   UNL     1      48.253  10.985  17.451  0.00  0.00    +0.000 A 
ATOM     18  N   UNL     1      48.296  10.275  16.279  0.00  0.00    +0.000 N 
ATOM     19  C   UNL     1      48.371   8.905  16.242  0.00  0.00    +0.000 A 
ATOM     20  O   UNL     1      48.354   8.298  15.175  0.00  0.00    +0.000 OA
ATOM     21  C   UNL     1      48.448   8.266  17.543  0.00  0.00    +0.000 A 
ATOM     22  H   UNL     1      48.242  10.741  15.387  0.00  0.00    +0.000 HD
ENDBRANCH   9  12
ENDBRANCH   7  10
ENDBRANCH   1   7
BRANCH   4  23
ATOM     23  C   UNL     1      45.225   5.944  10.311  0.00  0.00    +0.000 C 
BRANCH  23  24
ATOM     24  N   UNL     1      45.713   5.148   9.214  0.00  0.00    +0.000 N 
ATOM     25  C   UNL     1      45.027   4.032   8.787  0.00  0.00    +0.000 C 
ATOM     26  O   UNL     1      43.961   3.672   9.283  0.00  0.00    +0.000 OA
ATOM     27  H   UNL     1      46.685   5.207   8.919  0.00  0.00    +0.000 HD
BRANCH  25  28
ATOM     28  C   UNL     1      45.672   3.284   7.612  0.00  0.00    +0.000 C 
ATOM     29  C   UNL     1      46.226   1.929   8.005  0.00  0.00    +0.000 C 
ATOM     30  C   UNL     1      47.164   1.612   6.855  0.00  0.00    +0.000 C 
ATOM     31  C   UNL     1      47.653   2.971   6.368  0.00  0.00    +0.000 C 
ATOM     32  N   UNL     1      46.867   3.985   7.080  0.00  0.00    +0.000 NA
ATOM     33  H   UNL     1      46.566   4.714   6.431  0.00  0.00    +0.000 HD
ENDBRANCH  25  28
ENDBRANCH  23  24
ENDBRANCH   4  23
TORSDOF 6
ENDMDL
MODEL 5
REMARK VINA RESULT:    -6.972      3.774      8.709
REMARK INTER + INTRA:         -10.378
REMARK INTER:                  -9.378
REMARK INTRA:                  -0.999
REMARK UNBOUND:                -0.960
REMARK  Name = 
REMARK  6 active torsions:
REMARK  status: ('A' for Active; 'I' for Inactive)
REMARK    1  A    between atoms: C_2  and  C_20
REMARK    2  A    between atoms: N_3  and  C_4
REMARK    3  A    between atoms: C_4  and  C_5
REMARK    4  A    between atoms: C_8  and  C_9
REMARK    5  A    between atoms: C_9  and  N_10
REMARK    6  A    between atoms: C_11  and  C_13
REMARK                            x       y       z     vdW  Elec       q    Type
REMARK                         _______ _______ _______ _____ _____    ______ ____
ROOT
ATOM      1  C   UNL     1      48.672   6.312  15.556  0.00  0.00    +0.000 A 
ATOM      2  C   UNL     1      49.913   6.416  16.201  0.00  0.00    +0.000 A 
ATOM      3  C   UNL     1      50.298   5.481  17.170  0.00  0.00    +0.000 A 
ATOM      4  C   UNL     1      49.461   4.407  17.500  0.00  0.00    +0.000 A 
ATOM      5  C   UNL     1      48.224   4.299  16.851  0.00  0.00    +0.000 A 
ATOM      6  C   UNL     1      47.839   5.234  15.882  0.00  0.00    +0.000 A 
ENDROOT
BRANCH   1   7
ATOM      7  C   UNL     1      48.259   7.313  14.504  0.00  0.00    +0.000 C 
BRANCH   7  10
ATOM      8  O   UNL     1      47.740   7.130  11.764  0.00  0.00    +0.000 OA
ATOM      9  C   UNL     1      46.849   6.825  12.551  0.00  0.00    +0.000 C 
ATOM     10  N   UNL     1      46.995   6.958  13.910  0.00  0.00    +0.000 N 
ATOM     11  H   UNL     1      46.322   6.514  14.524  0.00  0.00    +0.000 HD
BRANCH   9  12
ATOM     12  C   UNL     1      45.548   6.329  12.083  0.00  0.00    +0.000 A 
ATOM     13  C   UNL     1      44.649   7.192  11.471  0.00  0.00    +0.000 A 
ATOM     14  S   UNL     1      43.185   6.442  11.013  0.00  0.00    +0.000 S 
ATOM     15  C   UNL     1      43.723   4.929  11.572  0.00  0.00    +0.000 A 
ATOM     16  N   UNL     1      42.943   3.819  11.452  0.00  0.00    +0.000 NA
ATOM     17  C   UNL     1      43.491   2.732  11.884  0.00  0.00    +0.000 A 
ATOM     18  N   UNL     1      44.743   2.654  12.436  0.00  0.00    +0.000 N 
ATOM     19  C   UNL     1      45.549   3.750  12.608  0.00  0.00    +0.000 A 
ATOM     20  O   UNL     1      46.644   3.653  13.154  0.00  0.00    +0.000 OA
ATOM     21  C   UNL     1      44.990   4.997  12.121  0.00  0.00    +0.000 A 
ATOM     22  H   UNL     1      45.110   1.775  12.766  0.00  0.00    +0.000 HD
ENDBRANCH   9  12
ENDBRANCH   7  10
ENDBRANCH   1   7
BRANCH   4  23
ATOM     23  C   UNL     1      49.882   3.376  18.516  0.00  0.00    +0.000 C 
BRANCH  23  24
ATOM     24  N   UNL     1      51.288   3.067  18.452  0.00  0.00    +0.000 N 
ATOM     25  C   UNL     1      51.749   2.018  17.687  0.00  0.00    +0.000 C 
ATOM     26  O   UNL     1      51.010   1.315  17.000  0.00  0.00    +0.000 OA
ATOM     27  H   UNL     1      51.930   3.409  19.163  0.00  0.00    +0.000 HD
BRANCH  25  28
ATOM     28  C   UNL     1      53.269   1.810  17.720  0.00  0.00    +0.000 C 
ATOM     29  C   UNL     1      53.688   0.427  17.260  0.00  0.00    +0.000 C 
ATOM     30  C   UNL     1      55.103   0.317  17.796  0.00  0.00    +0.000 C 
ATOM     31  C   UNL     1      55.108   1.173  19.057  0.00  0.00    +0.000 C 
ATOM     32  N   UNL     1      53.821   1.878  19.096  0.00  0.00    +0.000 NA
ATOM     33  H   UNL     1      53.965   2.857  19.351  0.00  0.00    +0.000 HD
ENDBRANCH  25  28
ENDBRANCH  23  24
ENDBRANCH   4  23
TORSDOF 6
ENDMDL
MODEL 6
REMARK VINA RESULT:    -6.761      3.686      5.097
REMARK INTER + INTRA:         -10.092
REMARK INTER:                  -8.968
REMARK INTRA:                  -1.124
REMARK UNBOUND:                -0.960
REMARK  Name = 
REMARK  6 active torsions:
REMARK  status: ('A' for Active; 'I' for Inactive)
REMARK    1  A    between atoms: C_2  and  C_20
REMARK    2  A    between atoms: N_3  and  C_4
REMARK    3  A    between atoms: C_4  and  C_5
REMARK    4  A    between atoms: C_8  and  C_9
REMARK    5  A    between atoms: C_9  and  N_10
REMARK    6  A    between atoms: C_11  and  C_13
REMARK                            x       y       z     vdW  Elec       q    Type
REMARK                         _______ _______ _______ _____ _____    ______ ____
ROOT
ATOM      1  C   UNL     1      47.987   6.934  13.838  0.00  0.00    +0.000 A 
ATOM      2  C   UNL     1      47.383   7.943  13.074  0.00  0.00    +0.000 A 
ATOM      3  C   UNL     1      46.295   7.656  12.239  0.00  0.00    +0.000 A 
ATOM      4  C   UNL     1      45.771   6.358  12.167  0.00  0.00    +0.000 A 
ATOM      5  C   UNL     1      46.370   5.352  12.936  0.00  0.00    +0.000 A 
ATOM      6  C   UNL     1      47.458   5.639  13.771  0.00  0.00    +0.000 A 
ENDROOT
BRANCH   1   7
ATOM      7  C   UNL     1      49.153   7.243  14.746  0.00  0.00    +0.000 C 
BRANCH   7  10
ATOM      8  O   UNL     1      50.449   9.679  14.303  0.00  0.00    +0.000 OA
ATOM      9  C   UNL     1      50.975   8.651  13.886  0.00  0.00    +0.000 C 
ATOM     10  N   UNL     1      50.369   7.423  13.994  0.00  0.00    +0.000 N 
ATOM     11  H   UNL     1      50.916   6.587  13.821  0.00  0.00    +0.000 HD
BRANCH   9  12
ATOM     12  C   UNL     1      52.278   8.675  13.208  0.00  0.00    +0.000 A 
ATOM     13  C   UNL     1      53.415   9.085  13.891  0.00  0.00    +0.000 A 
ATOM     14  S   UNL     1      54.829   9.068  12.936  0.00  0.00    +0.000 S 
ATOM     15  C   UNL     1      53.980   8.465  11.592  0.00  0.00    +0.000 A 
ATOM     16  N   UNL     1      54.620   8.190  10.422  0.00  0.00    +0.000 NA
ATOM     17  C   UNL     1      53.860   7.704   9.498  0.00  0.00    +0.000 A 
ATOM     18  N   UNL     1      52.515   7.475   9.632  0.00  0.00    +0.000 N 
ATOM     19  C   UNL     1      51.822   7.769  10.780  0.00  0.00    +0.000 A 
ATOM     20  O   UNL     1      50.608   7.601  10.847  0.00  0.00    +0.000 OA
ATOM     21  C   UNL     1      52.633   8.301  11.859  0.00  0.00    +0.000 A 
ATOM     22  H   UNL     1      51.973   7.104   8.868  0.00  0.00    +0.000 HD
ENDBRANCH   9  12
ENDBRANCH   7  10
ENDBRANCH   1   7
BRANCH   4  23
ATOM     23  C   UNL     1      44.579   6.048  11.299  0.00  0.00    +0.000 C 
BRANCH  23  24
ATOM     24  N   UNL     1      44.935   5.355  10.086  0.00  0.00    +0.000 N 
ATOM     25  C   UNL     1      44.416   4.111   9.802  0.00  0.00    +0.000 C 
ATOM     26  O   UNL     1      43.609   3.539  10.533  0.00  0.00    +0.000 OA
ATOM     27  H   UNL     1      45.767   5.615   9.562  0.00  0.00    +0.000 HD
BRANCH  25  28
ATOM     28  C   UNL     1      44.889   3.497   8.477  0.00  0.00    +0.000 C 
ATOM     29  C   UNL     1      45.674   2.213   8.666  0.00  0.00    +0.000 C 
ATOM     30  C   UNL     1      46.385   2.064   7.334  0.00  0.00    +0.000 C 
ATOM     31  C   UNL     1      46.594   3.492   6.845  0.00  0.00    +0.000 C 
ATOM     32  N   UNL     1      45.854   4.368   7.761  0.00  0.00    +0.000 NA
ATOM     33  H   UNL     1      45.339   5.074   7.233  0.00  0.00    +0.000 HD
ENDBRANCH  25  28
ENDBRANCH  23  24
ENDBRANCH   4  23
TORSDOF 6
ENDMDL
MODEL 7
REMARK VINA RESULT:    -6.706      1.658      2.391
REMARK INTER + INTRA:         -10.018
REMARK INTER:                  -9.043
REMARK INTRA:                  -0.975
REMARK UNBOUND:                -0.960
REMARK  Name = 
REMARK  6 active torsions:
REMARK  status: ('A' for Active; 'I' for Inactive)
REMARK    1  A    between atoms: C_2  and  C_20
REMARK    2  A    between atoms: N_3  and  C_4
REMARK    3  A    between atoms: C_4  and  C_5
REMARK    4  A    between atoms: C_8  and  C_9
REMARK    5  A    between atoms: C_9  and  N_10
REMARK    6  A    between atoms: C_11  and  C_13
REMARK                            x       y       z     vdW  Elec       q    Type
REMARK                         _______ _______ _______ _____ _____    ______ ____
ROOT
ATOM      1  C   UNL     1      48.638   7.741  13.500  0.00  0.00    +0.000 A 
ATOM      2  C   UNL     1      47.551   8.525  13.913  0.00  0.00    +0.000 A 
ATOM      3  C   UNL     1      46.322   8.456  13.245  0.00  0.00    +0.000 A 
ATOM      4  C   UNL     1      46.144   7.584  12.163  0.00  0.00    +0.000 A 
ATOM      5  C   UNL     1      47.228   6.796  11.754  0.00  0.00    +0.000 A 
ATOM      6  C   UNL     1      48.457   6.865  12.422  0.00  0.00    +0.000 A 
ENDROOT
BRANCH   1   7
ATOM      7  C   UNL     1      49.961   7.807  14.225  0.00  0.00    +0.000 C 
BRANCH   7  10
ATOM      8  O   UNL     1      52.016   6.802  15.829  0.00  0.00    +0.000 OA
ATOM      9  C   UNL     1      50.910   6.973  16.333  0.00  0.00    +0.000 C 
ATOM     10  N   UNL     1      49.828   7.390  15.598  0.00  0.00    +0.000 N 
ATOM     11  H   UNL     1      48.996   7.707  16.083  0.00  0.00    +0.000 HD
BRANCH   9  12
ATOM     12  C   UNL     1      50.665   6.705  17.756  0.00  0.00    +0.000 A 
ATOM     13  C   UNL     1      51.236   7.514  18.730  0.00  0.00    +0.000 A 
ATOM     14  S   UNL     1      50.856   7.037  20.324  0.00  0.00    +0.000 S 
ATOM     15  C   UNL     1      49.876   5.763  19.767  0.00  0.00    +0.000 A 
ATOM     16  N   UNL     1      49.210   4.957  20.640  0.00  0.00    +0.000 NA
ATOM     17  C   UNL     1      48.475   4.055  20.079  0.00  0.00    +0.000 A 
ATOM     18  N   UNL     1      48.351   3.878  18.725  0.00  0.00    +0.000 N 
ATOM     19  C   UNL     1      49.029   4.644  17.811  0.00  0.00    +0.000 A 
ATOM     20  O   UNL     1      48.935   4.424  16.606  0.00  0.00    +0.000 OA
ATOM     21  C   UNL     1      49.856   5.688  18.387  0.00  0.00    +0.000 A 
ATOM     22  H   UNL     1      47.769   3.147  18.349  0.00  0.00    +0.000 HD
ENDBRANCH   9  12
ENDBRANCH   7  10
ENDBRANCH   1   7
BRANCH   4  23
ATOM     23  C   UNL     1      44.815   7.477  11.460  0.00  0.00    +0.000 C 
BRANCH  23  24
ATOM     24  N   UNL     1      44.698   6.284  10.661  0.00  0.00    +0.000 N 
ATOM     25  C   UNL     1      43.824   5.279  11.011  0.00  0.00    +0.000 C 
ATOM     26  O   UNL     1      43.080   5.349  11.988  0.00  0.00    +0.000 OA
ATOM     27  H   UNL     1      45.430   6.021  10.006  0.00  0.00    +0.000 HD
BRANCH  25  28
ATOM     28  C   UNL     1      43.813   4.069  10.067  0.00  0.00    +0.000 C 
ATOM     29  C   UNL     1      44.833   3.013  10.445  0.00  0.00    +0.000 C 
ATOM     30  C   UNL     1      44.943   2.192   9.173  0.00  0.00    +0.000 C 
ATOM     31  C   UNL     1      44.655   3.180   8.049  0.00  0.00    +0.000 C 
ATOM     32  N   UNL     1      44.210   4.427   8.682  0.00  0.00    +0.000 NA
ATOM     33  H   UNL     1      43.398   4.801   8.188  0.00  0.00    +0.000 HD
ENDBRANCH  25  28
ENDBRANCH  23  24
ENDBRANCH   4  23
TORSDOF 6
ENDMDL
MODEL 8
REMARK VINA RESULT:    -6.188      6.043      8.464
REMARK INTER + INTRA:          -9.319
REMARK INTER:                  -8.310
REMARK INTRA:                  -1.009
REMARK UNBOUND:                -0.960
REMARK  Name = 
REMARK  6 active torsions:
REMARK  status: ('A' for Active; 'I' for Inactive)
REMARK    1  A    between atoms: C_2  and  C_20
REMARK    2  A    between atoms: N_3  and  C_4
REMARK    3  A    between atoms: C_4  and  C_5
REMARK    4  A    between atoms: C_8  and  C_9
REMARK    5  A    between atoms: C_9  and  N_10
REMARK    6  A    between atoms: C_11  and  C_13
REMARK                            x       y       z     vdW  Elec       q    Type
REMARK                         _______ _______ _______ _____ _____    ______ ____
ROOT
ATOM      1  C   UNL     1      51.465   2.960  17.773  0.00  0.00    +0.000 A 
ATOM      2  C   UNL     1      50.637   1.917  17.335  0.00  0.00    +0.000 A 
ATOM      3  C   UNL     1      49.297   2.155  17.005  0.00  0.00    +0.000 A 
ATOM      4  C   UNL     1      48.760   3.448  17.084  0.00  0.00    +0.000 A 
ATOM      5  C   UNL     1      49.589   4.491  17.515  0.00  0.00    +0.000 A 
ATOM      6  C   UNL     1      50.929   4.252  17.845  0.00  0.00    +0.000 A 
ENDROOT
BRANCH   1   7
ATOM      7  C   UNL     1      52.913   2.707  18.120  0.00  0.00    +0.000 C 
BRANCH   7  10
ATOM      8  O   UNL     1      54.985   1.314  19.374  0.00  0.00    +0.000 OA
ATOM      9  C   UNL     1      54.272   0.711  18.578  0.00  0.00    +0.000 C 
ATOM     10  N   UNL     1      53.282   1.337  17.862  0.00  0.00    +0.000 N 
ATOM     11  H   UNL     1      52.596   0.774  17.373  0.00  0.00    +0.000 HD
BRANCH   9  12
ATOM     12  C   UNL     1      54.459  -0.722  18.312  0.00  0.00    +0.000 A 
ATOM     13  C   UNL     1      54.107  -1.663  19.270  0.00  0.00    +0.000 A 
ATOM     14  S   UNL     1      54.416  -3.273  18.792  0.00  0.00    +0.000 S 
ATOM     15  C   UNL     1      54.984  -2.769  17.270  0.00  0.00    +0.000 A 
ATOM     16  N   UNL     1      55.390  -3.675  16.338  0.00  0.00    +0.000 NA
ATOM     17  C   UNL     1      55.762  -3.156  15.215  0.00  0.00    +0.000 A 
ATOM     18  N   UNL     1      55.775  -1.812  14.941  0.00  0.00    +0.000 N 
ATOM     19  C   UNL     1      55.407  -0.863  15.861  0.00  0.00    +0.000 A 
ATOM     20  O   UNL     1      55.481   0.334  15.600  0.00  0.00    +0.000 OA
ATOM     21  C   UNL     1      54.961  -1.393  17.136  0.00  0.00    +0.000 A 
ATOM     22  H   UNL     1      56.089  -1.468  14.048  0.00  0.00    +0.000 HD
ENDBRANCH   9  12
ENDBRANCH   7  10
ENDBRANCH   1   7
BRANCH   4  23
ATOM     23  C   UNL     1      47.329   3.720  16.698  0.00  0.00    +0.000 C 
BRANCH  23  24
ATOM     24  N   UNL     1      47.205   4.747  15.693  0.00  0.00    +0.000 N 
ATOM     25  C   UNL     1      47.135   4.424  14.356  0.00  0.00    +0.000 C 
ATOM     26  O   UNL     1      47.140   3.265  13.945  0.00  0.00    +0.000 OA
ATOM     27  H   UNL     1      47.449   5.712  15.901  0.00  0.00    +0.000 HD
BRANCH  25  28
ATOM     28  C   UNL     1      47.010   5.623  13.405  0.00  0.00    +0.000 C 
ATOM     29  C   UNL     1      47.742   6.854  13.904  0.00  0.00    +0.000 C 
ATOM     30  C   UNL     1      47.117   7.964  13.079  0.00  0.00    +0.000 C 
ATOM     31  C   UNL     1      45.695   7.489  12.804  0.00  0.00    +0.000 C 
ATOM     32  N   UNL     1      45.611   6.103  13.278  0.00  0.00    +0.000 NA
ATOM     33  H   UNL     1      45.121   5.526  12.592  0.00  0.00    +0.000 HD
ENDBRANCH  25  28
ENDBRANCH  23  24
ENDBRANCH   4  23
TORSDOF 6
ENDMDL
MODEL 9
REMARK VINA RESULT:    -6.101      5.537      7.602
REMARK INTER + INTRA:          -9.200
REMARK INTER:                  -8.257
REMARK INTRA:                  -0.943
REMARK UNBOUND:                -0.960
REMARK  Name = 
REMARK  6 active torsions:
REMARK  status: ('A' for Active; 'I' for Inactive)
REMARK    1  A    between atoms: C_2  and  C_20
REMARK    2  A    between atoms: N_3  and  C_4
REMARK    3  A    between atoms: C_4  and  C_5
REMARK    4  A    between atoms: C_8  and  C_9
REMARK    5  A    between atoms: C_9  and  N_10
REMARK    6  A    between atoms: C_11  and  C_13
REMARK                            x       y       z     vdW  Elec       q    Type
REMARK                         _______ _______ _______ _____ _____    ______ ____
ROOT
ATOM      1  C   UNL     1      49.545   9.092  11.665  0.00  0.00    +0.000 A 
ATOM      2  C   UNL     1      49.246   7.724  11.732  0.00  0.00    +0.000 A 
ATOM      3  C   UNL     1      47.935   7.285  11.954  0.00  0.00    +0.000 A 
ATOM      4  C   UNL     1      46.887   8.205  12.092  0.00  0.00    +0.000 A 
ATOM      5  C   UNL     1      47.184   9.572  12.019  0.00  0.00    +0.000 A 
ATOM      6  C   UNL     1      48.495  10.011  11.796  0.00  0.00    +0.000 A 
ENDROOT
BRANCH   1   7
ATOM      7  C   UNL     1      50.956   9.567  11.415  0.00  0.00    +0.000 C 
BRANCH   7  10
ATOM      8  O   UNL     1      53.394   8.202  11.419  0.00  0.00    +0.000 OA
ATOM      9  C   UNL     1      52.716   8.186  10.396  0.00  0.00    +0.000 C 
ATOM     10  N   UNL     1      51.543   8.892  10.285  0.00  0.00    +0.000 N 
ATOM     11  H   UNL     1      50.922   8.696   9.509  0.00  0.00    +0.000 HD
BRANCH   9  12
ATOM     12  C   UNL     1      53.137   7.434   9.207  0.00  0.00    +0.000 A 
ATOM     13  C   UNL     1      53.437   6.081   9.304  0.00  0.00    +0.000 A 
ATOM     14  S   UNL     1      53.927   5.383   7.826  0.00  0.00    +0.000 S 
ATOM     15  C   UNL     1      53.709   6.851   6.996  0.00  0.00    +0.000 A 
ATOM     16  N   UNL     1      53.931   6.940   5.656  0.00  0.00    +0.000 NA
ATOM     17  C   UNL     1      53.691   8.104   5.150  0.00  0.00    +0.000 A 
ATOM     18  N   UNL     1      53.258   9.192   5.864  0.00  0.00    +0.000 N 
ATOM     19  C   UNL     1      53.053   9.158   7.220  0.00  0.00    +0.000 A 
ATOM     20  O   UNL     1      52.716  10.164   7.836  0.00  0.00    +0.000 OA
ATOM     21  C   UNL     1      53.290   7.866   7.837  0.00  0.00    +0.000 A 
ATOM     22  H   UNL     1      53.099  10.079   5.413  0.00  0.00    +0.000 HD
ENDBRANCH   9  12
ENDBRANCH   7  10
ENDBRANCH   1   7
BRANCH   4  23
ATOM     23  C   UNL     1      45.467   7.742  12.297  0.00  0.00    +0.000 C 
BRANCH  23  24
ATOM     24  N   UNL     1      45.016   6.844  11.264  0.00  0.00    +0.000 N 
ATOM     25  C   UNL     1      44.880   5.495  11.507  0.00  0.00    +0.000 C 
ATOM     26  O   UNL     1      45.098   4.988  12.606  0.00  0.00    +0.000 OA
ATOM     27  H   UNL     1      45.062   7.112  10.284  0.00  0.00    +0.000 HD
BRANCH  25  28
ATOM     28  C   UNL     1      44.395   4.665  10.311  0.00  0.00    +0.000 C 
ATOM     29  C   UNL     1      44.630   3.177  10.487  0.00  0.00    +0.000 C 
ATOM     30  C   UNL     1      44.505   2.655   9.068  0.00  0.00    +0.000 C 
ATOM     31  C   UNL     1      44.971   3.808   8.188  0.00  0.00    +0.000 C 
ATOM     32  N   UNL     1      45.146   4.970   9.068  0.00  0.00    +0.000 NA
ATOM     33  H   UNL     1      44.748   5.803   8.632  0.00  0.00    +0.000 HD
ENDBRANCH  25  28
ENDBRANCH  23  24
ENDBRANCH   4  23
TORSDOF 6
ENDMDL
