MODEL 1
REMARK VINA RESULT:    -8.274      0.000      0.000
REMARK INTER + INTRA:         -13.775
REMARK INTER:                 -12.869
REMARK INTRA:                  -0.906
REMARK UNBOUND:                -0.906
REMARK  Name = 
REMARK  10 active torsions:
REMARK  status: ('A' for Active; 'I' for Inactive)
REMARK    1  A    between atoms: N_1  and  C_2
REMARK    2  A    between atoms: C_2  and  C_3
REMARK    3  A    between atoms: C_3  and  N_4
REMARK    4  A    between atoms: C_3  and  C_20
REMARK    5  A    between atoms: N_4  and  C_5
REMARK    6  A    between atoms: C_5  and  C_6
REMARK    7  A    between atoms: C_9  and  C_10
REMARK    8  A    between atoms: C_10  and  N_11
REMARK    9  A    between atoms: N_11  and  C_12
REMARK   10  A    between atoms: C_12  and  C_13
REMARK                            x       y       z     vdW  Elec       q    Type
REMARK                         _______ _______ _______ _____ _____    ______ ____
ROOT
ATOM      1  N   UNL     1      48.228   4.612  15.634  0.00  0.00    +0.000 NA
ATOM      2  H   UNL     1      49.145   4.267  15.350  0.00  0.00    +0.000 HD
ENDROOT
BRANCH   1   3
ATOM      3  C   UNL     1      48.319   5.123  17.016  0.00  0.00    +0.000 C 
BRANCH   3   4
ATOM      4  C   UNL     1      49.752   4.882  17.484  0.00  0.00    +0.000 A 
ATOM      5  C   UNL     1      50.585   5.847  18.039  0.00  0.00    +0.000 A 
ATOM      6  S   UNL     1      52.123   5.253  18.474  0.00  0.00    +0.000 S 
ATOM      7  C   UNL     1      51.730   3.684  17.949  0.00  0.00    +0.000 A 
ATOM      8  N   UNL     1      52.622   2.659  18.067  0.00  0.00    +0.000 NA
ATOM      9  C   UNL     1      52.178   1.524  17.648  0.00  0.00    +0.000 A 
ATOM     10  N   UNL     1      50.931   1.315  17.110  0.00  0.00    +0.000 N 
ATOM     11  C   UNL     1      50.013   2.326  16.932  0.00  0.00    +0.000 A 
ATOM     12  O   UNL     1      48.917   2.114  16.411  0.00  0.00    +0.000 OA
ATOM     13  C   UNL     1      50.451   3.618  17.430  0.00  0.00    +0.000 A 
ATOM     14  H   UNL     1      50.653   0.399  16.793  0.00  0.00    +0.000 HD
ENDBRANCH   3   4
BRANCH   3  15
ATOM     15  C   UNL     1      47.274   4.442  17.959  0.00  0.00    +0.000 C 
BRANCH  15  16
ATOM     16  N   UNL     1      46.544   3.306  17.389  0.00  0.00    +0.000 NA
ATOM     17  H   UNL     1      46.133   3.592  16.501  0.00  0.00    +0.000 HD
ATOM     18  H   UNL     1      45.768   3.059  18.008  0.00  0.00    +0.000 HD
ENDBRANCH  15  16
ENDBRANCH   3  15
ENDBRANCH   1   3
BRANCH   1  19
ATOM     19  C   UNL     1      47.775   5.600  14.662  0.00  0.00    +0.000 C 
BRANCH  19  20
ATOM     20  C   UNL     1      46.688   5.029  13.799  0.00  0.00    +0.000 A 
ATOM     21  C   UNL     1      45.841   5.864  13.064  0.00  0.00    +0.000 A 
ATOM     22  C   UNL     1      44.875   5.311  12.235  0.00  0.00    +0.000 A 
ATOM     23  C   UNL     1      44.791   3.927  12.151  0.00  0.00    +0.000 A 
ATOM     24  N   UNL     1      45.618   3.093  12.842  0.00  0.00    +0.000 NA
ATOM     25  C   UNL     1      46.527   3.659  13.659  0.00  0.00    +0.000 A 
BRANCH  23  26
ATOM     26  C   UNL     1      43.758   3.292  11.243  0.00  0.00    +0.000 C 
BRANCH  26  27
ATOM     27  N   UNL     1      44.336   2.439  10.198  0.00  0.00    +0.000 NA
ATOM     28  H   UNL     1      43.620   1.745   9.973  0.00  0.00    +0.000 HD
BRANCH  27  29
ATOM     29  C   UNL     1      44.614   3.202   8.969  0.00  0.00    +0.000 C 
BRANCH  29  30
ATOM     30  C   UNL     1      45.967   2.769   8.387  0.00  0.00    +0.000 C 
ATOM     31  C   UNL     1      46.132   3.187   6.937  0.00  0.00    +0.000 C 
ATOM     32  C   UNL     1      47.267   2.302   6.467  0.00  0.00    +0.000 C 
ATOM     33  C   UNL     1      47.124   1.029   7.294  0.00  0.00    +0.000 C 
ATOM     34  N   UNL     1      46.130   1.308   8.333  0.00  0.00    +0.000 NA
ATOM     35  H   UNL     1      46.435   0.953   9.238  0.00  0.00    +0.000 HD
ENDBRANCH  29  30
ENDBRANCH  27  29
ENDBRANCH  26  27
ENDBRANCH  23  26
ENDBRANCH  19  20
ENDBRANCH   1  19
TORSDOF 10
ENDMDL
MODEL 2
REMARK VINA RESULT:    -7.134      1.830      2.424
REMARK INTER + INTRA:         -12.001
REMARK INTER:                 -11.148
REMARK INTRA:                  -0.853
REMARK UNBOUND:                -0.906
REMARK  Name = 
REMARK  10 active torsions:
REMARK  status: ('A' for Active; 'I' for Inactive)
REMARK    1  A    between atoms: N_1  and  C_2
REMARK    2  A    between atoms: C_2  and  C_3
REMARK    3  A    between atoms: C_3  and  N_4
REMARK    4  A    between atoms: C_3  and  C_20
REMARK    5  A    between atoms: N_4  and  C_5
REMARK    6  A    between atoms: C_5  and  C_6
REMARK    7  A    between atoms: C_9  and  C_10
REMARK    8  A    between atoms: C_10  and  N_11
REMARK    9  A    between atoms: N_11  and  C_12
REMARK   10  A    between atoms: C_12  and  C_13
REMARK                            x       y       z     vdW  Elec       q    Type
REMARK                         _______ _______ _______ _____ _____    ______ ____
ROOT
ATOM      1  N   UNL     1      47.905   4.624  15.424  0.00  0.00    +0.000 NA
ATOM      2  H   UNL     1      48.710   4.103  15.077  0.00  0.00    +0.000 HD
ENDROOT
BRANCH   1   3
ATOM      3  C   UNL     1      48.166   5.028  16.820  0.00  0.00    +0.000 C 
BRANCH   3   4
ATOM      4  C   UNL     1      49.591   4.591  17.149  0.00  0.00    +0.000 A 
ATOM      5  C   UNL     1      49.965   3.312  17.546  0.00  0.00    +0.000 A 
ATOM      6  S   UNL     1      51.639   3.145  17.823  0.00  0.00    +0.000 S 
ATOM      7  C   UNL     1      51.929   4.770  17.412  0.00  0.00    +0.000 A 
ATOM      8  N   UNL     1      53.193   5.281  17.416  0.00  0.00    +0.000 NA
ATOM      9  C   UNL     1      53.262   6.519  17.062  0.00  0.00    +0.000 A 
ATOM     10  N   UNL     1      52.186   7.300  16.716  0.00  0.00    +0.000 N 
ATOM     11  C   UNL     1      50.888   6.841  16.738  0.00  0.00    +0.000 A 
ATOM     12  O   UNL     1      49.941   7.577  16.458  0.00  0.00    +0.000 OA
ATOM     13  C   UNL     1      50.762   5.436  17.088  0.00  0.00    +0.000 A 
ATOM     14  H   UNL     1      52.312   8.266  16.457  0.00  0.00    +0.000 HD
ENDBRANCH   3   4
BRANCH   3  15
ATOM     15  C   UNL     1      47.123   4.411  17.810  0.00  0.00    +0.000 C 
BRANCH  15  16
ATOM     16  N   UNL     1      46.546   3.125  17.410  0.00  0.00    +0.000 NA
ATOM     17  H   UNL     1      47.265   2.407  17.479  0.00  0.00    +0.000 HD
ATOM     18  H   UNL     1      46.268   3.171  16.426  0.00  0.00    +0.000 HD
ENDBRANCH  15  16
ENDBRANCH   3  15
ENDBRANCH   1   3
BRANCH   1  19
ATOM     19  C   UNL     1      47.639   5.738  14.522  0.00  0.00    +0.000 C 
BRANCH  19  20
ATOM     20  C   UNL     1      46.655   5.333  13.463  0.00  0.00    +0.000 A 
ATOM     21  C   UNL     1      46.314   3.989  13.276  0.00  0.00    +0.000 A 
ATOM     22  C   UNL     1      45.366   3.644  12.322  0.00  0.00    +0.000 A 
ATOM     23  C   UNL     1      44.769   4.660  11.587  0.00  0.00    +0.000 A 
ATOM     24  N   UNL     1      45.071   5.977  11.765  0.00  0.00    +0.000 NA
ATOM     25  C   UNL     1      46.014   6.279  12.678  0.00  0.00    +0.000 A 
BRANCH  23  26
ATOM     26  C   UNL     1      43.719   4.317  10.550  0.00  0.00    +0.000 C 
BRANCH  26  27
ATOM     27  N   UNL     1      44.058   3.145   9.734  0.00  0.00    +0.000 NA
ATOM     28  H   UNL     1      43.188   2.621   9.621  0.00  0.00    +0.000 HD
BRANCH  27  29
ATOM     29  C   UNL     1      44.516   3.536   8.389  0.00  0.00    +0.000 C 
BRANCH  29  30
ATOM     30  C   UNL     1      45.912   2.954   8.130  0.00  0.00    +0.000 C 
ATOM     31  C   UNL     1      46.373   3.175   6.700  0.00  0.00    +0.000 C 
ATOM     32  C   UNL     1      47.498   2.172   6.559  0.00  0.00    +0.000 C 
ATOM     33  C   UNL     1      47.102   1.024   7.480  0.00  0.00    +0.000 C 
ATOM     34  N   UNL     1      45.961   1.490   8.272  0.00  0.00    +0.000 NA
ATOM     35  H   UNL     1      46.065   1.233   9.252  0.00  0.00    +0.000 HD
ENDBRANCH  29  30
ENDBRANCH  27  29
ENDBRANCH  26  27
ENDBRANCH  23  26
ENDBRANCH  19  20
ENDBRANCH   1  19
TORSDOF 10
ENDMDL
MODEL 3
REMARK VINA RESULT:    -6.001      2.269      3.083
REMARK INTER + INTRA:         -10.240
REMARK INTER:                  -9.270
REMARK INTRA:                  -0.971
REMARK UNBOUND:                -0.906
REMARK  Name = 
REMARK  10 active torsions:
REMARK  status: ('A' for Active; 'I' for Inactive)
REMARK    1  A    between atoms: N_1  and  C_2
REMARK    2  A    between atoms: C_2  and  C_3
REMARK    3  A    between atoms: C_3  and  N_4
REMARK    4  A    between atoms: C_3  and  C_20
REMARK    5  A    between atoms: N_4  and  C_5
REMARK    6  A    between atoms: C_5  and  C_6
REMARK    7  A    between atoms: C_9  and  C_10
REMARK    8  A    between atoms: C_10  and  N_11
REMARK    9  A    between atoms: N_11  and  C_12
REMARK   10  A    between atoms: C_12  and  C_13
REMARK                            x       y       z     vdW  Elec       q    Type
REMARK                         _______ _______ _______ _____ _____    ______ ____
ROOT
ATOM      1  N   UNL     1      50.303   6.814  15.816  0.00  0.00    +0.000 NA
ATOM      2  H   UNL     1      51.303   6.989  15.720  0.00  0.00    +0.000 HD
ENDROOT
BRANCH   1   3
ATOM      3  C   UNL     1      50.023   6.401  17.205  0.00  0.00    +0.000 C 
BRANCH   3   4
ATOM      4  C   UNL     1      49.686   4.912  17.166  0.00  0.00    +0.000 A 
ATOM      5  C   UNL     1      48.428   4.384  16.904  0.00  0.00    +0.000 A 
ATOM      6  S   UNL     1      48.387   2.679  16.916  0.00  0.00    +0.000 S 
ATOM      7  C   UNL     1      50.049   2.583  17.262  0.00  0.00    +0.000 A 
ATOM      8  N   UNL     1      50.674   1.377  17.379  0.00  0.00    +0.000 NA
ATOM      9  C   UNL     1      51.938   1.460  17.620  0.00  0.00    +0.000 A 
ATOM     10  N   UNL     1      52.637   2.634  17.768  0.00  0.00    +0.000 N 
ATOM     11  C   UNL     1      52.041   3.874  17.700  0.00  0.00    +0.000 A 
ATOM     12  O   UNL     1      52.688   4.908  17.874  0.00  0.00    +0.000 OA
ATOM     13  C   UNL     1      50.624   3.834  17.386  0.00  0.00    +0.000 A 
ATOM     14  H   UNL     1      53.626   2.625  17.965  0.00  0.00    +0.000 HD
ENDBRANCH   3   4
BRANCH   3  15
ATOM     15  C   UNL     1      48.871   7.244  17.843  0.00  0.00    +0.000 C 
BRANCH  15  16
ATOM     16  N   UNL     1      49.133   7.774  19.184  0.00  0.00    +0.000 NA
ATOM     17  H   UNL     1      49.819   7.177  19.644  0.00  0.00    +0.000 HD
ATOM     18  H   UNL     1      48.277   7.722  19.741  0.00  0.00    +0.000 HD
ENDBRANCH  15  16
ENDBRANCH   3  15
ENDBRANCH   1   3
BRANCH   1  19
ATOM     19  C   UNL     1      49.574   8.004  15.391  0.00  0.00    +0.000 C 
BRANCH  19  20
ATOM     20  C   UNL     1      48.494   7.637  14.416  0.00  0.00    +0.000 A 
ATOM     21  C   UNL     1      47.482   8.547  14.089  0.00  0.00    +0.000 A 
ATOM     22  C   UNL     1      46.522   8.202  13.148  0.00  0.00    +0.000 A 
ATOM     23  C   UNL     1      46.607   6.955  12.543  0.00  0.00    +0.000 A 
ATOM     24  N   UNL     1      47.593   6.060  12.831  0.00  0.00    +0.000 NA
ATOM     25  C   UNL     1      48.495   6.411  13.768  0.00  0.00    +0.000 A 
BRANCH  23  26
ATOM     26  C   UNL     1      45.582   6.555  11.501  0.00  0.00    +0.000 C 
BRANCH  26  27
ATOM     27  N   UNL     1      44.669   5.497  11.949  0.00  0.00    +0.000 NA
ATOM     28  H   UNL     1      43.963   5.961  12.525  0.00  0.00    +0.000 HD
BRANCH  27  29
ATOM     29  C   UNL     1      43.970   4.869  10.814  0.00  0.00    +0.000 C 
BRANCH  29  30
ATOM     30  C   UNL     1      44.926   3.919  10.080  0.00  0.00    +0.000 C 
ATOM     31  C   UNL     1      45.036   4.241   8.601  0.00  0.00    +0.000 C 
ATOM     32  C   UNL     1      45.627   2.969   8.031  0.00  0.00    +0.000 C 
ATOM     33  C   UNL     1      45.096   1.864   8.936  0.00  0.00    +0.000 C 
ATOM     34  N   UNL     1      44.465   2.523  10.083  0.00  0.00    +0.000 NA
ATOM     35  H   UNL     1      44.724   2.066  10.956  0.00  0.00    +0.000 HD
ENDBRANCH  29  30
ENDBRANCH  27  29
ENDBRANCH  26  27
ENDBRANCH  23  26
ENDBRANCH  19  20
ENDBRANCH   1  19
TORSDOF 10
ENDMDL
MODEL 4
REMARK VINA RESULT:    -5.840      2.602      3.572
REMARK INTER + INTRA:          -9.990
REMARK INTER:                  -8.901
REMARK INTRA:                  -1.089
REMARK UNBOUND:                -0.906
REMARK  Name = 
REMARK  10 active torsions:
REMARK  status: ('A' for Active; 'I' for Inactive)
REMARK    1  A    between atoms: N_1  and  C_2
REMARK    2  A    between atoms: C_2  and  C_3
REMARK    3  A    between atoms: C_3  and  N_4
REMARK    4  A    between atoms: C_3  and  C_20
REMARK    5  A    between atoms: N_4  and  C_5
REMARK    6  A    between atoms: C_5  and  C_6
REMARK    7  A    between atoms: C_9  and  C_10
REMARK    8  A    between atoms: C_10  and  N_11
REMARK    9  A    between atoms: N_11  and  C_12
REMARK   10  A    between atoms: C_12  and  C_13
REMARK                            x       y       z     vdW  Elec       q    Type
REMARK                         _______ _______ _______ _____ _____    ______ ____
ROOT
ATOM      1  N   UNL     1      49.066   7.993  15.555  0.00  0.00    +0.000 NA
ATOM      2  H   UNL     1      48.214   7.637  15.989  0.00  0.00    +0.000 HD
ENDROOT
BRANCH   1   3
ATOM      3  C   UNL     1      50.141   8.018  16.568  0.00  0.00    +0.000 C 
BRANCH   3   4
ATOM      4  C   UNL     1      49.490   7.699  17.912  0.00  0.00    +0.000 A 
ATOM      5  C   UNL     1      48.918   8.636  18.765  0.00  0.00    +0.000 A 
ATOM      6  S   UNL     1      48.261   7.954  20.184  0.00  0.00    +0.000 S 
ATOM      7  C   UNL     1      48.706   6.384  19.707  0.00  0.00    +0.000 A 
ATOM      8  N   UNL     1      48.406   5.302  20.481  0.00  0.00    +0.000 NA
ATOM      9  C   UNL     1      48.785   4.175  19.981  0.00  0.00    +0.000 A 
ATOM     10  N   UNL     1      49.448   4.026  18.787  0.00  0.00    +0.000 N 
ATOM     11  C   UNL     1      49.810   5.091  17.992  0.00  0.00    +0.000 A 
ATOM     12  O   UNL     1      50.437   4.927  16.945  0.00  0.00    +0.000 OA
ATOM     13  C   UNL     1      49.365   6.381  18.492  0.00  0.00    +0.000 A 
ATOM     14  H   UNL     1      49.723   3.113  18.461  0.00  0.00    +0.000 HD
ENDBRANCH   3   4
BRANCH   3  15
ATOM     15  C   UNL     1      50.888   9.391  16.591  0.00  0.00    +0.000 C 
BRANCH  15  16
ATOM     16  N   UNL     1      51.559   9.775  15.347  0.00  0.00    +0.000 NA
ATOM     17  H   UNL     1      50.979   9.489  14.559  0.00  0.00    +0.000 HD
ATOM     18  H   UNL     1      52.440   9.260  15.266  0.00  0.00    +0.000 HD
ENDBRANCH  15  16
ENDBRANCH   3  15
ENDBRANCH   1   3
BRANCH   1  19
ATOM     19  C   UNL     1      49.372   7.183  14.382  0.00  0.00    +0.000 C 
BRANCH  19  20
ATOM     20  C   UNL     1      48.153   6.435  13.928  0.00  0.00    +0.000 A 
ATOM     21  C   UNL     1      47.592   6.673  12.669  0.00  0.00    +0.000 A 
ATOM     22  C   UNL     1      46.493   5.935  12.252  0.00  0.00    +0.000 A 
ATOM     23  C   UNL     1      45.990   4.960  13.104  0.00  0.00    +0.000 A 
ATOM     24  N   UNL     1      46.531   4.697  14.327  0.00  0.00    +0.000 NA
ATOM     25  C   UNL     1      47.580   5.448  14.715  0.00  0.00    +0.000 A 
BRANCH  23  26
ATOM     26  C   UNL     1      44.801   4.126  12.671  0.00  0.00    +0.000 C 
BRANCH  26  27
ATOM     27  N   UNL     1      43.795   4.883  11.918  0.00  0.00    +0.000 NA
ATOM     28  H   UNL     1      44.250   5.755  11.639  0.00  0.00    +0.000 HD
BRANCH  27  29
ATOM     29  C   UNL     1      43.398   4.178  10.686  0.00  0.00    +0.000 C 
BRANCH  29  30
ATOM     30  C   UNL     1      44.640   3.589  10.006  0.00  0.00    +0.000 C 
ATOM     31  C   UNL     1      44.813   4.094   8.584  0.00  0.00    +0.000 C 
ATOM     32  C   UNL     1      45.774   3.085   7.992  0.00  0.00    +0.000 C 
ATOM     33  C   UNL     1      45.463   1.786   8.727  0.00  0.00    +0.000 C 
ATOM     34  N   UNL     1      44.567   2.130   9.834  0.00  0.00    +0.000 NA
ATOM     35  H   UNL     1      44.846   1.658  10.692  0.00  0.00    +0.000 HD
ENDBRANCH  29  30
ENDBRANCH  27  29
ENDBRANCH  26  27
ENDBRANCH  23  26
ENDBRANCH  19  20
ENDBRANCH   1  19
TORSDOF 10
ENDMDL
MODEL 5
REMARK VINA RESULT:    -5.758      3.296      9.556
REMARK INTER + INTRA:          -9.862
REMARK INTER:                  -8.847
REMARK INTRA:                  -1.015
REMARK UNBOUND:                -0.906
REMARK  Name = 
REMARK  10 active torsions:
REMARK  status: ('A' for Active; 'I' for Inactive)
REMARK    1  A    between atoms: N_1  and  C_2
REMARK    2  A    between atoms: C_2  and  C_3
REMARK    3  A    between atoms: C_3  and  N_4
REMARK    4  A    between atoms: C_3  and  C_20
REMARK    5  A    between atoms: N_4  and  C_5
REMARK    6  A    between atoms: C_5  and  C_6
REMARK    7  A    between atoms: C_9  and  C_10
REMARK    8  A    between atoms: C_10  and  N_11
REMARK    9  A    between atoms: N_11  and  C_12
REMARK   10  A    between atoms: C_12  and  C_13
REMARK                            x       y       z     vdW  Elec       q    Type
REMARK                         _______ _______ _______ _____ _____    ______ ____
ROOT
ATOM      1  N   UNL     1      49.844   5.282  16.707  0.00  0.00    +0.000 NA
ATOM      2  H   UNL     1      50.565   4.949  16.067  0.00  0.00    +0.000 HD
ENDROOT
BRANCH   1   3
ATOM      3  C   UNL     1      48.522   4.884  16.182  0.00  0.00    +0.000 C 
BRANCH   3   4
ATOM      4  C   UNL     1      48.116   5.941  15.157  0.00  0.00    +0.000 A 
ATOM      5  C   UNL     1      48.535   7.266  15.166  0.00  0.00    +0.000 A 
ATOM      6  S   UNL     1      47.914   8.187  13.871  0.00  0.00    +0.000 S 
ATOM      7  C   UNL     1      47.072   6.848  13.246  0.00  0.00    +0.000 A 
ATOM      8  N   UNL     1      46.339   6.951  12.101  0.00  0.00    +0.000 NA
ATOM      9  C   UNL     1      45.775   5.850  11.736  0.00  0.00    +0.000 A 
ATOM     10  N   UNL     1      45.862   4.658  12.413  0.00  0.00    +0.000 N 
ATOM     11  C   UNL     1      46.554   4.516  13.595  0.00  0.00    +0.000 A 
ATOM     12  O   UNL     1      46.582   3.443  14.198  0.00  0.00    +0.000 OA
ATOM     13  C   UNL     1      47.245   5.719  14.025  0.00  0.00    +0.000 A 
ATOM     14  H   UNL     1      45.386   3.837  12.074  0.00  0.00    +0.000 HD
ENDBRANCH   3   4
BRANCH   3  15
ATOM     15  C   UNL     1      47.462   4.739  17.323  0.00  0.00    +0.000 C 
BRANCH  15  16
ATOM     16  N   UNL     1      46.738   3.466  17.363  0.00  0.00    +0.000 NA
ATOM     17  H   UNL     1      47.407   2.704  17.264  0.00  0.00    +0.000 HD
ATOM     18  H   UNL     1      46.107   3.411  16.560  0.00  0.00    +0.000 HD
ENDBRANCH  15  16
ENDBRANCH   3  15
ENDBRANCH   1   3
BRANCH   1  19
ATOM     19  C   UNL     1      50.130   4.777  18.044  0.00  0.00    +0.000 C 
BRANCH  19  20
ATOM     20  C   UNL     1      51.017   3.569  17.971  0.00  0.00    +0.000 A 
ATOM     21  C   UNL     1      50.549   2.366  17.432  0.00  0.00    +0.000 A 
ATOM     22  C   UNL     1      51.403   1.276  17.330  0.00  0.00    +0.000 A 
ATOM     23  C   UNL     1      52.716   1.424  17.759  0.00  0.00    +0.000 A 
ATOM     24  N   UNL     1      53.200   2.591  18.269  0.00  0.00    +0.000 NA
ATOM     25  C   UNL     1      52.340   3.623  18.381  0.00  0.00    +0.000 A 
BRANCH  23  26
ATOM     26  C   UNL     1      53.677   0.258  17.647  0.00  0.00    +0.000 C 
BRANCH  26  27
ATOM     27  N   UNL     1      53.321  -0.882  18.501  0.00  0.00    +0.000 NA
ATOM     28  H   UNL     1      52.658  -1.441  17.960  0.00  0.00    +0.000 HD
BRANCH  27  29
ATOM     29  C   UNL     1      54.491  -1.733  18.781  0.00  0.00    +0.000 C 
BRANCH  29  30
ATOM     30  C   UNL     1      54.159  -2.707  19.919  0.00  0.00    +0.000 C 
ATOM     31  C   UNL     1      54.053  -4.143  19.437  0.00  0.00    +0.000 C 
ATOM     32  C   UNL     1      53.305  -4.815  20.569  0.00  0.00    +0.000 C 
ATOM     33  C   UNL     1      52.412  -3.719  21.139  0.00  0.00    +0.000 C 
ATOM     34  N   UNL     1      52.841  -2.461  20.522  0.00  0.00    +0.000 NA
ATOM     35  H   UNL     1      52.901  -1.716  21.214  0.00  0.00    +0.000 HD
ENDBRANCH  29  30
ENDBRANCH  27  29
ENDBRANCH  26  27
ENDBRANCH  23  26
ENDBRANCH  19  20
ENDBRANCH   1  19
TORSDOF 10
ENDMDL
MODEL 6
REMARK VINA RESULT:    -5.667      3.230      4.419
REMARK INTER + INTRA:          -9.720
REMARK INTER:                  -8.932
REMARK INTRA:                  -0.788
REMARK UNBOUND:                -0.906
REMARK  Name = 
REMARK  10 active torsions:
REMARK  status: ('A' for Active; 'I' for Inactive)
REMARK    1  A    between atoms: N_1  and  C_2
REMARK    2  A    between atoms: C_2  and  C_3
REMARK    3  A    between atoms: C_3  and  N_4
REMARK    4  A    between atoms: C_3  and  C_20
REMARK    5  A    between atoms: N_4  and  C_5
REMARK    6  A    between atoms: C_5  and  C_6
REMARK    7  A    between atoms: C_9  and  C_10
REMARK    8  A    between atoms: C_10  and  N_11
REMARK    9  A    between atoms: N_11  and  C_12
REMARK   10  A    between atoms: C_12  and  C_13
REMARK                            x       y       z     vdW  Elec       q    Type
REMARK                         _______ _______ _______ _____ _____    ______ ____
ROOT
ATOM      1  N   UNL     1      49.760   6.837  17.726  0.00  0.00    +0.000 NA
ATOM      2  H   UNL     1      49.286   7.740  17.706  0.00  0.00    +0.000 HD
ENDROOT
BRANCH   1   3
ATOM      3  C   UNL     1      49.002   5.919  18.599  0.00  0.00    +0.000 C 
BRANCH   3   4
ATOM      4  C   UNL     1      49.030   4.547  17.932  0.00  0.00    +0.000 A 
ATOM      5  C   UNL     1      47.973   3.974  17.235  0.00  0.00    +0.000 A 
ATOM      6  S   UNL     1      48.331   2.434  16.594  0.00  0.00    +0.000 S 
ATOM      7  C   UNL     1      49.914   2.480  17.214  0.00  0.00    +0.000 A 
ATOM      8  N   UNL     1      50.785   1.455  16.993  0.00  0.00    +0.000 NA
ATOM      9  C   UNL     1      51.955   1.638  17.504  0.00  0.00    +0.000 A 
ATOM     10  N   UNL     1      52.335   2.744  18.225  0.00  0.00    +0.000 N 
ATOM     11  C   UNL     1      51.479   3.785  18.509  0.00  0.00    +0.000 A 
ATOM     12  O   UNL     1      51.839   4.745  19.190  0.00  0.00    +0.000 OA
ATOM     13  C   UNL     1      50.160   3.645  17.917  0.00  0.00    +0.000 A 
ATOM     14  H   UNL     1      53.267   2.817  18.603  0.00  0.00    +0.000 HD
ENDBRANCH   3   4
BRANCH   3  15
ATOM     15  C   UNL     1      47.540   6.421  18.841  0.00  0.00    +0.000 C 
BRANCH  15  16
ATOM     16  N   UNL     1      47.296   7.838  18.561  0.00  0.00    +0.000 NA
ATOM     17  H   UNL     1      46.373   7.936  18.141  0.00  0.00    +0.000 HD
ATOM     18  H   UNL     1      47.972   8.166  17.866  0.00  0.00    +0.000 HD
ENDBRANCH  15  16
ENDBRANCH   3  15
ENDBRANCH   1   3
BRANCH   1  19
ATOM     19  C   UNL     1      49.922   6.359  16.358  0.00  0.00    +0.000 C 
BRANCH  19  20
ATOM     20  C   UNL     1      48.962   7.058  15.441  0.00  0.00    +0.000 A 
ATOM     21  C   UNL     1      48.837   8.451  15.457  0.00  0.00    +0.000 A 
ATOM     22  C   UNL     1      47.977   9.078  14.566  0.00  0.00    +0.000 A 
ATOM     23  C   UNL     1      47.272   8.291  13.665  0.00  0.00    +0.000 A 
ATOM     24  N   UNL     1      47.391   6.935  13.617  0.00  0.00    +0.000 NA
ATOM     25  C   UNL     1      48.212   6.352  14.512  0.00  0.00    +0.000 A 
BRANCH  23  26
ATOM     26  C   UNL     1      46.337   8.947  12.668  0.00  0.00    +0.000 C 
BRANCH  26  27
ATOM     27  N   UNL     1      44.991   8.362  12.652  0.00  0.00    +0.000 NA
ATOM     28  H   UNL     1      44.342   9.152  12.656  0.00  0.00    +0.000 HD
BRANCH  27  29
ATOM     29  C   UNL     1      44.749   7.597  11.415  0.00  0.00    +0.000 C 
BRANCH  29  30
ATOM     30  C   UNL     1      43.747   6.469  11.694  0.00  0.00    +0.000 C 
ATOM     31  C   UNL     1      44.127   5.648  12.914  0.00  0.00    +0.000 C 
ATOM     32  C   UNL     1      43.307   4.389  12.731  0.00  0.00    +0.000 C 
ATOM     33  C   UNL     1      43.191   4.227  11.220  0.00  0.00    +0.000 C 
ATOM     34  N   UNL     1      43.695   5.466  10.621  0.00  0.00    +0.000 NA
ATOM     35  H   UNL     1      43.087   5.783   9.868  0.00  0.00    +0.000 HD
ENDBRANCH  29  30
ENDBRANCH  27  29
ENDBRANCH  26  27
ENDBRANCH  23  26
ENDBRANCH  19  20
ENDBRANCH   1  19
TORSDOF 10
ENDMDL
MODEL 7
REMARK VINA RESULT:    -5.526      3.062      4.467
REMARK INTER + INTRA:          -9.501
REMARK INTER:                  -8.602
REMARK INTRA:                  -0.899
REMARK UNBOUND:                -0.906
REMARK  Name = 
REMARK  10 active torsions:
REMARK  status: ('A' for Active; 'I' for Inactive)
REMARK    1  A    between atoms: N_1  and  C_2
REMARK    2  A    between atoms: C_2  and  C_3
REMARK    3  A    between atoms: C_3  and  N_4
REMARK    4  A    between atoms: C_3  and  C_20
REMARK    5  A    between atoms: N_4  and  C_5
REMARK    6  A    between atoms: C_5  and  C_6
REMARK    7  A    between atoms: C_9  and  C_10
REMARK    8  A    between atoms: C_10  and  N_11
REMARK    9  A    between atoms: N_11  and  C_12
REMARK   10  A    between atoms: C_12  and  C_13
REMARK                            x       y       z     vdW  Elec       q    Type
REMARK                         _______ _______ _______ _____ _____    ______ ____
ROOT
ATOM      1  N   UNL     1      48.441   7.135  18.621  0.00  0.00    +0.000 NA
ATOM      2  H   UNL     1      47.808   6.596  18.031  0.00  0.00    +0.000 HD
ENDROOT
BRANCH   1   3
ATOM      3  C   UNL     1      49.053   6.230  19.614  0.00  0.00    +0.000 C 
BRANCH   3   4
ATOM      4  C   UNL     1      49.730   5.107  18.831  0.00  0.00    +0.000 A 
ATOM      5  C   UNL     1      51.089   4.814  18.866  0.00  0.00    +0.000 A 
ATOM      6  S   UNL     1      51.527   3.487  17.889  0.00  0.00    +0.000 S 
ATOM      7  C   UNL     1      49.918   3.247  17.392  0.00  0.00    +0.000 A 
ATOM      8  N   UNL     1      49.587   2.227  16.549  0.00  0.00    +0.000 NA
ATOM      9  C   UNL     1      48.329   2.155  16.278  0.00  0.00    +0.000 A 
ATOM     10  N   UNL     1      47.369   3.013  16.758  0.00  0.00    +0.000 N 
ATOM     11  C   UNL     1      47.661   4.082  17.577  0.00  0.00    +0.000 A 
ATOM     12  O   UNL     1      46.782   4.856  17.960  0.00  0.00    +0.000 OA
ATOM     13  C   UNL     1      49.062   4.179  17.947  0.00  0.00    +0.000 A 
ATOM     14  H   UNL     1      46.402   2.903  16.496  0.00  0.00    +0.000 HD
ENDBRANCH   3   4
BRANCH   3  15
ATOM     15  C   UNL     1      47.999   5.680  20.630  0.00  0.00    +0.000 C 
BRANCH  15  16
ATOM     16  N   UNL     1      48.246   4.329  21.139  0.00  0.00    +0.000 NA
ATOM     17  H   UNL     1      47.842   4.250  22.071  0.00  0.00    +0.000 HD
ATOM     18  H   UNL     1      49.254   4.186  21.242  0.00  0.00    +0.000 HD
ENDBRANCH  15  16
ENDBRANCH   3  15
ENDBRANCH   1   3
BRANCH   1  19
ATOM     19  C   UNL     1      49.404   7.826  17.772  0.00  0.00    +0.000 C 
BRANCH  19  20
ATOM     20  C   UNL     1      48.952   7.804  16.341  0.00  0.00    +0.000 A 
ATOM     21  C   UNL     1      48.406   8.945  15.743  0.00  0.00    +0.000 A 
ATOM     22  C   UNL     1      48.041   8.915  14.404  0.00  0.00    +0.000 A 
ATOM     23  C   UNL     1      48.247   7.742  13.690  0.00  0.00    +0.000 A 
ATOM     24  N   UNL     1      48.794   6.624  14.245  0.00  0.00    +0.000 NA
ATOM     25  C   UNL     1      49.114   6.675  15.553  0.00  0.00    +0.000 A 
BRANCH  23  26
ATOM     26  C   UNL     1      47.873   7.681  12.223  0.00  0.00    +0.000 C 
BRANCH  26  27
ATOM     27  N   UNL     1      46.811   6.712  11.925  0.00  0.00    +0.000 NA
ATOM     28  H   UNL     1      47.197   5.794  12.154  0.00  0.00    +0.000 HD
BRANCH  27  29
ATOM     29  C   UNL     1      45.632   6.922  12.784  0.00  0.00    +0.000 C 
BRANCH  29  30
ATOM     30  C   UNL     1      44.639   5.769  12.587  0.00  0.00    +0.000 C 
ATOM     31  C   UNL     1      45.047   4.843  11.454  0.00  0.00    +0.000 C 
ATOM     32  C   UNL     1      43.761   4.101  11.157  0.00  0.00    +0.000 C 
ATOM     33  C   UNL     1      42.659   5.098  11.494  0.00  0.00    +0.000 C 
ATOM     34  N   UNL     1      43.301   6.224  12.178  0.00  0.00    +0.000 NA
ATOM     35  H   UNL     1      42.762   6.513  12.993  0.00  0.00    +0.000 HD
ENDBRANCH  29  30
ENDBRANCH  27  29
ENDBRANCH  26  27
ENDBRANCH  23  26
ENDBRANCH  19  20
ENDBRANCH   1  19
TORSDOF 10
ENDMDL
