MODEL 1
REMARK VINA RESULT:    -7.432      0.000      0.000
REMARK INTER + INTRA:         -12.272
REMARK INTER:                 -10.908
REMARK INTRA:                  -1.364
REMARK UNBOUND:                -1.364
REMARK  Name = 
REMARK  9 active torsions:
REMARK  status: ('A' for Active; 'I' for Inactive)
REMARK    1  A    between atoms: C_1  and  O_2
REMARK    2  A    between atoms: O_2  and  C_3
REMARK    3  A    between atoms: C_10  and  C_11
REMARK    4  A    between atoms: N_13  and  C_14
REMARK    5  A    between atoms: C_14  and  C_15
REMARK    6  A    between atoms: C_18  and  N_19
REMARK    7  A    between atoms: N_19  and  C_20
REMARK    8  A    between atoms: C_20  and  C_21
REMARK    9  A    between atoms: C_21  and  N_22
REMARK                            x       y       z     vdW  Elec       q    Type
REMARK                         _______ _______ _______ _____ _____    ______ ____
ROOT
ATOM      1  C   UNL     1      46.559   8.023  13.078  0.00  0.00    +0.000 C 
ENDROOT
BRANCH   1   2
ATOM      2  C   UNL     1      45.855   7.007  12.219  0.00  0.00    +0.000 A 
ATOM      3  C   UNL     1      44.613   6.491  12.600  0.00  0.00    +0.000 A 
ATOM      4  C   UNL     1      43.931   5.590  11.774  0.00  0.00    +0.000 A 
ATOM      5  C   UNL     1      44.459   5.200  10.538  0.00  0.00    +0.000 A 
ATOM      6  C   UNL     1      45.749   5.637  10.218  0.00  0.00    +0.000 A 
ATOM      7  C   UNL     1      46.438   6.539  11.037  0.00  0.00    +0.000 A 
BRANCH   5   8
ATOM      8  N   UNL     1      43.842   4.289   9.666  0.00  0.00    +0.000 N 
ATOM      9  H   UNL     1      43.957   4.626   8.711  0.00  0.00    +0.000 HD
BRANCH   8  10
ATOM     10  C   UNL     1      44.207   2.867   9.755  0.00  0.00    +0.000 C 
BRANCH  10  11
ATOM     11  C   UNL     1      44.706   2.315   8.396  0.00  0.00    +0.000 C 
BRANCH  11  12
ATOM     12  N   UNL     1      46.162   2.501   8.211  0.00  0.00    +0.000 NA
ATOM     13  C   UNL     1      46.468   3.619   7.303  0.00  0.00    +0.000 C 
ATOM     14  C   UNL     1      46.703   2.994   5.942  0.00  0.00    +0.000 C 
ATOM     15  C   UNL     1      47.378   1.684   6.284  0.00  0.00    +0.000 C 
ATOM     16  C   UNL     1      46.798   1.302   7.635  0.00  0.00    +0.000 C 
ENDBRANCH  11  12
ENDBRANCH  10  11
ENDBRANCH   8  10
ENDBRANCH   5   8
ENDBRANCH   1   2
BRANCH   1  19
ATOM     17  C   UNL     1      48.481   7.024  14.223  0.00  0.00    +0.000 C 
ATOM     18  O   UNL     1      49.181   7.176  13.226  0.00  0.00    +0.000 OA
ATOM     19  N   UNL     1      47.166   7.410  14.229  0.00  0.00    +0.000 N 
ATOM     20  H   UNL     1      46.586   7.245  15.041  0.00  0.00    +0.000 HD
BRANCH  17  28
ATOM     21  C   UNL     1      47.504   4.426  16.272  0.00  0.00    +0.000 A 
ATOM     22  N   UNL     1      47.320   3.536  17.269  0.00  0.00    +0.000 NA
ATOM     23  C   UNL     1      48.183   3.544  18.288  0.00  0.00    +0.000 A 
ATOM     24  N   UNL     1      49.239   4.338  18.437  0.00  0.00    +0.000 NA
ATOM     25  C   UNL     1      49.382   5.216  17.429  0.00  0.00    +0.000 A 
ATOM     26  S   UNL     1      50.687   6.301  17.450  0.00  0.00    +0.000 S 
ATOM     27  C   UNL     1      50.182   7.008  15.990  0.00  0.00    +0.000 A 
ATOM     28  C   UNL     1      49.023   6.448  15.461  0.00  0.00    +0.000 A 
ATOM     29  C   UNL     1      48.563   5.353  16.314  0.00  0.00    +0.000 A 
BRANCH  21  31
ATOM     30  C   UNL     1      47.112   3.640  14.089  0.00  0.00    +0.000 C 
ATOM     31  O   UNL     1      46.635   4.399  15.200  0.00  0.00    +0.000 OA
ENDBRANCH  21  31
ENDBRANCH  17  28
ENDBRANCH   1  19
TORSDOF 8
ENDMDL
MODEL 2
REMARK VINA RESULT:    -7.014      1.561      1.893
REMARK INTER + INTRA:         -11.659
REMARK INTER:                 -10.554
REMARK INTRA:                  -1.105
REMARK UNBOUND:                -1.364
REMARK  Name = 
REMARK  9 active torsions:
REMARK  status: ('A' for Active; 'I' for Inactive)
REMARK    1  A    between atoms: C_1  and  O_2
REMARK    2  A    between atoms: O_2  and  C_3
REMARK    3  A    between atoms: C_10  and  C_11
REMARK    4  A    between atoms: N_13  and  C_14
REMARK    5  A    between atoms: C_14  and  C_15
REMARK    6  A    between atoms: C_18  and  N_19
REMARK    7  A    between atoms: N_19  and  C_20
REMARK    8  A    between atoms: C_20  and  C_21
REMARK    9  A    between atoms: C_21  and  N_22
REMARK                            x       y       z     vdW  Elec       q    Type
REMARK                         _______ _______ _______ _____ _____    ______ ____
ROOT
ATOM      1  C   UNL     1      47.873   7.280  13.358  0.00  0.00    +0.000 C 
ENDROOT
BRANCH   1   2
ATOM      2  C   UNL     1      46.928   6.281  12.747  0.00  0.00    +0.000 A 
ATOM      3  C   UNL     1      46.423   6.476  11.458  0.00  0.00    +0.000 A 
ATOM      4  C   UNL     1      45.589   5.519  10.866  0.00  0.00    +0.000 A 
ATOM      5  C   UNL     1      45.258   4.336  11.535  0.00  0.00    +0.000 A 
ATOM      6  C   UNL     1      45.678   4.203  12.863  0.00  0.00    +0.000 A 
ATOM      7  C   UNL     1      46.513   5.153  13.463  0.00  0.00    +0.000 A 
BRANCH   5   8
ATOM      8  N   UNL     1      44.415   3.342  11.014  0.00  0.00    +0.000 N 
ATOM      9  H   UNL     1      43.532   3.365  11.524  0.00  0.00    +0.000 HD
BRANCH   8  10
ATOM     10  C   UNL     1      44.168   3.312   9.564  0.00  0.00    +0.000 C 
BRANCH  10  11
ATOM     11  C   UNL     1      44.832   2.085   8.891  0.00  0.00    +0.000 C 
BRANCH  11  12
ATOM     12  N   UNL     1      46.236   2.345   8.503  0.00  0.00    +0.000 NA
ATOM     13  C   UNL     1      46.369   3.567   7.693  0.00  0.00    +0.000 C 
ATOM     14  C   UNL     1      46.395   3.106   6.249  0.00  0.00    +0.000 C 
ATOM     15  C   UNL     1      47.142   1.793   6.326  0.00  0.00    +0.000 C 
ATOM     16  C   UNL     1      46.794   1.242   7.699  0.00  0.00    +0.000 C 
ENDBRANCH  11  12
ENDBRANCH  10  11
ENDBRANCH   8  10
ENDBRANCH   5   8
ENDBRANCH   1   2
BRANCH   1  19
ATOM     17  C   UNL     1      48.987   6.952  15.515  0.00  0.00    +0.000 C 
ATOM     18  O   UNL     1      50.059   6.745  14.955  0.00  0.00    +0.000 OA
ATOM     19  N   UNL     1      47.852   7.217  14.794  0.00  0.00    +0.000 N 
ATOM     20  H   UNL     1      46.965   7.347  15.263  0.00  0.00    +0.000 HD
BRANCH  17  28
ATOM     21  C   UNL     1      48.860   4.461  17.898  0.00  0.00    +0.000 A 
ATOM     22  N   UNL     1      48.716   3.713  19.012  0.00  0.00    +0.000 NA
ATOM     23  C   UNL     1      48.539   4.344  20.176  0.00  0.00    +0.000 A 
ATOM     24  N   UNL     1      48.498   5.658  20.376  0.00  0.00    +0.000 NA
ATOM     25  C   UNL     1      48.635   6.366  19.243  0.00  0.00    +0.000 A 
ATOM     26  S   UNL     1      48.620   8.062  19.314  0.00  0.00    +0.000 S 
ATOM     27  C   UNL     1      48.803   8.181  17.630  0.00  0.00    +0.000 A 
ATOM     28  C   UNL     1      48.875   6.953  16.980  0.00  0.00    +0.000 A 
ATOM     29  C   UNL     1      48.803   5.866  17.956  0.00  0.00    +0.000 A 
BRANCH  21  31
ATOM     30  C   UNL     1      47.927   3.141  16.188  0.00  0.00    +0.000 C 
ATOM     31  O   UNL     1      49.077   3.815  16.698  0.00  0.00    +0.000 OA
ENDBRANCH  21  31
ENDBRANCH  17  28
ENDBRANCH   1  19
TORSDOF 8
ENDMDL
MODEL 3
REMARK VINA RESULT:    -6.474      2.117      3.704
REMARK INTER + INTRA:         -10.866
REMARK INTER:                  -9.816
REMARK INTRA:                  -1.050
REMARK UNBOUND:                -1.364
REMARK  Name = 
REMARK  9 active torsions:
REMARK  status: ('A' for Active; 'I' for Inactive)
REMARK    1  A    between atoms: C_1  and  O_2
REMARK    2  A    between atoms: O_2  and  C_3
REMARK    3  A    between atoms: C_10  and  C_11
REMARK    4  A    between atoms: N_13  and  C_14
REMARK    5  A    between atoms: C_14  and  C_15
REMARK    6  A    between atoms: C_18  and  N_19
REMARK    7  A    between atoms: N_19  and  C_20
REMARK    8  A    between atoms: C_20  and  C_21
REMARK    9  A    between atoms: C_21  and  N_22
REMARK                            x       y       z     vdW  Elec       q    Type
REMARK                         _______ _______ _______ _____ _____    ______ ____
ROOT
ATOM      1  C   UNL     1      47.131   4.587  14.412  0.00  0.00    +0.000 C 
ENDROOT
BRANCH   1   2
ATOM      2  C   UNL     1      46.236   4.603  13.203  0.00  0.00    +0.000 A 
ATOM      3  C   UNL     1      46.148   5.743  12.399  0.00  0.00    +0.000 A 
ATOM      4  C   UNL     1      45.359   5.741  11.241  0.00  0.00    +0.000 A 
ATOM      5  C   UNL     1      44.659   4.596  10.846  0.00  0.00    +0.000 A 
ATOM      6  C   UNL     1      44.668   3.499  11.715  0.00  0.00    +0.000 A 
ATOM      7  C   UNL     1      45.454   3.492  12.873  0.00  0.00    +0.000 A 
BRANCH   5   8
ATOM      8  N   UNL     1      43.837   4.524   9.711  0.00  0.00    +0.000 N 
ATOM      9  H   UNL     1      43.343   5.410   9.612  0.00  0.00    +0.000 HD
BRANCH   8  10
ATOM     10  C   UNL     1      44.435   4.125   8.428  0.00  0.00    +0.000 C 
BRANCH  10  11
ATOM     11  C   UNL     1      44.956   2.666   8.463  0.00  0.00    +0.000 C 
BRANCH  11  12
ATOM     12  N   UNL     1      46.406   2.578   8.181  0.00  0.00    +0.000 NA
ATOM     13  C   UNL     1      46.839   3.573   7.187  0.00  0.00    +0.000 C 
ATOM     14  C   UNL     1      46.865   2.846   5.858  0.00  0.00    +0.000 C 
ATOM     15  C   UNL     1      47.322   1.455   6.242  0.00  0.00    +0.000 C 
ATOM     16  C   UNL     1      46.779   1.256   7.647  0.00  0.00    +0.000 C 
ENDBRANCH  11  12
ENDBRANCH  10  11
ENDBRANCH   8  10
ENDBRANCH   5   8
ENDBRANCH   1   2
BRANCH   1  19
ATOM     17  C   UNL     1      48.561   6.104  15.699  0.00  0.00    +0.000 C 
ATOM     18  O   UNL     1      49.014   5.164  16.345  0.00  0.00    +0.000 OA
ATOM     19  N   UNL     1      47.617   5.904  14.726  0.00  0.00    +0.000 N 
ATOM     20  H   UNL     1      47.221   6.689  14.226  0.00  0.00    +0.000 HD
BRANCH  17  28
ATOM     21  C   UNL     1      50.038   8.471  13.670  0.00  0.00    +0.000 A 
ATOM     22  N   UNL     1      50.677   9.535  13.142  0.00  0.00    +0.000 NA
ATOM     23  C   UNL     1      50.934  10.575  13.939  0.00  0.00    +0.000 A 
ATOM     24  N   UNL     1      50.616  10.697  15.224  0.00  0.00    +0.000 NA
ATOM     25  C   UNL     1      49.990   9.614  15.715  0.00  0.00    +0.000 A 
ATOM     26  S   UNL     1      49.500   9.601  17.340  0.00  0.00    +0.000 S 
ATOM     27  C   UNL     1      48.876   8.029  17.188  0.00  0.00    +0.000 A 
ATOM     28  C   UNL     1      49.028   7.480  15.918  0.00  0.00    +0.000 A 
ATOM     29  C   UNL     1      49.671   8.447  15.029  0.00  0.00    +0.000 A 
BRANCH  21  31
ATOM     30  C   UNL     1      49.025   7.776  11.663  0.00  0.00    +0.000 C 
ATOM     31  O   UNL     1      49.740   7.408  12.843  0.00  0.00    +0.000 OA
ENDBRANCH  21  31
ENDBRANCH  17  28
ENDBRANCH   1  19
TORSDOF 8
ENDMDL
MODEL 4
REMARK VINA RESULT:    -6.433      2.626      3.329
REMARK INTER + INTRA:         -10.806
REMARK INTER:                  -9.838
REMARK INTRA:                  -0.969
REMARK UNBOUND:                -1.364
REMARK  Name = 
REMARK  9 active torsions:
REMARK  status: ('A' for Active; 'I' for Inactive)
REMARK    1  A    between atoms: C_1  and  O_2
REMARK    2  A    between atoms: O_2  and  C_3
REMARK    3  A    between atoms: C_10  and  C_11
REMARK    4  A    between atoms: N_13  and  C_14
REMARK    5  A    between atoms: C_14  and  C_15
REMARK    6  A    between atoms: C_18  and  N_19
REMARK    7  A    between atoms: N_19  and  C_20
REMARK    8  A    between atoms: C_20  and  C_21
REMARK    9  A    between atoms: C_21  and  N_22
REMARK                            x       y       z     vdW  Elec       q    Type
REMARK                         _______ _______ _______ _____ _____    ______ ____
ROOT
ATOM      1  C   UNL     1      47.360   4.201  15.316  0.00  0.00    +0.000 C 
ENDROOT
BRANCH   1   2
ATOM      2  C   UNL     1      46.777   4.445  13.951  0.00  0.00    +0.000 A 
ATOM      3  C   UNL     1      46.119   3.419  13.265  0.00  0.00    +0.000 A 
ATOM      4  C   UNL     1      45.525   3.659  12.020  0.00  0.00    +0.000 A 
ATOM      5  C   UNL     1      45.552   4.932  11.440  0.00  0.00    +0.000 A 
ATOM      6  C   UNL     1      46.305   5.921  12.082  0.00  0.00    +0.000 A 
ATOM      7  C   UNL     1      46.901   5.691  13.328  0.00  0.00    +0.000 A 
BRANCH   5   8
ATOM      8  N   UNL     1      44.994   5.244  10.190  0.00  0.00    +0.000 N 
ATOM      9  H   UNL     1      45.753   5.412   9.530  0.00  0.00    +0.000 HD
BRANCH   8  10
ATOM     10  C   UNL     1      44.005   4.325   9.607  0.00  0.00    +0.000 C 
BRANCH  10  11
ATOM     11  C   UNL     1      44.520   3.678   8.297  0.00  0.00    +0.000 C 
BRANCH  11  12
ATOM     12  N   UNL     1      45.943   3.283   8.385  0.00  0.00    +0.000 NA
ATOM     13  C   UNL     1      46.735   3.810   7.261  0.00  0.00    +0.000 C 
ATOM     14  C   UNL     1      46.820   2.684   6.251  0.00  0.00    +0.000 C 
ATOM     15  C   UNL     1      46.899   1.451   7.124  0.00  0.00    +0.000 C 
ATOM     16  C   UNL     1      46.106   1.817   8.367  0.00  0.00    +0.000 C 
ENDBRANCH  11  12
ENDBRANCH  10  11
ENDBRANCH   8  10
ENDBRANCH   5   8
ENDBRANCH   1   2
BRANCH   1  19
ATOM     17  C   UNL     1      48.703   5.834  16.555  0.00  0.00    +0.000 C 
ATOM     18  O   UNL     1      49.715   5.160  16.390  0.00  0.00    +0.000 OA
ATOM     19  N   UNL     1      47.492   5.424  16.060  0.00  0.00    +0.000 N 
ATOM     20  H   UNL     1      46.656   5.966  16.235  0.00  0.00    +0.000 HD
BRANCH  17  28
ATOM     21  C   UNL     1      47.800   6.838  19.730  0.00  0.00    +0.000 A 
ATOM     22  N   UNL     1      47.472   7.510  20.852  0.00  0.00    +0.000 NA
ATOM     23  C   UNL     1      47.684   8.828  20.881  0.00  0.00    +0.000 A 
ATOM     24  N   UNL     1      48.205   9.577  19.915  0.00  0.00    +0.000 NA
ATOM     25  C   UNL     1      48.509   8.873  18.811  0.00  0.00    +0.000 A 
ATOM     26  S   UNL     1      49.196   9.668  17.479  0.00  0.00    +0.000 S 
ATOM     27  C   UNL     1      49.247   8.226  16.584  0.00  0.00    +0.000 A 
ATOM     28  C   UNL     1      48.744   7.120  17.264  0.00  0.00    +0.000 A 
ATOM     29  C   UNL     1      48.330   7.508  18.612  0.00  0.00    +0.000 A 
BRANCH  21  31
ATOM     30  C   UNL     1      48.735   4.727  20.185  0.00  0.00    +0.000 C 
ATOM     31  O   UNL     1      47.615   5.470  19.707  0.00  0.00    +0.000 OA
ENDBRANCH  21  31
ENDBRANCH  17  28
ENDBRANCH   1  19
TORSDOF 8
ENDMDL
MODEL 5
REMARK VINA RESULT:    -6.341      2.273      3.090
REMARK INTER + INTRA:         -10.671
REMARK INTER:                  -9.030
REMARK INTRA:                  -1.640
REMARK UNBOUND:                -1.364
REMARK  Name = 
REMARK  9 active torsions:
REMARK  status: ('A' for Active; 'I' for Inactive)
REMARK    1  A    between atoms: C_1  and  O_2
REMARK    2  A    between atoms: O_2  and  C_3
REMARK    3  A    between atoms: C_10  and  C_11
REMARK    4  A    between atoms: N_13  and  C_14
REMARK    5  A    between atoms: C_14  and  C_15
REMARK    6  A    between atoms: C_18  and  N_19
REMARK    7  A    between atoms: N_19  and  C_20
REMARK    8  A    between atoms: C_20  and  C_21
REMARK    9  A    between atoms: C_21  and  N_22
REMARK                            x       y       z     vdW  Elec       q    Type
REMARK                         _______ _______ _______ _____ _____    ______ ____
ROOT
ATOM      1  C   UNL     1      49.352   7.802  12.836  0.00  0.00    +0.000 C 
ENDROOT
BRANCH   1   2
ATOM      2  C   UNL     1      47.880   7.694  12.544  0.00  0.00    +0.000 A 
ATOM      3  C   UNL     1      46.968   8.554  13.163  0.00  0.00    +0.000 A 
ATOM      4  C   UNL     1      45.604   8.493  12.850  0.00  0.00    +0.000 A 
ATOM      5  C   UNL     1      45.122   7.591  11.895  0.00  0.00    +0.000 A 
ATOM      6  C   UNL     1      46.026   6.664  11.365  0.00  0.00    +0.000 A 
ATOM      7  C   UNL     1      47.391   6.718  11.671  0.00  0.00    +0.000 A 
BRANCH   5   8
ATOM      8  N   UNL     1      43.769   7.460  11.543  0.00  0.00    +0.000 N 
ATOM      9  H   UNL     1      43.485   8.299  11.037  0.00  0.00    +0.000 HD
BRANCH   8  10
ATOM     10  C   UNL     1      43.340   6.255  10.818  0.00  0.00    +0.000 C 
BRANCH  10  11
ATOM     11  C   UNL     1      42.665   5.226  11.760  0.00  0.00    +0.000 C 
BRANCH  11  12
ATOM     12  N   UNL     1      42.961   3.828  11.372  0.00  0.00    +0.000 NA
ATOM     13  C   UNL     1      43.656   3.092  12.440  0.00  0.00    +0.000 C 
ATOM     14  C   UNL     1      45.130   3.158  12.096  0.00  0.00    +0.000 C 
ATOM     15  C   UNL     1      45.129   3.093  10.585  0.00  0.00    +0.000 C 
ATOM     16  C   UNL     1      43.827   3.764  10.180  0.00  0.00    +0.000 C 
ENDBRANCH  11  12
ENDBRANCH  10  11
ENDBRANCH   8  10
ENDBRANCH   5   8
ENDBRANCH   1   2
BRANCH   1  19
ATOM     17  C   UNL     1      49.971   7.749  15.206  0.00  0.00    +0.000 C 
ATOM     18  O   UNL     1      49.928   8.974  15.268  0.00  0.00    +0.000 OA
ATOM     19  N   UNL     1      49.707   7.090  14.034  0.00  0.00    +0.000 N 
ATOM     20  H   UNL     1      49.784   6.082  13.982  0.00  0.00    +0.000 HD
BRANCH  17  28
ATOM     21  C   UNL     1      48.526   4.950  16.615  0.00  0.00    +0.000 A 
ATOM     22  N   UNL     1      48.136   3.930  17.406  0.00  0.00    +0.000 NA
ATOM     23  C   UNL     1      48.833   3.693  18.520  0.00  0.00    +0.000 A 
ATOM     24  N   UNL     1      49.905   4.353  18.949  0.00  0.00    +0.000 NA
ATOM     25  C   UNL     1      50.256   5.366  18.140  0.00  0.00    +0.000 A 
ATOM     26  S   UNL     1      51.612   6.311  18.530  0.00  0.00    +0.000 S 
ATOM     27  C   UNL     1      51.382   7.289  17.161  0.00  0.00    +0.000 A 
ATOM     28  C   UNL     1      50.281   6.931  16.388  0.00  0.00    +0.000 A 
ATOM     29  C   UNL     1      49.626   5.758  16.964  0.00  0.00    +0.000 A 
BRANCH  21  31
ATOM     30  C   UNL     1      47.175   4.021  14.928  0.00  0.00    +0.000 C 
ATOM     31  O   UNL     1      47.830   5.178  15.446  0.00  0.00    +0.000 OA
ENDBRANCH  21  31
ENDBRANCH  17  28
ENDBRANCH   1  19
TORSDOF 8
ENDMDL
MODEL 6
REMARK VINA RESULT:    -6.319      4.102      9.057
REMARK INTER + INTRA:         -10.638
REMARK INTER:                  -9.650
REMARK INTRA:                  -0.988
REMARK UNBOUND:                -1.364
REMARK  Name = 
REMARK  9 active torsions:
REMARK  status: ('A' for Active; 'I' for Inactive)
REMARK    1  A    between atoms: C_1  and  O_2
REMARK    2  A    between atoms: O_2  and  C_3
REMARK    3  A    between atoms: C_10  and  C_11
REMARK    4  A    between atoms: N_13  and  C_14
REMARK    5  A    between atoms: C_14  and  C_15
REMARK    6  A    between atoms: C_18  and  N_19
REMARK    7  A    between atoms: N_19  and  C_20
REMARK    8  A    between atoms: C_20  and  C_21
REMARK    9  A    between atoms: C_21  and  N_22
REMARK                            x       y       z     vdW  Elec       q    Type
REMARK                         _______ _______ _______ _____ _____    ______ ____
ROOT
ATOM      1  C   UNL     1      47.211   3.366  16.736  0.00  0.00    +0.000 C 
ENDROOT
BRANCH   1   2
ATOM      2  C   UNL     1      48.672   3.399  17.094  0.00  0.00    +0.000 A 
ATOM      3  C   UNL     1      49.459   2.249  16.978  0.00  0.00    +0.000 A 
ATOM      4  C   UNL     1      50.831   2.292  17.256  0.00  0.00    +0.000 A 
ATOM      5  C   UNL     1      51.455   3.486  17.633  0.00  0.00    +0.000 A 
ATOM      6  C   UNL     1      50.640   4.602  17.851  0.00  0.00    +0.000 A 
ATOM      7  C   UNL     1      49.268   4.570  17.574  0.00  0.00    +0.000 A 
BRANCH   5   8
ATOM      8  N   UNL     1      52.819   3.601  17.944  0.00  0.00    +0.000 N 
ATOM      9  H   UNL     1      53.055   4.592  18.002  0.00  0.00    +0.000 HD
BRANCH   8  10
ATOM     10  C   UNL     1      53.341   2.881  19.115  0.00  0.00    +0.000 C 
BRANCH  10  11
ATOM     11  C   UNL     1      54.465   1.888  18.726  0.00  0.00    +0.000 C 
BRANCH  11  12
ATOM     12  N   UNL     1      53.944   0.537  18.422  0.00  0.00    +0.000 NA
ATOM     13  C   UNL     1      54.796  -0.526  18.981  0.00  0.00    +0.000 C 
ATOM     14  C   UNL     1      55.698  -0.972  17.849  0.00  0.00    +0.000 C 
ATOM     15  C   UNL     1      54.803  -0.854  16.635  0.00  0.00    +0.000 C 
ATOM     16  C   UNL     1      53.866   0.296  16.969  0.00  0.00    +0.000 C 
ENDBRANCH  11  12
ENDBRANCH  10  11
ENDBRANCH   8  10
ENDBRANCH   5   8
ENDBRANCH   1   2
BRANCH   1  19
ATOM     17  C   UNL     1      46.844   4.252  14.481  0.00  0.00    +0.000 C 
ATOM     18  O   UNL     1      47.138   3.170  13.984  0.00  0.00    +0.000 OA
ATOM     19  N   UNL     1      46.863   4.436  15.840  0.00  0.00    +0.000 N 
ATOM     20  H   UNL     1      46.658   5.342  16.238  0.00  0.00    +0.000 HD
BRANCH  17  28
ATOM     21  C   UNL     1      43.985   4.995  12.700  0.00  0.00    +0.000 A 
ATOM     22  N   UNL     1      43.043   5.499  11.876  0.00  0.00    +0.000 NA
ATOM     23  C   UNL     1      43.298   6.658  11.262  0.00  0.00    +0.000 A 
ATOM     24  N   UNL     1      44.394   7.401  11.378  0.00  0.00    +0.000 NA
ATOM     25  C   UNL     1      45.311   6.860  12.199  0.00  0.00    +0.000 A 
ATOM     26  S   UNL     1      46.770   7.682  12.473  0.00  0.00    +0.000 S 
ATOM     27  C   UNL     1      47.327   6.448  13.498  0.00  0.00    +0.000 A 
ATOM     28  C   UNL     1      46.433   5.392  13.650  0.00  0.00    +0.000 A 
ATOM     29  C   UNL     1      45.211   5.658  12.892  0.00  0.00    +0.000 A 
BRANCH  21  31
ATOM     30  C   UNL     1      43.708   2.665  12.519  0.00  0.00    +0.000 C 
ATOM     31  O   UNL     1      43.713   3.816  13.363  0.00  0.00    +0.000 OA
ENDBRANCH  21  31
ENDBRANCH  17  28
ENDBRANCH   1  19
TORSDOF 8
ENDMDL
MODEL 7
REMARK VINA RESULT:    -6.154      2.341      3.567
REMARK INTER + INTRA:         -10.396
REMARK INTER:                  -9.301
REMARK INTRA:                  -1.095
REMARK UNBOUND:                -1.364
REMARK  Name = 
REMARK  9 active torsions:
REMARK  status: ('A' for Active; 'I' for Inactive)
REMARK    1  A    between atoms: C_1  and  O_2
REMARK    2  A    between atoms: O_2  and  C_3
REMARK    3  A    between atoms: C_10  and  C_11
REMARK    4  A    between atoms: N_13  and  C_14
REMARK    5  A    between atoms: C_14  and  C_15
REMARK    6  A    between atoms: C_18  and  N_19
REMARK    7  A    between atoms: N_19  and  C_20
REMARK    8  A    between atoms: C_20  and  C_21
REMARK    9  A    between atoms: C_21  and  N_22
REMARK                            x       y       z     vdW  Elec       q    Type
REMARK                         _______ _______ _______ _____ _____    ______ ____
ROOT
ATOM      1  C   UNL     1      47.148   4.131  15.517  0.00  0.00    +0.000 C 
ENDROOT
BRANCH   1   2
ATOM      2  C   UNL     1      46.703   4.606  14.161  0.00  0.00    +0.000 A 
ATOM      3  C   UNL     1      47.128   5.843  13.667  0.00  0.00    +0.000 A 
ATOM      4  C   UNL     1      46.762   6.263  12.382  0.00  0.00    +0.000 A 
ATOM      5  C   UNL     1      45.983   5.450  11.551  0.00  0.00    +0.000 A 
ATOM      6  C   UNL     1      45.474   4.266  12.095  0.00  0.00    +0.000 A 
ATOM      7  C   UNL     1      45.836   3.837  13.378  0.00  0.00    +0.000 A 
BRANCH   5   8
ATOM      8  N   UNL     1      45.562   5.809  10.260  0.00  0.00    +0.000 N 
ATOM      9  H   UNL     1      46.306   6.347   9.816  0.00  0.00    +0.000 HD
BRANCH   8  10
ATOM     10  C   UNL     1      45.080   4.756   9.354  0.00  0.00    +0.000 C 
BRANCH  10  11
ATOM     11  C   UNL     1      46.075   4.492   8.197  0.00  0.00    +0.000 C 
BRANCH  11  12
ATOM     12  N   UNL     1      45.661   3.352   7.347  0.00  0.00    +0.000 NA
ATOM     13  C   UNL     1      45.755   2.067   8.060  0.00  0.00    +0.000 C 
ATOM     14  C   UNL     1      47.086   1.466   7.657  0.00  0.00    +0.000 C 
ATOM     15  C   UNL     1      47.229   1.897   6.213  0.00  0.00    +0.000 C 
ATOM     16  C   UNL     1      46.507   3.232   6.145  0.00  0.00    +0.000 C 
ENDBRANCH  11  12
ENDBRANCH  10  11
ENDBRANCH   8  10
ENDBRANCH   5   8
ENDBRANCH   1   2
BRANCH   1  19
ATOM     17  C   UNL     1      47.641   5.403  17.551  0.00  0.00    +0.000 C 
ATOM     18  O   UNL     1      46.797   4.770  18.178  0.00  0.00    +0.000 OA
ATOM     19  N   UNL     1      47.871   5.153  16.224  0.00  0.00    +0.000 N 
ATOM     20  H   UNL     1      48.540   5.707  15.705  0.00  0.00    +0.000 HD
BRANCH  17  28
ATOM     21  C   UNL     1      51.040   5.937  17.806  0.00  0.00    +0.000 A 
ATOM     22  N   UNL     1      52.286   6.343  18.124  0.00  0.00    +0.000 NA
ATOM     23  C   UNL     1      52.419   7.419  18.904  0.00  0.00    +0.000 A 
ATOM     24  N   UNL     1      51.443   8.167  19.409  0.00  0.00    +0.000 NA
ATOM     25  C   UNL     1      50.218   7.725  19.078  0.00  0.00    +0.000 A 
ATOM     26  S   UNL     1      48.852   8.569  19.628  0.00  0.00    +0.000 S 
ATOM     27  C   UNL     1      47.807   7.464  18.873  0.00  0.00    +0.000 A 
ATOM     28  C   UNL     1      48.461   6.437  18.198  0.00  0.00    +0.000 A 
ATOM     29  C   UNL     1      49.909   6.615  18.299  0.00  0.00    +0.000 A 
BRANCH  21  31
ATOM     30  C   UNL     1      50.916   3.592  17.654  0.00  0.00    +0.000 C 
ATOM     31  O   UNL     1      50.897   4.846  16.972  0.00  0.00    +0.000 OA
ENDBRANCH  21  31
ENDBRANCH  17  28
ENDBRANCH   1  19
TORSDOF 8
ENDMDL
MODEL 8
REMARK VINA RESULT:    -6.125      3.488      8.644
REMARK INTER + INTRA:         -10.353
REMARK INTER:                  -9.076
REMARK INTRA:                  -1.278
REMARK UNBOUND:                -1.364
REMARK  Name = 
REMARK  9 active torsions:
REMARK  status: ('A' for Active; 'I' for Inactive)
REMARK    1  A    between atoms: C_1  and  O_2
REMARK    2  A    between atoms: O_2  and  C_3
REMARK    3  A    between atoms: C_10  and  C_11
REMARK    4  A    between atoms: N_13  and  C_14
REMARK    5  A    between atoms: C_14  and  C_15
REMARK    6  A    between atoms: C_18  and  N_19
REMARK    7  A    between atoms: N_19  and  C_20
REMARK    8  A    between atoms: C_20  and  C_21
REMARK    9  A    between atoms: C_21  and  N_22
REMARK                            x       y       z     vdW  Elec       q    Type
REMARK                         _______ _______ _______ _____ _____    ______ ____
ROOT
ATOM      1  C   UNL     1      47.461   3.169  16.909  0.00  0.00    +0.000 C 
ENDROOT
BRANCH   1   2
ATOM      2  C   UNL     1      48.907   3.176  17.324  0.00  0.00    +0.000 A 
ATOM      3  C   UNL     1      49.753   2.121  16.967  0.00  0.00    +0.000 A 
ATOM      4  C   UNL     1      51.113   2.153  17.302  0.00  0.00    +0.000 A 
ATOM      5  C   UNL     1      51.665   3.245  17.980  0.00  0.00    +0.000 A 
ATOM      6  C   UNL     1      50.789   4.241  18.426  0.00  0.00    +0.000 A 
ATOM      7  C   UNL     1      49.429   4.219  18.094  0.00  0.00    +0.000 A 
BRANCH   5   8
ATOM      8  N   UNL     1      53.012   3.339  18.364  0.00  0.00    +0.000 N 
ATOM      9  H   UNL     1      53.559   2.704  17.784  0.00  0.00    +0.000 HD
BRANCH   8  10
ATOM     10  C   UNL     1      53.644   4.666  18.409  0.00  0.00    +0.000 C 
BRANCH  10  11
ATOM     11  C   UNL     1      54.126   5.122  17.008  0.00  0.00    +0.000 C 
BRANCH  11  12
ATOM     12  N   UNL     1      53.994   6.583  16.815  0.00  0.00    +0.000 NA
ATOM     13  C   UNL     1      52.767   7.116  17.430  0.00  0.00    +0.000 C 
ATOM     14  C   UNL     1      51.748   7.203  16.313  0.00  0.00    +0.000 C 
ATOM     15  C   UNL     1      52.590   7.583  15.115  0.00  0.00    +0.000 C 
ATOM     16  C   UNL     1      53.941   6.943  15.386  0.00  0.00    +0.000 C 
ENDBRANCH  11  12
ENDBRANCH  10  11
ENDBRANCH   8  10
ENDBRANCH   5   8
ENDBRANCH   1   2
BRANCH   1  19
ATOM     17  C   UNL     1      47.099   4.166  14.700  0.00  0.00    +0.000 C 
ATOM     18  O   UNL     1      47.333   3.093  14.153  0.00  0.00    +0.000 OA
ATOM     19  N   UNL     1      47.149   4.291  16.065  0.00  0.00    +0.000 N 
ATOM     20  H   UNL     1      46.994   5.188  16.504  0.00  0.00    +0.000 HD
BRANCH  17  28
ATOM     21  C   UNL     1      44.388   4.978  12.727  0.00  0.00    +0.000 A 
ATOM     22  N   UNL     1      43.509   5.523  11.861  0.00  0.00    +0.000 NA
ATOM     23  C   UNL     1      43.782   6.732  11.364  0.00  0.00    +0.000 A 
ATOM     24  N   UNL     1      44.839   7.490  11.636  0.00  0.00    +0.000 NA
ATOM     25  C   UNL     1      45.695   6.908  12.493  0.00  0.00    +0.000 A 
ATOM     26  S   UNL     1      47.098   7.741  12.963  0.00  0.00    +0.000 S 
ATOM     27  C   UNL     1      47.599   6.443  13.936  0.00  0.00    +0.000 A 
ATOM     28  C   UNL     1      46.728   5.358  13.925  0.00  0.00    +0.000 A 
ATOM     29  C   UNL     1      45.572   5.653  13.080  0.00  0.00    +0.000 A 
BRANCH  21  31
ATOM     30  C   UNL     1      43.533   2.821  12.338  0.00  0.00    +0.000 C 
ATOM     31  O   UNL     1      44.095   3.743  13.270  0.00  0.00    +0.000 OA
ENDBRANCH  21  31
ENDBRANCH  17  28
ENDBRANCH   1  19
TORSDOF 8
ENDMDL
MODEL 9
REMARK VINA RESULT:    -5.962      3.737      9.048
REMARK INTER + INTRA:         -10.115
REMARK INTER:                  -7.951
REMARK INTRA:                  -2.164
REMARK UNBOUND:                -1.364
REMARK  Name = 
REMARK  9 active torsions:
REMARK  status: ('A' for Active; 'I' for Inactive)
REMARK    1  A    between atoms: C_1  and  O_2
REMARK    2  A    between atoms: O_2  and  C_3
REMARK    3  A    between atoms: C_10  and  C_11
REMARK    4  A    between atoms: N_13  and  C_14
REMARK    5  A    between atoms: C_14  and  C_15
REMARK    6  A    between atoms: C_18  and  N_19
REMARK    7  A    between atoms: N_19  and  C_20
REMARK    8  A    between atoms: C_20  and  C_21
REMARK    9  A    between atoms: C_21  and  N_22
REMARK                            x       y       z     vdW  Elec       q    Type
REMARK                         _______ _______ _______ _____ _____    ______ ____
ROOT
ATOM      1  C   UNL     1      47.575   4.049  16.384  0.00  0.00    +0.000 C 
ENDROOT
BRANCH   1   2
ATOM      2  C   UNL     1      48.069   4.952  17.480  0.00  0.00    +0.000 A 
ATOM      3  C   UNL     1      47.189   5.436  18.453  0.00  0.00    +0.000 A 
ATOM      4  C   UNL     1      47.657   6.230  19.508  0.00  0.00    +0.000 A 
ATOM      5  C   UNL     1      49.016   6.541  19.629  0.00  0.00    +0.000 A 
ATOM      6  C   UNL     1      49.867   6.145  18.592  0.00  0.00    +0.000 A 
ATOM      7  C   UNL     1      49.408   5.349  17.536  0.00  0.00    +0.000 A 
BRANCH   5   8
ATOM      8  N   UNL     1      49.555   7.345  20.646  0.00  0.00    +0.000 N 
ATOM      9  H   UNL     1      50.227   6.790  21.176  0.00  0.00    +0.000 HD
BRANCH   8  10
ATOM     10  C   UNL     1      50.138   8.646  20.286  0.00  0.00    +0.000 C 
BRANCH  10  11
ATOM     11  C   UNL     1      49.053   9.742  20.136  0.00  0.00    +0.000 C 
BRANCH  11  12
ATOM     12  N   UNL     1      49.124  10.430  18.828  0.00  0.00    +0.000 NA
ATOM     13  C   UNL     1      47.857  10.338  18.083  0.00  0.00    +0.000 C 
ATOM     14  C   UNL     1      48.027   9.181  17.119  0.00  0.00    +0.000 C 
ATOM     15  C   UNL     1      49.486   9.275  16.731  0.00  0.00    +0.000 C 
ATOM     16  C   UNL     1      50.167   9.850  17.962  0.00  0.00    +0.000 C 
ENDBRANCH  11  12
ENDBRANCH  10  11
ENDBRANCH   8  10
ENDBRANCH   5   8
ENDBRANCH   1   2
BRANCH   1  19
ATOM     17  C   UNL     1      46.688   4.296  14.113  0.00  0.00    +0.000 C 
ATOM     18  O   UNL     1      47.182   3.223  13.779  0.00  0.00    +0.000 OA
ATOM     19  N   UNL     1      46.842   4.781  15.386  0.00  0.00    +0.000 N 
ATOM     20  H   UNL     1      46.465   5.684  15.640  0.00  0.00    +0.000 HD
BRANCH  17  28
ATOM     21  C   UNL     1      46.714   7.618  13.184  0.00  0.00    +0.000 A 
ATOM     22  N   UNL     1      46.451   8.850  12.701  0.00  0.00    +0.000 NA
ATOM     23  C   UNL     1      45.426   8.990  11.857  0.00  0.00    +0.000 A 
ATOM     24  N   UNL     1      44.617   8.034  11.413  0.00  0.00    +0.000 NA
ATOM     25  C   UNL     1      44.905   6.824  11.924  0.00  0.00    +0.000 A 
ATOM     26  S   UNL     1      43.979   5.481  11.455  0.00  0.00    +0.000 S 
ATOM     27  C   UNL     1      44.877   4.451  12.465  0.00  0.00    +0.000 A 
ATOM     28  C   UNL     1      45.885   5.095  13.176  0.00  0.00    +0.000 A 
ATOM     29  C   UNL     1      45.917   6.514  12.826  0.00  0.00    +0.000 A 
BRANCH  21  31
ATOM     30  C   UNL     1      49.013   7.149  13.358  0.00  0.00    +0.000 C 
ATOM     31  O   UNL     1      47.793   7.461  14.030  0.00  0.00    +0.000 OA
ENDBRANCH  21  31
ENDBRANCH  17  28
ENDBRANCH   1  19
TORSDOF 8
ENDMDL
