MODEL 1
REMARK VINA RESULT:    -8.547      0.000      0.000
REMARK INTER + INTRA:         -13.284
REMARK INTER:                 -12.045
REMARK INTRA:                  -1.239
REMARK UNBOUND:                -1.239
REMARK  Name = 
REMARK  8 active torsions:
REMARK  status: ('A' for Active; 'I' for Inactive)
REMARK    1  A    between atoms: C_1  and  C_2
REMARK    2  A    between atoms: C_2  and  N_3
REMARK    3  A    between atoms: C_2  and  C_25
REMARK    4  A    between atoms: N_3  and  C_4
REMARK    5  A    between atoms: C_4  and  C_5
REMARK    6  A    between atoms: C_8  and  C_9
REMARK    7  A    between atoms: C_9  and  N_10
REMARK    8  A    between atoms: C_11  and  C_13
REMARK                            x       y       z     vdW  Elec       q    Type
REMARK                         _______ _______ _______ _____ _____    ______ ____
ROOT
ATOM      1  C   UNL     1      44.707   5.923  11.090  0.00  0.00    +0.000 A 
ATOM      2  C   UNL     1      44.317   7.197  11.526  0.00  0.00    +0.000 A 
ATOM      3  C   UNL     1      45.175   7.980  12.306  0.00  0.00    +0.000 A 
ATOM      4  C   UNL     1      46.443   7.505  12.667  0.00  0.00    +0.000 A 
ATOM      5  C   UNL     1      46.831   6.229  12.241  0.00  0.00    +0.000 A 
ATOM      6  C   UNL     1      45.977   5.451  11.455  0.00  0.00    +0.000 A 
ENDROOT
BRANCH   1   7
ATOM      7  C   UNL     1      43.767   5.032  10.307  0.00  0.00    +0.000 C 
BRANCH   7   8
ATOM      8  N   UNL     1      44.358   4.550   9.061  0.00  0.00    +0.000 NA
ATOM      9  H   UNL     1      43.804   4.904   8.280  0.00  0.00    +0.000 HD
BRANCH   8  11
ATOM     10  C   UNL     1      44.280   2.380  10.322  0.00  0.00    +0.000 C 
ATOM     11  C   UNL     1      44.351   3.074   8.955  0.00  0.00    +0.000 C 
BRANCH  11  12
ATOM     12  C   UNL     1      45.586   2.590   8.192  0.00  0.00    +0.000 A 
ATOM     13  C   UNL     1      46.288   3.460   7.355  0.00  0.00    +0.000 A 
ATOM     14  C   UNL     1      47.399   2.989   6.664  0.00  0.00    +0.000 A 
ATOM     15  C   UNL     1      47.779   1.663   6.814  0.00  0.00    +0.000 A 
ATOM     16  C   UNL     1      47.028   0.859   7.655  0.00  0.00    +0.000 A 
ATOM     17  N   UNL     1      45.945   1.288   8.343  0.00  0.00    +0.000 NA
ENDBRANCH  11  12
ENDBRANCH   8  11
ENDBRANCH   7   8
ENDBRANCH   1   7
BRANCH   4  18
ATOM     18  C   UNL     1      47.354   8.317  13.549  0.00  0.00    +0.000 C 
BRANCH  18  19
ATOM     19  N   UNL     1      47.682   7.596  14.754  0.00  0.00    +0.000 N 
ATOM     20  C   UNL     1      48.884   6.953  14.892  0.00  0.00    +0.000 C 
ATOM     21  O   UNL     1      49.751   7.001  14.024  0.00  0.00    +0.000 OA
ATOM     22  H   UNL     1      46.911   7.356  15.370  0.00  0.00    +0.000 HD
BRANCH  20  23
ATOM     23  C   UNL     1      49.110   6.248  16.160  0.00  0.00    +0.000 A 
ATOM     24  C   UNL     1      50.091   6.703  17.032  0.00  0.00    +0.000 A 
ATOM     25  S   UNL     1      50.206   5.795  18.469  0.00  0.00    +0.000 S 
ATOM     26  C   UNL     1      48.980   4.732  17.959  0.00  0.00    +0.000 A 
ATOM     27  N   UNL     1      48.602   3.678  18.734  0.00  0.00    +0.000 NA
ATOM     28  C   UNL     1      47.679   2.939  18.215  0.00  0.00    +0.000 A 
ATOM     29  N   UNL     1      47.095   3.164  16.995  0.00  0.00    +0.000 N 
ATOM     30  C   UNL     1      47.423   4.226  16.191  0.00  0.00    +0.000 A 
ATOM     31  O   UNL     1      46.849   4.419  15.125  0.00  0.00    +0.000 OA
ATOM     32  C   UNL     1      48.471   5.082  16.721  0.00  0.00    +0.000 A 
ATOM     33  H   UNL     1      46.367   2.552  16.652  0.00  0.00    +0.000 HD
ENDBRANCH  20  23
ENDBRANCH  18  19
ENDBRANCH   4  18
TORSDOF 7
ENDMDL
MODEL 2
REMARK VINA RESULT:    -8.017      1.684      2.059
REMARK INTER + INTRA:         -12.537
REMARK INTER:                 -11.611
REMARK INTRA:                  -0.926
REMARK UNBOUND:                -1.239
REMARK  Name = 
REMARK  8 active torsions:
REMARK  status: ('A' for Active; 'I' for Inactive)
REMARK    1  A    between atoms: C_1  and  C_2
REMARK    2  A    between atoms: C_2  and  N_3
REMARK    3  A    between atoms: C_2  and  C_25
REMARK    4  A    between atoms: N_3  and  C_4
REMARK    5  A    between atoms: C_4  and  C_5
REMARK    6  A    between atoms: C_8  and  C_9
REMARK    7  A    between atoms: C_9  and  N_10
REMARK    8  A    between atoms: C_11  and  C_13
REMARK                            x       y       z     vdW  Elec       q    Type
REMARK                         _______ _______ _______ _____ _____    ______ ____
ROOT
ATOM      1  C   UNL     1      45.087   5.514  11.551  0.00  0.00    +0.000 A 
ATOM      2  C   UNL     1      45.251   4.982  12.838  0.00  0.00    +0.000 A 
ATOM      3  C   UNL     1      46.364   5.323  13.615  0.00  0.00    +0.000 A 
ATOM      4  C   UNL     1      47.337   6.203  13.122  0.00  0.00    +0.000 A 
ATOM      5  C   UNL     1      47.179   6.727  11.834  0.00  0.00    +0.000 A 
ATOM      6  C   UNL     1      46.064   6.393  11.061  0.00  0.00    +0.000 A 
ENDROOT
BRANCH   1   7
ATOM      7  C   UNL     1      43.930   5.101  10.667  0.00  0.00    +0.000 C 
BRANCH   7   8
ATOM      8  N   UNL     1      44.361   4.702   9.329  0.00  0.00    +0.000 NA
ATOM      9  H   UNL     1      43.747   5.145   8.644  0.00  0.00    +0.000 HD
BRANCH   8  11
ATOM     10  C   UNL     1      44.146   2.448  10.414  0.00  0.00    +0.000 C 
ATOM     11  C   UNL     1      44.264   3.242   9.106  0.00  0.00    +0.000 C 
BRANCH  11  12
ATOM     12  C   UNL     1      45.471   2.746   8.306  0.00  0.00    +0.000 A 
ATOM     13  C   UNL     1      46.146   3.604   7.435  0.00  0.00    +0.000 A 
ATOM     14  C   UNL     1      47.231   3.122   6.711  0.00  0.00    +0.000 A 
ATOM     15  C   UNL     1      47.613   1.797   6.864  0.00  0.00    +0.000 A 
ATOM     16  C   UNL     1      46.891   1.005   7.741  0.00  0.00    +0.000 A 
ATOM     17  N   UNL     1      45.833   1.446   8.461  0.00  0.00    +0.000 NA
ENDBRANCH  11  12
ENDBRANCH   8  11
ENDBRANCH   7   8
ENDBRANCH   1   7
BRANCH   4  18
ATOM     18  C   UNL     1      48.563   6.537  13.929  0.00  0.00    +0.000 C 
BRANCH  18  19
ATOM     19  N   UNL     1      48.233   6.706  15.322  0.00  0.00    +0.000 N 
ATOM     20  C   UNL     1      49.192   6.601  16.296  0.00  0.00    +0.000 C 
ATOM     21  O   UNL     1      50.374   6.410  16.027  0.00  0.00    +0.000 OA
ATOM     22  H   UNL     1      47.252   6.635  15.575  0.00  0.00    +0.000 HD
BRANCH  20  23
ATOM     23  C   UNL     1      48.742   6.788  17.682  0.00  0.00    +0.000 A 
ATOM     24  C   UNL     1      48.380   8.056  18.119  0.00  0.00    +0.000 A 
ATOM     25  S   UNL     1      47.856   8.098  19.740  0.00  0.00    +0.000 S 
ATOM     26  C   UNL     1      48.138   6.431  19.930  0.00  0.00    +0.000 A 
ATOM     27  N   UNL     1      47.915   5.817  21.126  0.00  0.00    +0.000 NA
ATOM     28  C   UNL     1      48.194   4.556  21.137  0.00  0.00    +0.000 A 
ATOM     29  N   UNL     1      48.668   3.854  20.059  0.00  0.00    +0.000 N 
ATOM     30  C   UNL     1      48.882   4.421  18.829  0.00  0.00    +0.000 A 
ATOM     31  O   UNL     1      49.266   3.752  17.876  0.00  0.00    +0.000 OA
ATOM     32  C   UNL     1      48.600   5.846  18.766  0.00  0.00    +0.000 A 
ATOM     33  H   UNL     1      48.855   2.862  20.132  0.00  0.00    +0.000 HD
ENDBRANCH  20  23
ENDBRANCH  18  19
ENDBRANCH   4  18
TORSDOF 7
ENDMDL
MODEL 3
REMARK VINA RESULT:    -7.924      2.226      2.848
REMARK INTER + INTRA:         -12.406
REMARK INTER:                 -11.248
REMARK INTRA:                  -1.158
REMARK UNBOUND:                -1.239
REMARK  Name = 
REMARK  8 active torsions:
REMARK  status: ('A' for Active; 'I' for Inactive)
REMARK    1  A    between atoms: C_1  and  C_2
REMARK    2  A    between atoms: C_2  and  N_3
REMARK    3  A    between atoms: C_2  and  C_25
REMARK    4  A    between atoms: N_3  and  C_4
REMARK    5  A    between atoms: C_4  and  C_5
REMARK    6  A    between atoms: C_8  and  C_9
REMARK    7  A    between atoms: C_9  and  N_10
REMARK    8  A    between atoms: C_11  and  C_13
REMARK                            x       y       z     vdW  Elec       q    Type
REMARK                         _______ _______ _______ _____ _____    ______ ____
ROOT
ATOM      1  C   UNL     1      45.382   5.570  11.634  0.00  0.00    +0.000 A 
ATOM      2  C   UNL     1      45.613   4.941  12.866  0.00  0.00    +0.000 A 
ATOM      3  C   UNL     1      46.676   5.340  13.684  0.00  0.00    +0.000 A 
ATOM      4  C   UNL     1      47.532   6.376  13.286  0.00  0.00    +0.000 A 
ATOM      5  C   UNL     1      47.310   6.998  12.053  0.00  0.00    +0.000 A 
ATOM      6  C   UNL     1      46.242   6.606  11.240  0.00  0.00    +0.000 A 
ENDROOT
BRANCH   1   7
ATOM      7  C   UNL     1      44.283   5.106  10.703  0.00  0.00    +0.000 C 
BRANCH   7   8
ATOM      8  N   UNL     1      44.789   4.713   9.390  0.00  0.00    +0.000 NA
ATOM      9  H   UNL     1      44.347   5.301   8.682  0.00  0.00    +0.000 HD
BRANCH   8  11
ATOM     10  C   UNL     1      44.190   2.443  10.280  0.00  0.00    +0.000 C 
ATOM     11  C   UNL     1      44.464   3.311   9.044  0.00  0.00    +0.000 C 
BRANCH  11  12
ATOM     12  C   UNL     1      45.592   2.693   8.216  0.00  0.00    +0.000 A 
ATOM     13  C   UNL     1      46.251   3.445   7.241  0.00  0.00    +0.000 A 
ATOM     14  C   UNL     1      47.264   2.852   6.495  0.00  0.00    +0.000 A 
ATOM     15  C   UNL     1      47.591   1.524   6.730  0.00  0.00    +0.000 A 
ATOM     16  C   UNL     1      46.889   0.842   7.708  0.00  0.00    +0.000 A 
ATOM     17  N   UNL     1      45.901   1.391   8.452  0.00  0.00    +0.000 NA
ENDBRANCH  11  12
ENDBRANCH   8  11
ENDBRANCH   7   8
ENDBRANCH   1   7
BRANCH   4  18
ATOM     18  C   UNL     1      48.710   6.779  14.134  0.00  0.00    +0.000 C 
BRANCH  18  19
ATOM     19  N   UNL     1      48.377   6.728  15.536  0.00  0.00    +0.000 N 
ATOM     20  C   UNL     1      49.306   6.356  16.473  0.00  0.00    +0.000 C 
ATOM     21  O   UNL     1      50.468   6.100  16.171  0.00  0.00    +0.000 OA
ATOM     22  H   UNL     1      47.390   6.710  15.774  0.00  0.00    +0.000 HD
BRANCH  20  23
ATOM     23  C   UNL     1      48.856   6.337  17.871  0.00  0.00    +0.000 A 
ATOM     24  C   UNL     1      48.932   5.156  18.598  0.00  0.00    +0.000 A 
ATOM     25  S   UNL     1      48.399   5.308  20.210  0.00  0.00    +0.000 S 
ATOM     26  C   UNL     1      48.005   6.947  19.980  0.00  0.00    +0.000 A 
ATOM     27  N   UNL     1      47.458   7.682  20.989  0.00  0.00    +0.000 NA
ATOM     28  C   UNL     1      47.186   8.903  20.671  0.00  0.00    +0.000 A 
ATOM     29  N   UNL     1      47.416   9.457  19.438  0.00  0.00    +0.000 N 
ATOM     30  C   UNL     1      47.988   8.766  18.401  0.00  0.00    +0.000 A 
ATOM     31  O   UNL     1      48.220   9.307  17.325  0.00  0.00    +0.000 OA
ATOM     32  C   UNL     1      48.300   7.379  18.700  0.00  0.00    +0.000 A 
ATOM     33  H   UNL     1      47.190  10.426  19.259  0.00  0.00    +0.000 HD
ENDBRANCH  20  23
ENDBRANCH  18  19
ENDBRANCH   4  18
TORSDOF 7
ENDMDL
MODEL 4
REMARK VINA RESULT:    -7.214      2.877      8.385
REMARK INTER + INTRA:         -11.405
REMARK INTER:                  -9.719
REMARK INTRA:                  -1.687
REMARK UNBOUND:                -1.239
REMARK  Name = 
REMARK  8 active torsions:
REMARK  status: ('A' for Active; 'I' for Inactive)
REMARK    1  A    between atoms: C_1  and  C_2
REMARK    2  A    between atoms: C_2  and  N_3
REMARK    3  A    between atoms: C_2  and  C_25
REMARK    4  A    between atoms: N_3  and  C_4
REMARK    5  A    between atoms: C_4  and  C_5
REMARK    6  A    between atoms: C_8  and  C_9
REMARK    7  A    between atoms: C_9  and  N_10
REMARK    8  A    between atoms: C_11  and  C_13
REMARK                            x       y       z     vdW  Elec       q    Type
REMARK                         _______ _______ _______ _____ _____    ______ ____
ROOT
ATOM      1  C   UNL     1      48.769   7.805  16.088  0.00  0.00    +0.000 A 
ATOM      2  C   UNL     1      48.994   6.674  15.290  0.00  0.00    +0.000 A 
ATOM      3  C   UNL     1      48.592   6.654  13.950  0.00  0.00    +0.000 A 
ATOM      4  C   UNL     1      47.956   7.765  13.379  0.00  0.00    +0.000 A 
ATOM      5  C   UNL     1      47.723   8.891  14.177  0.00  0.00    +0.000 A 
ATOM      6  C   UNL     1      48.132   8.914  15.513  0.00  0.00    +0.000 A 
ENDROOT
BRANCH   1   7
ATOM      7  C   UNL     1      49.131   7.820  17.558  0.00  0.00    +0.000 C 
BRANCH   7   8
ATOM      8  N   UNL     1      47.980   7.566  18.421  0.00  0.00    +0.000 NA
ATOM      9  H   UNL     1      47.839   8.378  19.023  0.00  0.00    +0.000 HD
BRANCH   8  11
ATOM     10  C   UNL     1      49.404   6.552  20.223  0.00  0.00    +0.000 C 
ATOM     11  C   UNL     1      48.176   6.402  19.314  0.00  0.00    +0.000 C 
BRANCH  11  12
ATOM     12  C   UNL     1      48.294   5.117  18.493  0.00  0.00    +0.000 A 
ATOM     13  C   UNL     1      47.195   4.625  17.784  0.00  0.00    +0.000 A 
ATOM     14  C   UNL     1      47.327   3.446  17.057  0.00  0.00    +0.000 A 
ATOM     15  C   UNL     1      48.546   2.781  17.060  0.00  0.00    +0.000 A 
ATOM     16  C   UNL     1      49.586   3.327  17.793  0.00  0.00    +0.000 A 
ATOM     17  N   UNL     1      49.490   4.472  18.507  0.00  0.00    +0.000 NA
ENDBRANCH  11  12
ENDBRANCH   8  11
ENDBRANCH   7   8
ENDBRANCH   1   7
BRANCH   4  18
ATOM     18  C   UNL     1      47.474   7.735  11.953  0.00  0.00    +0.000 C 
BRANCH  18  19
ATOM     19  N   UNL     1      46.793   6.497  11.665  0.00  0.00    +0.000 N 
ATOM     20  C   UNL     1      45.429   6.400  11.753  0.00  0.00    +0.000 C 
ATOM     21  O   UNL     1      44.724   7.367  12.030  0.00  0.00    +0.000 OA
ATOM     22  H   UNL     1      47.357   5.653  11.661  0.00  0.00    +0.000 HD
BRANCH  20  23
ATOM     23  C   UNL     1      44.843   5.091  11.440  0.00  0.00    +0.000 A 
ATOM     24  C   UNL     1      44.087   4.431  12.400  0.00  0.00    +0.000 A 
ATOM     25  S   UNL     1      43.455   2.939  11.870  0.00  0.00    +0.000 S 
ATOM     26  C   UNL     1      44.208   3.100  10.352  0.00  0.00    +0.000 A 
ATOM     27  N   UNL     1      44.091   2.124   9.409  0.00  0.00    +0.000 NA
ATOM     28  C   UNL     1      44.733   2.363   8.314  0.00  0.00    +0.000 A 
ATOM     29  N   UNL     1      45.474   3.492   8.076  0.00  0.00    +0.000 N 
ATOM     30  C   UNL     1      45.599   4.512   8.984  0.00  0.00    +0.000 A 
ATOM     31  O   UNL     1      46.235   5.527   8.719  0.00  0.00    +0.000 OA
ATOM     32  C   UNL     1      44.909   4.287  10.243  0.00  0.00    +0.000 A 
ATOM     33  H   UNL     1      45.942   3.623   7.189  0.00  0.00    +0.000 HD
ENDBRANCH  20  23
ENDBRANCH  18  19
ENDBRANCH   4  18
TORSDOF 7
ENDMDL
MODEL 5
REMARK VINA RESULT:    -7.175      3.188      7.934
REMARK INTER + INTRA:         -11.351
REMARK INTER:                  -9.728
REMARK INTRA:                  -1.623
REMARK UNBOUND:                -1.239
REMARK  Name = 
REMARK  8 active torsions:
REMARK  status: ('A' for Active; 'I' for Inactive)
REMARK    1  A    between atoms: C_1  and  C_2
REMARK    2  A    between atoms: C_2  and  N_3
REMARK    3  A    between atoms: C_2  and  C_25
REMARK    4  A    between atoms: N_3  and  C_4
REMARK    5  A    between atoms: C_4  and  C_5
REMARK    6  A    between atoms: C_8  and  C_9
REMARK    7  A    between atoms: C_9  and  N_10
REMARK    8  A    between atoms: C_11  and  C_13
REMARK                            x       y       z     vdW  Elec       q    Type
REMARK                         _______ _______ _______ _____ _____    ______ ____
ROOT
ATOM      1  C   UNL     1      48.737   7.672  16.320  0.00  0.00    +0.000 A 
ATOM      2  C   UNL     1      49.018   6.635  15.419  0.00  0.00    +0.000 A 
ATOM      3  C   UNL     1      48.850   6.819  14.042  0.00  0.00    +0.000 A 
ATOM      4  C   UNL     1      48.396   8.044  13.537  0.00  0.00    +0.000 A 
ATOM      5  C   UNL     1      48.106   9.077  14.435  0.00  0.00    +0.000 A 
ATOM      6  C   UNL     1      48.283   8.896  15.809  0.00  0.00    +0.000 A 
ENDROOT
BRANCH   1   7
ATOM      7  C   UNL     1      48.843   7.470  17.816  0.00  0.00    +0.000 C 
BRANCH   7   8
ATOM      8  N   UNL     1      47.604   6.965  18.403  0.00  0.00    +0.000 NA
ATOM      9  H   UNL     1      47.223   7.682  19.023  0.00  0.00    +0.000 HD
BRANCH   8  11
ATOM     10  C   UNL     1      48.842   5.963  20.344  0.00  0.00    +0.000 C 
ATOM     11  C   UNL     1      47.809   5.754  19.228  0.00  0.00    +0.000 C 
BRANCH  11  12
ATOM     12  C   UNL     1      48.231   4.577  18.346  0.00  0.00    +0.000 A 
ATOM     13  C   UNL     1      47.344   4.033  17.415  0.00  0.00    +0.000 A 
ATOM     14  C   UNL     1      47.750   2.955  16.636  0.00  0.00    +0.000 A 
ATOM     15  C   UNL     1      49.026   2.437  16.809  0.00  0.00    +0.000 A 
ATOM     16  C   UNL     1      49.847   3.025  17.757  0.00  0.00    +0.000 A 
ATOM     17  N   UNL     1      49.481   4.076  18.527  0.00  0.00    +0.000 NA
ENDBRANCH  11  12
ENDBRANCH   8  11
ENDBRANCH   7   8
ENDBRANCH   1   7
BRANCH   4  18
ATOM     18  C   UNL     1      48.162   8.237  12.062  0.00  0.00    +0.000 C 
BRANCH  18  19
ATOM     19  N   UNL     1      47.514   7.084  11.487  0.00  0.00    +0.000 N 
ATOM     20  C   UNL     1      46.149   7.006  11.404  0.00  0.00    +0.000 C 
ATOM     21  O   UNL     1      45.421   7.927  11.765  0.00  0.00    +0.000 OA
ATOM     22  H   UNL     1      48.071   6.239  11.399  0.00  0.00    +0.000 HD
BRANCH  20  23
ATOM     23  C   UNL     1      45.596   5.785  10.804  0.00  0.00    +0.000 A 
ATOM     24  C   UNL     1      45.795   5.536   9.452  0.00  0.00    +0.000 A 
ATOM     25  S   UNL     1      45.118   4.066   8.918  0.00  0.00    +0.000 S 
ATOM     26  C   UNL     1      44.493   3.731  10.465  0.00  0.00    +0.000 A 
ATOM     27  N   UNL     1      43.761   2.606  10.694  0.00  0.00    +0.000 NA
ATOM     28  C   UNL     1      43.328   2.489  11.905  0.00  0.00    +0.000 A 
ATOM     29  N   UNL     1      43.569   3.392  12.909  0.00  0.00    +0.000 N 
ATOM     30  C   UNL     1      44.322   4.524  12.734  0.00  0.00    +0.000 A 
ATOM     31  O   UNL     1      44.553   5.287  13.666  0.00  0.00    +0.000 OA
ATOM     32  C   UNL     1      44.821   4.714  11.382  0.00  0.00    +0.000 A 
ATOM     33  H   UNL     1      43.210   3.233  13.841  0.00  0.00    +0.000 HD
ENDBRANCH  20  23
ENDBRANCH  18  19
ENDBRANCH   4  18
TORSDOF 7
ENDMDL
MODEL 6
REMARK VINA RESULT:    -7.033      1.781      2.359
REMARK INTER + INTRA:         -11.150
REMARK INTER:                 -10.217
REMARK INTRA:                  -0.933
REMARK UNBOUND:                -1.239
REMARK  Name = 
REMARK  8 active torsions:
REMARK  status: ('A' for Active; 'I' for Inactive)
REMARK    1  A    between atoms: C_1  and  C_2
REMARK    2  A    between atoms: C_2  and  N_3
REMARK    3  A    between atoms: C_2  and  C_25
REMARK    4  A    between atoms: N_3  and  C_4
REMARK    5  A    between atoms: C_4  and  C_5
REMARK    6  A    between atoms: C_8  and  C_9
REMARK    7  A    between atoms: C_9  and  N_10
REMARK    8  A    between atoms: C_11  and  C_13
REMARK                            x       y       z     vdW  Elec       q    Type
REMARK                         _______ _______ _______ _____ _____    ______ ____
ROOT
ATOM      1  C   UNL     1      45.684   6.645  11.504  0.00  0.00    +0.000 A 
ATOM      2  C   UNL     1      47.061   6.567  11.253  0.00  0.00    +0.000 A 
ATOM      3  C   UNL     1      47.966   7.345  11.984  0.00  0.00    +0.000 A 
ATOM      4  C   UNL     1      47.513   8.219  12.981  0.00  0.00    +0.000 A 
ATOM      5  C   UNL     1      46.138   8.305  13.227  0.00  0.00    +0.000 A 
ATOM      6  C   UNL     1      45.235   7.521  12.503  0.00  0.00    +0.000 A 
ENDROOT
BRANCH   1   7
ATOM      7  C   UNL     1      44.684   5.867  10.677  0.00  0.00    +0.000 C 
BRANCH   7   8
ATOM      8  N   UNL     1      45.288   5.259   9.493  0.00  0.00    +0.000 NA
ATOM      9  H   UNL     1      45.185   5.904   8.708  0.00  0.00    +0.000 HD
BRANCH   8  11
ATOM     10  C   UNL     1      44.210   3.141  10.301  0.00  0.00    +0.000 C 
ATOM     11  C   UNL     1      44.630   3.995   9.097  0.00  0.00    +0.000 C 
BRANCH  11  12
ATOM     12  C   UNL     1      45.549   3.182   8.181  0.00  0.00    +0.000 A 
ATOM     13  C   UNL     1      45.879   1.863   8.497  0.00  0.00    +0.000 A 
ATOM     14  C   UNL     1      46.727   1.154   7.654  0.00  0.00    +0.000 A 
ATOM     15  C   UNL     1      47.234   1.776   6.522  0.00  0.00    +0.000 A 
ATOM     16  C   UNL     1      46.867   3.089   6.279  0.00  0.00    +0.000 A 
ATOM     17  N   UNL     1      46.042   3.805   7.079  0.00  0.00    +0.000 NA
ENDBRANCH  11  12
ENDBRANCH   8  11
ENDBRANCH   7   8
ENDBRANCH   1   7
BRANCH   4  18
ATOM     18  C   UNL     1      48.472   9.098  13.738  0.00  0.00    +0.000 C 
BRANCH  18  19
ATOM     19  N   UNL     1      49.531   8.317  14.328  0.00  0.00    +0.000 N 
ATOM     20  C   UNL     1      49.524   8.007  15.663  0.00  0.00    +0.000 C 
ATOM     21  O   UNL     1      48.600   8.333  16.403  0.00  0.00    +0.000 OA
ATOM     22  H   UNL     1      50.394   8.239  13.800  0.00  0.00    +0.000 HD
BRANCH  20  23
ATOM     23  C   UNL     1      50.654   7.209  16.157  0.00  0.00    +0.000 A 
ATOM     24  C   UNL     1      51.950   7.683  15.996  0.00  0.00    +0.000 A 
ATOM     25  S   UNL     1      53.143   6.655  16.648  0.00  0.00    +0.000 S 
ATOM     26  C   UNL     1      51.973   5.515  17.127  0.00  0.00    +0.000 A 
ATOM     27  N   UNL     1      52.339   4.353  17.735  0.00  0.00    +0.000 NA
ATOM     28  C   UNL     1      51.354   3.569  18.022  0.00  0.00    +0.000 A 
ATOM     29  N   UNL     1      50.037   3.846  17.763  0.00  0.00    +0.000 N 
ATOM     30  C   UNL     1      49.617   5.014  17.179  0.00  0.00    +0.000 A 
ATOM     31  O   UNL     1      48.426   5.247  17.002  0.00  0.00    +0.000 OA
ATOM     32  C   UNL     1      50.689   5.927  16.818  0.00  0.00    +0.000 A 
ATOM     33  H   UNL     1      49.312   3.193  18.027  0.00  0.00    +0.000 HD
ENDBRANCH  20  23
ENDBRANCH  18  19
ENDBRANCH   4  18
TORSDOF 7
ENDMDL
MODEL 7
REMARK VINA RESULT:    -6.317      3.285      4.490
REMARK INTER + INTRA:         -10.141
REMARK INTER:                  -9.171
REMARK INTRA:                  -0.970
REMARK UNBOUND:                -1.239
REMARK  Name = 
REMARK  8 active torsions:
REMARK  status: ('A' for Active; 'I' for Inactive)
REMARK    1  A    between atoms: C_1  and  C_2
REMARK    2  A    between atoms: C_2  and  N_3
REMARK    3  A    between atoms: C_2  and  C_25
REMARK    4  A    between atoms: N_3  and  C_4
REMARK    5  A    between atoms: C_4  and  C_5
REMARK    6  A    between atoms: C_8  and  C_9
REMARK    7  A    between atoms: C_9  and  N_10
REMARK    8  A    between atoms: C_11  and  C_13
REMARK                            x       y       z     vdW  Elec       q    Type
REMARK                         _______ _______ _______ _____ _____    ______ ____
ROOT
ATOM      1  C   UNL     1      47.239   6.293  13.251  0.00  0.00    +0.000 A 
ATOM      2  C   UNL     1      47.146   5.273  14.208  0.00  0.00    +0.000 A 
ATOM      3  C   UNL     1      47.855   5.356  15.412  0.00  0.00    +0.000 A 
ATOM      4  C   UNL     1      48.672   6.461  15.684  0.00  0.00    +0.000 A 
ATOM      5  C   UNL     1      48.773   7.476  14.726  0.00  0.00    +0.000 A 
ATOM      6  C   UNL     1      48.058   7.397  13.528  0.00  0.00    +0.000 A 
ENDROOT
BRANCH   1   7
ATOM      7  C   UNL     1      46.539   6.189  11.913  0.00  0.00    +0.000 C 
BRANCH   7   8
ATOM      8  N   UNL     1      45.579   5.088  11.868  0.00  0.00    +0.000 NA
ATOM      9  H   UNL     1      46.096   4.208  11.819  0.00  0.00    +0.000 HD
BRANCH   8  11
ATOM     10  C   UNL     1      43.247   4.777  10.991  0.00  0.00    +0.000 C 
ATOM     11  C   UNL     1      44.705   5.135  10.674  0.00  0.00    +0.000 C 
BRANCH  11  12
ATOM     12  C   UNL     1      45.243   4.203   9.586  0.00  0.00    +0.000 A 
ATOM     13  C   UNL     1      45.922   4.720   8.481  0.00  0.00    +0.000 A 
ATOM     14  C   UNL     1      46.387   3.851   7.500  0.00  0.00    +0.000 A 
ATOM     15  C   UNL     1      46.157   2.489   7.638  0.00  0.00    +0.000 A 
ATOM     16  C   UNL     1      45.470   2.052   8.758  0.00  0.00    +0.000 A 
ATOM     17  N   UNL     1      45.007   2.872   9.729  0.00  0.00    +0.000 NA
ENDBRANCH  11  12
ENDBRANCH   8  11
ENDBRANCH   7   8
ENDBRANCH   1   7
BRANCH   4  18
ATOM     18  C   UNL     1      49.478   6.537  16.953  0.00  0.00    +0.000 C 
BRANCH  18  19
ATOM     19  N   UNL     1      50.419   5.447  17.032  0.00  0.00    +0.000 N 
ATOM     20  C   UNL     1      50.193   4.373  17.852  0.00  0.00    +0.000 C 
ATOM     21  O   UNL     1      49.165   4.264  18.514  0.00  0.00    +0.000 OA
ATOM     22  H   UNL     1      51.356   5.622  16.681  0.00  0.00    +0.000 HD
BRANCH  20  23
ATOM     23  C   UNL     1      51.220   3.322  17.855  0.00  0.00    +0.000 A 
ATOM     24  C   UNL     1      50.906   2.056  17.377  0.00  0.00    +0.000 A 
ATOM     25  S   UNL     1      52.213   0.963  17.422  0.00  0.00    +0.000 S 
ATOM     26  C   UNL     1      53.234   2.130  18.125  0.00  0.00    +0.000 A 
ATOM     27  N   UNL     1      54.519   1.825  18.455  0.00  0.00    +0.000 NA
ATOM     28  C   UNL     1      55.172   2.795  19.003  0.00  0.00    +0.000 A 
ATOM     29  N   UNL     1      54.659   4.043  19.242  0.00  0.00    +0.000 N 
ATOM     30  C   UNL     1      53.380   4.405  18.902  0.00  0.00    +0.000 A 
ATOM     31  O   UNL     1      52.969   5.545  19.092  0.00  0.00    +0.000 OA
ATOM     32  C   UNL     1      52.593   3.344  18.297  0.00  0.00    +0.000 A 
ATOM     33  H   UNL     1      55.230   4.763  19.663  0.00  0.00    +0.000 HD
ENDBRANCH  20  23
ENDBRANCH  18  19
ENDBRANCH   4  18
TORSDOF 7
ENDMDL
MODEL 8
REMARK VINA RESULT:    -6.020      2.602      4.032
REMARK INTER + INTRA:          -9.722
REMARK INTER:                  -8.918
REMARK INTRA:                  -0.805
REMARK UNBOUND:                -1.239
REMARK  Name = 
REMARK  8 active torsions:
REMARK  status: ('A' for Active; 'I' for Inactive)
REMARK    1  A    between atoms: C_1  and  C_2
REMARK    2  A    between atoms: C_2  and  N_3
REMARK    3  A    between atoms: C_2  and  C_25
REMARK    4  A    between atoms: N_3  and  C_4
REMARK    5  A    between atoms: C_4  and  C_5
REMARK    6  A    between atoms: C_8  and  C_9
REMARK    7  A    between atoms: C_9  and  N_10
REMARK    8  A    between atoms: C_11  and  C_13
REMARK                            x       y       z     vdW  Elec       q    Type
REMARK                         _______ _______ _______ _____ _____    ______ ____
ROOT
ATOM      1  C   UNL     1      47.657   7.301  13.564  0.00  0.00    +0.000 A 
ATOM      2  C   UNL     1      47.949   6.126  14.271  0.00  0.00    +0.000 A 
ATOM      3  C   UNL     1      48.507   6.183  15.553  0.00  0.00    +0.000 A 
ATOM      4  C   UNL     1      48.786   7.417  16.155  0.00  0.00    +0.000 A 
ATOM      5  C   UNL     1      48.504   8.591  15.447  0.00  0.00    +0.000 A 
ATOM      6  C   UNL     1      47.938   8.533  14.170  0.00  0.00    +0.000 A 
ENDROOT
BRANCH   1   7
ATOM      7  C   UNL     1      47.121   7.259  12.149  0.00  0.00    +0.000 C 
BRANCH   7   8
ATOM      8  N   UNL     1      46.566   5.954  11.798  0.00  0.00    +0.000 NA
ATOM      9  H   UNL     1      47.247   5.455  11.224  0.00  0.00    +0.000 HD
BRANCH   8  11
ATOM     10  C   UNL     1      44.061   6.096  11.868  0.00  0.00    +0.000 C 
ATOM     11  C   UNL     1      45.325   6.052  10.999  0.00  0.00    +0.000 C 
BRANCH  11  12
ATOM     12  C   UNL     1      45.234   4.886  10.013  0.00  0.00    +0.000 A 
ATOM     13  C   UNL     1      44.549   3.718  10.355  0.00  0.00    +0.000 A 
ATOM     14  C   UNL     1      44.495   2.669   9.444  0.00  0.00    +0.000 A 
ATOM     15  C   UNL     1      45.131   2.802   8.218  0.00  0.00    +0.000 A 
ATOM     16  C   UNL     1      45.797   3.987   7.953  0.00  0.00    +0.000 A 
ATOM     17  N   UNL     1      45.866   5.026   8.818  0.00  0.00    +0.000 NA
ENDBRANCH  11  12
ENDBRANCH   8  11
ENDBRANCH   7   8
ENDBRANCH   1   7
BRANCH   4  18
ATOM     18  C   UNL     1      49.434   7.491  17.512  0.00  0.00    +0.000 C 
BRANCH  18  19
ATOM     19  N   UNL     1      50.241   6.323  17.762  0.00  0.00    +0.000 N 
ATOM     20  C   UNL     1      51.549   6.264  17.356  0.00  0.00    +0.000 C 
ATOM     21  O   UNL     1      52.105   7.214  16.811  0.00  0.00    +0.000 OA
ATOM     22  H   UNL     1      49.750   5.466  17.996  0.00  0.00    +0.000 HD
BRANCH  20  23
ATOM     23  C   UNL     1      52.275   5.025  17.661  0.00  0.00    +0.000 A 
ATOM     24  C   UNL     1      53.618   5.086  18.011  0.00  0.00    +0.000 A 
ATOM     25  S   UNL     1      54.306   3.566  18.361  0.00  0.00    +0.000 S 
ATOM     26  C   UNL     1      52.845   2.766  18.012  0.00  0.00    +0.000 A 
ATOM     27  N   UNL     1      52.757   1.409  18.089  0.00  0.00    +0.000 NA
ATOM     28  C   UNL     1      51.599   0.933  17.774  0.00  0.00    +0.000 A 
ATOM     29  N   UNL     1      50.520   1.690  17.397  0.00  0.00    +0.000 N 
ATOM     30  C   UNL     1      50.553   3.060  17.331  0.00  0.00    +0.000 A 
ATOM     31  O   UNL     1      49.555   3.708  17.032  0.00  0.00    +0.000 OA
ATOM     32  C   UNL     1      51.840   3.649  17.660  0.00  0.00    +0.000 A 
ATOM     33  H   UNL     1      49.636   1.253  17.175  0.00  0.00    +0.000 HD
ENDBRANCH  20  23
ENDBRANCH  18  19
ENDBRANCH   4  18
TORSDOF 7
ENDMDL
MODEL 9
REMARK VINA RESULT:    -5.929      3.549      9.457
REMARK INTER + INTRA:          -9.594
REMARK INTER:                  -8.534
REMARK INTRA:                  -1.060
REMARK UNBOUND:                -1.239
REMARK  Name = 
REMARK  8 active torsions:
REMARK  status: ('A' for Active; 'I' for Inactive)
REMARK    1  A    between atoms: C_1  and  C_2
REMARK    2  A    between atoms: C_2  and  N_3
REMARK    3  A    between atoms: C_2  and  C_25
REMARK    4  A    between atoms: N_3  and  C_4
REMARK    5  A    between atoms: C_4  and  C_5
REMARK    6  A    between atoms: C_8  and  C_9
REMARK    7  A    between atoms: C_9  and  N_10
REMARK    8  A    between atoms: C_11  and  C_13
REMARK                            x       y       z     vdW  Elec       q    Type
REMARK                         _______ _______ _______ _____ _____    ______ ____
ROOT
ATOM      1  C   UNL     1      47.452   6.265  13.845  0.00  0.00    +0.000 A 
ATOM      2  C   UNL     1      47.064   5.077  14.482  0.00  0.00    +0.000 A 
ATOM      3  C   UNL     1      46.179   4.189  13.861  0.00  0.00    +0.000 A 
ATOM      4  C   UNL     1      45.662   4.470  12.589  0.00  0.00    +0.000 A 
ATOM      5  C   UNL     1      46.040   5.659  11.955  0.00  0.00    +0.000 A 
ATOM      6  C   UNL     1      46.931   6.541  12.572  0.00  0.00    +0.000 A 
ENDROOT
BRANCH   1   7
ATOM      7  C   UNL     1      48.350   7.272  14.529  0.00  0.00    +0.000 C 
BRANCH   7   8
ATOM      8  N   UNL     1      49.655   6.714  14.877  0.00  0.00    +0.000 NA
ATOM      9  H   UNL     1      49.570   5.698  14.931  0.00  0.00    +0.000 HD
BRANCH   8  11
ATOM     10  C   UNL     1      51.509   6.576  16.564  0.00  0.00    +0.000 C 
ATOM     11  C   UNL     1      50.143   7.172  16.197  0.00  0.00    +0.000 C 
BRANCH  11  12
ATOM     12  C   UNL     1      49.122   6.836  17.286  0.00  0.00    +0.000 A 
ATOM     13  C   UNL     1      48.745   5.513  17.521  0.00  0.00    +0.000 A 
ATOM     14  C   UNL     1      47.805   5.238  18.509  0.00  0.00    +0.000 A 
ATOM     15  C   UNL     1      47.255   6.288  19.232  0.00  0.00    +0.000 A 
ATOM     16  C   UNL     1      47.673   7.575  18.935  0.00  0.00    +0.000 A 
ATOM     17  N   UNL     1      48.587   7.873  17.983  0.00  0.00    +0.000 NA
ENDBRANCH  11  12
ENDBRANCH   8  11
ENDBRANCH   7   8
ENDBRANCH   1   7
BRANCH   4  18
ATOM     18  C   UNL     1      44.669   3.547  11.933  0.00  0.00    +0.000 C 
BRANCH  18  19
ATOM     19  N   UNL     1      45.297   2.772  10.891  0.00  0.00    +0.000 N 
ATOM     20  C   UNL     1      44.913   2.903   9.581  0.00  0.00    +0.000 C 
ATOM     21  O   UNL     1      44.060   3.714   9.231  0.00  0.00    +0.000 OA
ATOM     22  H   UNL     1      45.824   1.954  11.180  0.00  0.00    +0.000 HD
BRANCH  20  23
ATOM     23  C   UNL     1      45.618   2.063   8.605  0.00  0.00    +0.000 A 
ATOM     24  C   UNL     1      45.496   0.681   8.675  0.00  0.00    +0.000 A 
ATOM     25  S   UNL     1      46.351  -0.146   7.454  0.00  0.00    +0.000 S 
ATOM     26  C   UNL     1      46.953   1.312   6.815  0.00  0.00    +0.000 A 
ATOM     27  N   UNL     1      47.798   1.309   5.746  0.00  0.00    +0.000 NA
ATOM     28  C   UNL     1      48.197   2.482   5.381  0.00  0.00    +0.000 A 
ATOM     29  N   UNL     1      47.822   3.655   5.982  0.00  0.00    +0.000 N 
ATOM     30  C   UNL     1      46.954   3.710   7.043  0.00  0.00    +0.000 A 
ATOM     31  O   UNL     1      46.607   4.781   7.528  0.00  0.00    +0.000 OA
ATOM     32  C   UNL     1      46.487   2.415   7.507  0.00  0.00    +0.000 A 
ATOM     33  H   UNL     1      48.162   4.543   5.637  0.00  0.00    +0.000 HD
ENDBRANCH  20  23
ENDBRANCH  18  19
ENDBRANCH   4  18
TORSDOF 7
ENDMDL
