MODEL 1
REMARK VINA RESULT:    -7.243      0.000      0.000
REMARK INTER + INTRA:          -9.516
REMARK INTER:                  -9.148
REMARK INTRA:                  -0.367
REMARK UNBOUND:                -0.367
REMARK  Name = 
REMARK  5 active torsions:
REMARK  status: ('A' for Active; 'I' for Inactive)
REMARK    1  A    between atoms: N_1  and  C_2
REMARK    2  A    between atoms: C_2  and  C_3
REMARK    3  A    between atoms: C_6  and  O_7
REMARK    4  A    between atoms: O_7  and  C_8
REMARK    5  A    between atoms: C_8  and  C_9
REMARK                            x       y       z     vdW  Elec       q    Type
REMARK                         _______ _______ _______ _____ _____    ______ ____
ROOT
ATOM      1  C   UNL     1      46.599   2.313   7.516  0.00  0.00    +0.000 A 
ATOM      2  C   UNL     1      46.396   3.699   7.543  0.00  0.00    +0.000 A 
ATOM      3  C   UNL     1      45.447   4.270   8.399  0.00  0.00    +0.000 A 
ATOM      4  C   UNL     1      44.680   3.459   9.234  0.00  0.00    +0.000 A 
ATOM      5  C   UNL     1      44.904   2.082   9.243  0.00  0.00    +0.000 A 
ATOM      6  C   UNL     1      45.849   1.509   8.384  0.00  0.00    +0.000 A 
ENDROOT
BRANCH   1   7
ATOM      7  C   UNL     1      47.575   1.700   6.545  0.00  0.00    +0.000 C 
BRANCH   7   8
ATOM      8  N   UNL     1      48.690   2.594   6.253  0.00  0.00    +0.000 NA
ATOM      9  H   UNL     1      48.684   2.821   5.261  0.00  0.00    +0.000 HD
ATOM     10  H   UNL     1      49.562   2.096   6.430  0.00  0.00    +0.000 HD
ENDBRANCH   7   8
ENDBRANCH   1   7
BRANCH   4  11
ATOM     11  O   UNL     1      43.728   3.908  10.109  0.00  0.00    +0.000 OA
BRANCH  11  12
ATOM     12  C   UNL     1      43.779   3.319  11.415  0.00  0.00    +0.000 C 
BRANCH  12  13
ATOM     13  C   UNL     1      44.829   4.007  12.262  0.00  0.00    +0.000 A 
ATOM     14  N   UNL     1      45.736   3.224  12.890  0.00  0.00    +0.000 NA
ATOM     15  C   UNL     1      46.678   3.854  13.614  0.00  0.00    +0.000 A 
ATOM     16  C   UNL     1      46.760   5.220  13.729  0.00  0.00    +0.000 A 
ATOM     17  C   UNL     1      45.797   5.930  13.052  0.00  0.00    +0.000 A 
ATOM     18  N   UNL     1      44.829   5.357  12.312  0.00  0.00    +0.000 NA
ENDBRANCH  12  13
ENDBRANCH  11  12
ENDBRANCH   4  11
TORSDOF 5
ENDMDL
MODEL 2
REMARK VINA RESULT:    -6.455      1.815      5.640
REMARK INTER + INTRA:          -8.520
REMARK INTER:                  -8.205
REMARK INTRA:                  -0.315
REMARK UNBOUND:                -0.367
REMARK  Name = 
REMARK  5 active torsions:
REMARK  status: ('A' for Active; 'I' for Inactive)
REMARK    1  A    between atoms: N_1  and  C_2
REMARK    2  A    between atoms: C_2  and  C_3
REMARK    3  A    between atoms: C_6  and  O_7
REMARK    4  A    between atoms: O_7  and  C_8
REMARK    5  A    between atoms: C_8  and  C_9
REMARK                            x       y       z     vdW  Elec       q    Type
REMARK                         _______ _______ _______ _____ _____    ______ ____
ROOT
ATOM      1  C   UNL     1      46.499   5.407  12.878  0.00  0.00    +0.000 A 
ATOM      2  C   UNL     1      46.347   6.157  11.704  0.00  0.00    +0.000 A 
ATOM      3  C   UNL     1      45.581   5.672  10.637  0.00  0.00    +0.000 A 
ATOM      4  C   UNL     1      44.963   4.425  10.727  0.00  0.00    +0.000 A 
ATOM      5  C   UNL     1      45.076   3.691  11.909  0.00  0.00    +0.000 A 
ATOM      6  C   UNL     1      45.846   4.171  12.974  0.00  0.00    +0.000 A 
ENDROOT
BRANCH   1   7
ATOM      7  C   UNL     1      47.379   5.905  13.996  0.00  0.00    +0.000 C 
BRANCH   7   8
ATOM      8  N   UNL     1      47.221   5.115  15.211  0.00  0.00    +0.000 NA
ATOM      9  H   UNL     1      47.583   5.644  16.001  0.00  0.00    +0.000 HD
ATOM     10  H   UNL     1      47.800   4.279  15.133  0.00  0.00    +0.000 HD
ENDBRANCH   7   8
ENDBRANCH   1   7
BRANCH   4  11
ATOM     11  O   UNL     1      44.193   3.857   9.749  0.00  0.00    +0.000 OA
BRANCH  11  12
ATOM     12  C   UNL     1      44.482   2.480   9.473  0.00  0.00    +0.000 C 
BRANCH  12  13
ATOM     13  C   UNL     1      45.528   2.371   8.383  0.00  0.00    +0.000 A 
ATOM     14  N   UNL     1      46.230   1.218   8.304  0.00  0.00    +0.000 NA
ATOM     15  C   UNL     1      47.134   1.128   7.312  0.00  0.00    +0.000 A 
ATOM     16  C   UNL     1      47.359   2.129   6.399  0.00  0.00    +0.000 A 
ATOM     17  C   UNL     1      46.596   3.261   6.559  0.00  0.00    +0.000 A 
ATOM     18  N   UNL     1      45.676   3.409   7.531  0.00  0.00    +0.000 NA
ENDBRANCH  12  13
ENDBRANCH  11  12
ENDBRANCH   4  11
TORSDOF 5
ENDMDL
MODEL 3
REMARK VINA RESULT:    -6.133      2.112      5.993
REMARK INTER + INTRA:          -8.113
REMARK INTER:                  -7.765
REMARK INTRA:                  -0.348
REMARK UNBOUND:                -0.367
REMARK  Name = 
REMARK  5 active torsions:
REMARK  status: ('A' for Active; 'I' for Inactive)
REMARK    1  A    between atoms: N_1  and  C_2
REMARK    2  A    between atoms: C_2  and  C_3
REMARK    3  A    between atoms: C_6  and  O_7
REMARK    4  A    between atoms: O_7  and  C_8
REMARK    5  A    between atoms: C_8  and  C_9
REMARK                            x       y       z     vdW  Elec       q    Type
REMARK                         _______ _______ _______ _____ _____    ______ ____
ROOT
ATOM      1  C   UNL     1      45.407   7.085  12.530  0.00  0.00    +0.000 A 
ATOM      2  C   UNL     1      44.448   6.862  11.533  0.00  0.00    +0.000 A 
ATOM      3  C   UNL     1      44.240   5.580  11.012  0.00  0.00    +0.000 A 
ATOM      4  C   UNL     1      44.996   4.503  11.475  0.00  0.00    +0.000 A 
ATOM      5  C   UNL     1      45.924   4.711  12.497  0.00  0.00    +0.000 A 
ATOM      6  C   UNL     1      46.137   5.993  13.015  0.00  0.00    +0.000 A 
ENDROOT
BRANCH   1   7
ATOM      7  C   UNL     1      45.672   8.479  13.039  0.00  0.00    +0.000 C 
BRANCH   7   8
ATOM      8  N   UNL     1      44.652   9.425  12.601  0.00  0.00    +0.000 NA
ATOM      9  H   UNL     1      44.151   9.030  11.807  0.00  0.00    +0.000 HD
ATOM     10  H   UNL     1      45.113  10.267  12.260  0.00  0.00    +0.000 HD
ENDBRANCH   7   8
ENDBRANCH   1   7
BRANCH   4  11
ATOM     11  O   UNL     1      44.875   3.212  11.039  0.00  0.00    +0.000 OA
BRANCH  11  12
ATOM     12  C   UNL     1      44.257   3.061   9.754  0.00  0.00    +0.000 C 
BRANCH  12  13
ATOM     13  C   UNL     1      45.307   2.819   8.691  0.00  0.00    +0.000 A 
ATOM     14  N   UNL     1      45.677   3.872   7.927  0.00  0.00    +0.000 NA
ATOM     15  C   UNL     1      46.632   3.644   7.007  0.00  0.00    +0.000 A 
ATOM     16  C   UNL     1      47.234   2.424   6.825  0.00  0.00    +0.000 A 
ATOM     17  C   UNL     1      46.793   1.416   7.649  0.00  0.00    +0.000 A 
ATOM     18  N   UNL     1      45.842   1.582   8.588  0.00  0.00    +0.000 NA
ENDBRANCH  12  13
ENDBRANCH  11  12
ENDBRANCH   4  11
TORSDOF 5
ENDMDL
MODEL 4
REMARK VINA RESULT:    -6.080      2.288      5.944
REMARK INTER + INTRA:          -8.047
REMARK INTER:                  -7.877
REMARK INTRA:                  -0.170
REMARK UNBOUND:                -0.367
REMARK  Name = 
REMARK  5 active torsions:
REMARK  status: ('A' for Active; 'I' for Inactive)
REMARK    1  A    between atoms: N_1  and  C_2
REMARK    2  A    between atoms: C_2  and  C_3
REMARK    3  A    between atoms: C_6  and  O_7
REMARK    4  A    between atoms: O_7  and  C_8
REMARK    5  A    between atoms: C_8  and  C_9
REMARK                            x       y       z     vdW  Elec       q    Type
REMARK                         _______ _______ _______ _____ _____    ______ ____
ROOT
ATOM      1  C   UNL     1      45.497   6.724  12.237  0.00  0.00    +0.000 A 
ATOM      2  C   UNL     1      44.361   5.971  12.565  0.00  0.00    +0.000 A 
ATOM      3  C   UNL     1      43.852   5.015  11.680  0.00  0.00    +0.000 A 
ATOM      4  C   UNL     1      44.468   4.803  10.447  0.00  0.00    +0.000 A 
ATOM      5  C   UNL     1      45.624   5.519  10.130  0.00  0.00    +0.000 A 
ATOM      6  C   UNL     1      46.131   6.480  11.012  0.00  0.00    +0.000 A 
ENDROOT
BRANCH   1   7
ATOM      7  C   UNL     1      45.999   7.798  13.167  0.00  0.00    +0.000 C 
BRANCH   7   8
ATOM      8  N   UNL     1      45.251   9.041  13.022  0.00  0.00    +0.000 NA
ATOM      9  H   UNL     1      44.709   9.004  12.162  0.00  0.00    +0.000 HD
ATOM     10  H   UNL     1      45.914   9.809  12.913  0.00  0.00    +0.000 HD
ENDBRANCH   7   8
ENDBRANCH   1   7
BRANCH   4  11
ATOM     11  O   UNL     1      44.059   3.896   9.508  0.00  0.00    +0.000 OA
BRANCH  11  12
ATOM     12  C   UNL     1      44.684   2.608   9.596  0.00  0.00    +0.000 C 
BRANCH  12  13
ATOM     13  C   UNL     1      45.608   2.391   8.416  0.00  0.00    +0.000 A 
ATOM     14  N   UNL     1      46.284   1.221   8.359  0.00  0.00    +0.000 NA
ATOM     15  C   UNL     1      47.077   1.034   7.289  0.00  0.00    +0.000 A 
ATOM     16  C   UNL     1      47.216   1.952   6.278  0.00  0.00    +0.000 A 
ATOM     17  C   UNL     1      46.487   3.108   6.423  0.00  0.00    +0.000 A 
ATOM     18  N   UNL     1      45.677   3.353   7.470  0.00  0.00    +0.000 NA
ENDBRANCH  12  13
ENDBRANCH  11  12
ENDBRANCH   4  11
TORSDOF 5
ENDMDL
MODEL 5
REMARK VINA RESULT:    -5.679      2.188      5.989
REMARK INTER + INTRA:          -7.540
REMARK INTER:                  -7.214
REMARK INTRA:                  -0.326
REMARK UNBOUND:                -0.367
REMARK  Name = 
REMARK  5 active torsions:
REMARK  status: ('A' for Active; 'I' for Inactive)
REMARK    1  A    between atoms: N_1  and  C_2
REMARK    2  A    between atoms: C_2  and  C_3
REMARK    3  A    between atoms: C_6  and  O_7
REMARK    4  A    between atoms: O_7  and  C_8
REMARK    5  A    between atoms: C_8  and  C_9
REMARK                            x       y       z     vdW  Elec       q    Type
REMARK                         _______ _______ _______ _____ _____    ______ ____
ROOT
ATOM      1  C   UNL     1      47.266   5.646  13.925  0.00  0.00    +0.000 A 
ATOM      2  C   UNL     1      46.324   4.623  13.743  0.00  0.00    +0.000 A 
ATOM      3  C   UNL     1      45.517   4.586  12.600  0.00  0.00    +0.000 A 
ATOM      4  C   UNL     1      45.636   5.576  11.625  0.00  0.00    +0.000 A 
ATOM      5  C   UNL     1      46.600   6.574  11.780  0.00  0.00    +0.000 A 
ATOM      6  C   UNL     1      47.403   6.617  12.925  0.00  0.00    +0.000 A 
ENDROOT
BRANCH   1   7
ATOM      7  C   UNL     1      48.083   5.716  15.190  0.00  0.00    +0.000 C 
BRANCH   7   8
ATOM      8  N   UNL     1      48.292   7.090  15.630  0.00  0.00    +0.000 NA
ATOM      9  H   UNL     1      48.347   7.109  16.646  0.00  0.00    +0.000 HD
ATOM     10  H   UNL     1      47.474   7.642  15.375  0.00  0.00    +0.000 HD
ENDBRANCH   7   8
ENDBRANCH   1   7
BRANCH   4  11
ATOM     11  O   UNL     1      44.903   5.637  10.472  0.00  0.00    +0.000 OA
BRANCH  11  12
ATOM     12  C   UNL     1      44.276   4.406  10.086  0.00  0.00    +0.000 C 
BRANCH  12  13
ATOM     13  C   UNL     1      45.141   3.666   9.088  0.00  0.00    +0.000 A 
ATOM     14  N   UNL     1      45.250   2.325   9.229  0.00  0.00    +0.000 NA
ATOM     15  C   UNL     1      45.999   1.681   8.316  0.00  0.00    +0.000 A 
ATOM     16  C   UNL     1      46.629   2.311   7.271  0.00  0.00    +0.000 A 
ATOM     17  C   UNL     1      46.457   3.673   7.209  0.00  0.00    +0.000 A 
ATOM     18  N   UNL     1      45.720   4.373   8.093  0.00  0.00    +0.000 NA
ENDBRANCH  12  13
ENDBRANCH  11  12
ENDBRANCH   4  11
TORSDOF 5
ENDMDL
MODEL 6
REMARK VINA RESULT:    -5.542      4.039      5.966
REMARK INTER + INTRA:          -7.366
REMARK INTER:                  -7.123
REMARK INTRA:                  -0.243
REMARK UNBOUND:                -0.367
REMARK  Name = 
REMARK  5 active torsions:
REMARK  status: ('A' for Active; 'I' for Inactive)
REMARK    1  A    between atoms: N_1  and  C_2
REMARK    2  A    between atoms: C_2  and  C_3
REMARK    3  A    between atoms: C_6  and  O_7
REMARK    4  A    between atoms: O_7  and  C_8
REMARK    5  A    between atoms: C_8  and  C_9
REMARK                            x       y       z     vdW  Elec       q    Type
REMARK                         _______ _______ _______ _____ _____    ______ ____
ROOT
ATOM      1  C   UNL     1      45.222   5.503  11.965  0.00  0.00    +0.000 A 
ATOM      2  C   UNL     1      46.159   6.117  12.807  0.00  0.00    +0.000 A 
ATOM      3  C   UNL     1      46.953   5.357  13.674  0.00  0.00    +0.000 A 
ATOM      4  C   UNL     1      46.814   3.970  13.717  0.00  0.00    +0.000 A 
ATOM      5  C   UNL     1      45.912   3.348  12.852  0.00  0.00    +0.000 A 
ATOM      6  C   UNL     1      45.114   4.107  11.988  0.00  0.00    +0.000 A 
ENDROOT
BRANCH   1   7
ATOM      7  C   UNL     1      44.326   6.334  11.083  0.00  0.00    +0.000 C 
BRANCH   7   8
ATOM      8  N   UNL     1      43.153   5.589  10.639  0.00  0.00    +0.000 NA
ATOM      9  H   UNL     1      42.342   6.203  10.661  0.00  0.00    +0.000 HD
ATOM     10  H   UNL     1      42.969   4.843  11.308  0.00  0.00    +0.000 HD
ENDBRANCH   7   8
ENDBRANCH   1   7
BRANCH   4  11
ATOM     11  O   UNL     1      47.536   3.132  14.521  0.00  0.00    +0.000 OA
BRANCH  11  12
ATOM     12  C   UNL     1      47.509   3.458  15.917  0.00  0.00    +0.000 C 
BRANCH  12  13
ATOM     13  C   UNL     1      48.861   3.193  16.546  0.00  0.00    +0.000 A 
ATOM     14  N   UNL     1      49.379   1.951  16.412  0.00  0.00    +0.000 NA
ATOM     15  C   UNL     1      50.593   1.743  16.952  0.00  0.00    +0.000 A 
ATOM     16  C   UNL     1      51.310   2.715  17.605  0.00  0.00    +0.000 A 
ATOM     17  C   UNL     1      50.702   3.945  17.687  0.00  0.00    +0.000 A 
ATOM     18  N   UNL     1      49.490   4.214  17.168  0.00  0.00    +0.000 NA
ENDBRANCH  12  13
ENDBRANCH  11  12
ENDBRANCH   4  11
TORSDOF 5
ENDMDL
MODEL 7
REMARK VINA RESULT:    -5.279      3.661      5.512
REMARK INTER + INTRA:          -7.035
REMARK INTER:                  -6.796
REMARK INTRA:                  -0.239
REMARK UNBOUND:                -0.367
REMARK  Name = 
REMARK  5 active torsions:
REMARK  status: ('A' for Active; 'I' for Inactive)
REMARK    1  A    between atoms: N_1  and  C_2
REMARK    2  A    between atoms: C_2  and  C_3
REMARK    3  A    between atoms: C_6  and  O_7
REMARK    4  A    between atoms: O_7  and  C_8
REMARK    5  A    between atoms: C_8  and  C_9
REMARK                            x       y       z     vdW  Elec       q    Type
REMARK                         _______ _______ _______ _____ _____    ______ ____
ROOT
ATOM      1  C   UNL     1      45.031   4.576  11.196  0.00  0.00    +0.000 A 
ATOM      2  C   UNL     1      45.245   3.494  12.060  0.00  0.00    +0.000 A 
ATOM      3  C   UNL     1      46.078   3.621  13.178  0.00  0.00    +0.000 A 
ATOM      4  C   UNL     1      46.716   4.832  13.441  0.00  0.00    +0.000 A 
ATOM      5  C   UNL     1      46.476   5.926  12.609  0.00  0.00    +0.000 A 
ATOM      6  C   UNL     1      45.648   5.799  11.488  0.00  0.00    +0.000 A 
ENDROOT
BRANCH   1   7
ATOM      7  C   UNL     1      44.186   4.412   9.958  0.00  0.00    +0.000 C 
BRANCH   7   8
ATOM      8  N   UNL     1      44.902   4.804   8.750  0.00  0.00    +0.000 NA
ATOM      9  H   UNL     1      44.528   4.285   7.959  0.00  0.00    +0.000 HD
ATOM     10  H   UNL     1      45.878   4.523   8.845  0.00  0.00    +0.000 HD
ENDBRANCH   7   8
ENDBRANCH   1   7
BRANCH   4  11
ATOM     11  O   UNL     1      47.548   5.068  14.502  0.00  0.00    +0.000 OA
BRANCH  11  12
ATOM     12  C   UNL     1      47.260   4.302  15.680  0.00  0.00    +0.000 C 
BRANCH  12  13
ATOM     13  C   UNL     1      48.545   3.903  16.375  0.00  0.00    +0.000 A 
ATOM     14  N   UNL     1      49.325   4.895  16.863  0.00  0.00    +0.000 NA
ATOM     15  C   UNL     1      50.448   4.520  17.501  0.00  0.00    +0.000 A 
ATOM     16  C   UNL     1      50.818   3.210  17.680  0.00  0.00    +0.000 A 
ATOM     17  C   UNL     1      49.960   2.274  17.152  0.00  0.00    +0.000 A 
ATOM     18  N   UNL     1      48.823   2.588  16.503  0.00  0.00    +0.000 NA
ENDBRANCH  12  13
ENDBRANCH  11  12
ENDBRANCH   4  11
TORSDOF 5
ENDMDL
MODEL 8
REMARK VINA RESULT:    -5.089      4.029      7.707
REMARK INTER + INTRA:          -6.794
REMARK INTER:                  -6.593
REMARK INTRA:                  -0.202
REMARK UNBOUND:                -0.367
REMARK  Name = 
REMARK  5 active torsions:
REMARK  status: ('A' for Active; 'I' for Inactive)
REMARK    1  A    between atoms: N_1  and  C_2
REMARK    2  A    between atoms: C_2  and  C_3
REMARK    3  A    between atoms: C_6  and  O_7
REMARK    4  A    between atoms: O_7  and  C_8
REMARK    5  A    between atoms: C_8  and  C_9
REMARK                            x       y       z     vdW  Elec       q    Type
REMARK                         _______ _______ _______ _____ _____    ______ ____
ROOT
ATOM      1  C   UNL     1      50.021   4.084  17.731  0.00  0.00    +0.000 A 
ATOM      2  C   UNL     1      49.433   5.286  17.314  0.00  0.00    +0.000 A 
ATOM      3  C   UNL     1      48.283   5.284  16.517  0.00  0.00    +0.000 A 
ATOM      4  C   UNL     1      47.709   4.078  16.117  0.00  0.00    +0.000 A 
ATOM      5  C   UNL     1      48.265   2.877  16.562  0.00  0.00    +0.000 A 
ATOM      6  C   UNL     1      49.418   2.877  17.354  0.00  0.00    +0.000 A 
ENDROOT
BRANCH   1   7
ATOM      7  C   UNL     1      51.297   4.094  18.533  0.00  0.00    +0.000 C 
BRANCH   7   8
ATOM      8  N   UNL     1      52.006   2.823  18.450  0.00  0.00    +0.000 NA
ATOM      9  H   UNL     1      52.432   2.620  19.352  0.00  0.00    +0.000 HD
ATOM     10  H   UNL     1      52.773   2.921  17.785  0.00  0.00    +0.000 HD
ENDBRANCH   7   8
ENDBRANCH   1   7
BRANCH   4  11
ATOM     11  O   UNL     1      46.588   3.959  15.342  0.00  0.00    +0.000 OA
BRANCH  11  12
ATOM     12  C   UNL     1      46.751   4.355  13.974  0.00  0.00    +0.000 C 
BRANCH  12  13
ATOM     13  C   UNL     1      45.422   4.303  13.249  0.00  0.00    +0.000 A 
ATOM     14  N   UNL     1      44.692   5.440  13.202  0.00  0.00    +0.000 NA
ATOM     15  C   UNL     1      43.528   5.382  12.530  0.00  0.00    +0.000 A 
ATOM     16  C   UNL     1      43.071   4.251  11.901  0.00  0.00    +0.000 A 
ATOM     17  C   UNL     1      43.884   3.147  12.002  0.00  0.00    +0.000 A 
ATOM     18  N   UNL     1      45.058   3.143  12.660  0.00  0.00    +0.000 NA
ENDBRANCH  12  13
ENDBRANCH  11  12
ENDBRANCH   4  11
TORSDOF 5
ENDMDL
MODEL 9
REMARK VINA RESULT:    -4.887      4.896      6.267
REMARK INTER + INTRA:          -6.540
REMARK INTER:                  -6.236
REMARK INTRA:                  -0.304
REMARK UNBOUND:                -0.367
REMARK  Name = 
REMARK  5 active torsions:
REMARK  status: ('A' for Active; 'I' for Inactive)
REMARK    1  A    between atoms: N_1  and  C_2
REMARK    2  A    between atoms: C_2  and  C_3
REMARK    3  A    between atoms: C_6  and  O_7
REMARK    4  A    between atoms: O_7  and  C_8
REMARK    5  A    between atoms: C_8  and  C_9
REMARK                            x       y       z     vdW  Elec       q    Type
REMARK                         _______ _______ _______ _____ _____    ______ ____
ROOT
ATOM      1  C   UNL     1      45.109   8.354  11.734  0.00  0.00    +0.000 A 
ATOM      2  C   UNL     1      46.085   8.705  12.676  0.00  0.00    +0.000 A 
ATOM      3  C   UNL     1      46.907   7.731  13.255  0.00  0.00    +0.000 A 
ATOM      4  C   UNL     1      46.757   6.390  12.906  0.00  0.00    +0.000 A 
ATOM      5  C   UNL     1      45.814   6.037  11.939  0.00  0.00    +0.000 A 
ATOM      6  C   UNL     1      44.988   7.008  11.363  0.00  0.00    +0.000 A 
ENDROOT
BRANCH   1   7
ATOM      7  C   UNL     1      44.184   9.399  11.165  0.00  0.00    +0.000 C 
BRANCH   7   8
ATOM      8  N   UNL     1      43.770  10.370  12.171  0.00  0.00    +0.000 NA
ATOM      9  H   UNL     1      42.761  10.496  12.116  0.00  0.00    +0.000 HD
ATOM     10  H   UNL     1      44.186  11.272  11.943  0.00  0.00    +0.000 HD
ENDBRANCH   7   8
ENDBRANCH   1   7
BRANCH   4  11
ATOM     11  O   UNL     1      47.504   5.358  13.407  0.00  0.00    +0.000 OA
BRANCH  11  12
ATOM     12  C   UNL     1      46.780   4.423  14.217  0.00  0.00    +0.000 C 
BRANCH  12  13
ATOM     13  C   UNL     1      47.421   4.306  15.584  0.00  0.00    +0.000 A 
ATOM     14  N   UNL     1      48.448   5.139  15.866  0.00  0.00    +0.000 NA
ATOM     15  C   UNL     1      48.986   5.040  17.095  0.00  0.00    +0.000 A 
ATOM     16  C   UNL     1      48.540   4.159  18.049  0.00  0.00    +0.000 A 
ATOM     17  C   UNL     1      47.491   3.356  17.671  0.00  0.00    +0.000 A 
ATOM     18  N   UNL     1      46.912   3.409  16.457  0.00  0.00    +0.000 NA
ENDBRANCH  12  13
ENDBRANCH  11  12
ENDBRANCH   4  11
TORSDOF 5
ENDMDL
