MODEL 1
REMARK VINA RESULT:    -8.046      0.000      0.000
REMARK INTER + INTRA:         -13.175
REMARK INTER:                 -11.809
REMARK INTRA:                  -1.365
REMARK UNBOUND:                -1.365
REMARK  Name = 
REMARK  8 active torsions:
REMARK  status: ('A' for Active; 'I' for Inactive)
REMARK    1  A    between atoms: C_2  and  C_3
REMARK    2  A    between atoms: C_3  and  N_4
REMARK    3  A    between atoms: C_5  and  C_7
REMARK    4  A    between atoms: N_17  and  C_18
REMARK    5  A    between atoms: C_18  and  C_19
REMARK    6  A    between atoms: C_22  and  C_23
REMARK    7  A    between atoms: C_23  and  N_24
REMARK    8  A    between atoms: C_25  and  C_27
REMARK                            x       y       z     vdW  Elec       q    Type
REMARK                         _______ _______ _______ _____ _____    ______ ____
ROOT
ATOM      1  O   UNL     1      46.780   4.945  17.598  0.00  0.00    +0.000 OA
ATOM      2  C   UNL     1      47.286   4.036  16.946  0.00  0.00    +0.000 C 
ATOM      3  N   UNL     1      47.525   4.107  15.592  0.00  0.00    +0.000 N 
ATOM      4  H   UNL     1      47.805   3.263  15.104  0.00  0.00    +0.000 HD
ENDROOT
BRANCH   2   5
ATOM      5  C   UNL     1      47.634   2.683  17.571  0.00  0.00    +0.000 C 
BRANCH   5   6
ATOM      6  N   UNL     1      49.040   2.611  17.909  0.00  0.00    +0.000 N 
ATOM      7  C   UNL     1      49.963   2.102  17.033  0.00  0.00    +0.000 C 
ATOM      8  O   UNL     1      49.638   1.700  15.915  0.00  0.00    +0.000 OA
ATOM      9  H   UNL     1      49.278   2.688  18.895  0.00  0.00    +0.000 HD
BRANCH   7  10
ATOM     10  C   UNL     1      51.363   2.111  17.470  0.00  0.00    +0.000 A 
ATOM     11  C   UNL     1      52.038   0.913  17.657  0.00  0.00    +0.000 A 
ATOM     12  S   UNL     1      53.660   1.113  18.151  0.00  0.00    +0.000 S 
ATOM     13  C   UNL     1      53.502   2.807  18.172  0.00  0.00    +0.000 A 
ATOM     14  N   UNL     1      54.538   3.604  18.549  0.00  0.00    +0.000 NA
ATOM     15  C   UNL     1      54.266   4.867  18.555  0.00  0.00    +0.000 A 
ATOM     16  N   UNL     1      53.053   5.405  18.204  0.00  0.00    +0.000 N 
ATOM     17  C   UNL     1      51.996   4.642  17.768  0.00  0.00    +0.000 A 
ATOM     18  O   UNL     1      50.953   5.153  17.377  0.00  0.00    +0.000 OA
ATOM     19  C   UNL     1      52.240   3.214  17.780  0.00  0.00    +0.000 A 
ATOM     20  H   UNL     1      52.911   6.404  18.207  0.00  0.00    +0.000 HD
ENDBRANCH   7  10
ENDBRANCH   5   6
ENDBRANCH   2   5
BRANCH   3  21
ATOM     21  C   UNL     1      47.238   5.290  14.812  0.00  0.00    +0.000 C 
BRANCH  21  22
ATOM     22  C   UNL     1      46.329   4.973  13.650  0.00  0.00    +0.000 A 
ATOM     23  C   UNL     1      46.095   3.649  13.255  0.00  0.00    +0.000 A 
ATOM     24  C   UNL     1      45.259   3.363  12.167  0.00  0.00    +0.000 A 
ATOM     25  C   UNL     1      44.655   4.397  11.437  0.00  0.00    +0.000 A 
ATOM     26  C   UNL     1      44.887   5.721  11.836  0.00  0.00    +0.000 A 
ATOM     27  C   UNL     1      45.720   6.005  12.923  0.00  0.00    +0.000 A 
BRANCH  25  28
ATOM     28  C   UNL     1      43.787   4.103  10.239  0.00  0.00    +0.000 C 
BRANCH  28  29
ATOM     29  N   UNL     1      44.507   4.222   8.992  0.00  0.00    +0.000 N 
ATOM     30  C   UNL     1      45.091   3.108   8.414  0.00  0.00    +0.000 C 
ATOM     31  O   UNL     1      44.980   1.984   8.897  0.00  0.00    +0.000 OA
ATOM     32  H   UNL     1      44.730   5.146   8.653  0.00  0.00    +0.000 HD
BRANCH  30  33
ATOM     33  C   UNL     1      45.809   3.383   7.093  0.00  0.00    +0.000 C 
ATOM     34  C   UNL     1      46.185   2.113   6.334  0.00  0.00    +0.000 C 
ATOM     35  C   UNL     1      47.611   1.856   6.773  0.00  0.00    +0.000 C 
ATOM     36  N   UNL     1      48.210   3.194   6.816  0.00  0.00    +0.000 NA
ATOM     37  C   UNL     1      47.147   4.093   7.297  0.00  0.00    +0.000 C 
ATOM     38  H   UNL     1      48.470   3.464   5.866  0.00  0.00    +0.000 HD
ENDBRANCH  30  33
ENDBRANCH  28  29
ENDBRANCH  25  28
ENDBRANCH  21  22
ENDBRANCH   3  21
TORSDOF 8
ENDMDL
MODEL 2
REMARK VINA RESULT:    -7.111      3.128      4.848
REMARK INTER + INTRA:         -11.801
REMARK INTER:                 -10.067
REMARK INTRA:                  -1.735
REMARK UNBOUND:                -1.365
REMARK  Name = 
REMARK  8 active torsions:
REMARK  status: ('A' for Active; 'I' for Inactive)
REMARK    1  A    between atoms: C_2  and  C_3
REMARK    2  A    between atoms: C_3  and  N_4
REMARK    3  A    between atoms: C_5  and  C_7
REMARK    4  A    between atoms: N_17  and  C_18
REMARK    5  A    between atoms: C_18  and  C_19
REMARK    6  A    between atoms: C_22  and  C_23
REMARK    7  A    between atoms: C_23  and  N_24
REMARK    8  A    between atoms: C_25  and  C_27
REMARK                            x       y       z     vdW  Elec       q    Type
REMARK                         _______ _______ _______ _____ _____    ______ ____
ROOT
ATOM      1  O   UNL     1      51.491   8.211  12.129  0.00  0.00    +0.000 OA
ATOM      2  C   UNL     1      51.148   8.584  13.248  0.00  0.00    +0.000 C 
ATOM      3  N   UNL     1      50.016   9.328  13.493  0.00  0.00    +0.000 N 
ATOM      4  H   UNL     1      49.885   9.721  14.419  0.00  0.00    +0.000 HD
ENDROOT
BRANCH   2   5
ATOM      5  C   UNL     1      52.002   8.319  14.490  0.00  0.00    +0.000 C 
BRANCH   5   6
ATOM      6  N   UNL     1      51.409   7.293  15.322  0.00  0.00    +0.000 N 
ATOM      7  C   UNL     1      50.956   7.569  16.586  0.00  0.00    +0.000 C 
ATOM      8  O   UNL     1      51.017   8.703  17.060  0.00  0.00    +0.000 OA
ATOM      9  H   UNL     1      51.590   6.328  15.056  0.00  0.00    +0.000 HD
BRANCH   7  10
ATOM     10  C   UNL     1      50.342   6.459  17.323  0.00  0.00    +0.000 A 
ATOM     11  C   UNL     1      50.902   6.027  18.517  0.00  0.00    +0.000 A 
ATOM     12  S   UNL     1      50.051   4.739  19.245  0.00  0.00    +0.000 S 
ATOM     13  C   UNL     1      48.929   4.686  17.966  0.00  0.00    +0.000 A 
ATOM     14  N   UNL     1      47.929   3.764  17.947  0.00  0.00    +0.000 NA
ATOM     15  C   UNL     1      47.175   3.815  16.900  0.00  0.00    +0.000 A 
ATOM     16  N   UNL     1      47.325   4.715  15.873  0.00  0.00    +0.000 N 
ATOM     17  C   UNL     1      48.289   5.696  15.875  0.00  0.00    +0.000 A 
ATOM     18  O   UNL     1      48.346   6.542  14.991  0.00  0.00    +0.000 OA
ATOM     19  C   UNL     1      49.184   5.657  17.014  0.00  0.00    +0.000 A 
ATOM     20  H   UNL     1      46.687   4.718  15.091  0.00  0.00    +0.000 HD
ENDBRANCH   7  10
ENDBRANCH   5   6
ENDBRANCH   2   5
BRANCH   3  21
ATOM     21  C   UNL     1      49.092   9.707  12.448  0.00  0.00    +0.000 C 
BRANCH  21  22
ATOM     22  C   UNL     1      47.945   8.731  12.350  0.00  0.00    +0.000 A 
ATOM     23  C   UNL     1      48.069   7.539  11.624  0.00  0.00    +0.000 A 
ATOM     24  C   UNL     1      46.995   6.644  11.528  0.00  0.00    +0.000 A 
ATOM     25  C   UNL     1      45.766   6.931  12.139  0.00  0.00    +0.000 A 
ATOM     26  C   UNL     1      45.645   8.122  12.868  0.00  0.00    +0.000 A 
ATOM     27  C   UNL     1      46.718   9.014  12.965  0.00  0.00    +0.000 A 
BRANCH  25  28
ATOM     28  C   UNL     1      44.591   5.995  12.006  0.00  0.00    +0.000 C 
BRANCH  28  29
ATOM     29  N   UNL     1      44.480   5.430  10.681  0.00  0.00    +0.000 N 
ATOM     30  C   UNL     1      44.603   4.065  10.492  0.00  0.00    +0.000 C 
ATOM     31  O   UNL     1      44.754   3.284  11.427  0.00  0.00    +0.000 OA
ATOM     32  H   UNL     1      44.497   6.057   9.890  0.00  0.00    +0.000 HD
BRANCH  30  33
ATOM     33  C   UNL     1      44.452   3.611   9.040  0.00  0.00    +0.000 C 
ATOM     34  C   UNL     1      44.499   2.095   8.873  0.00  0.00    +0.000 C 
ATOM     35  C   UNL     1      45.953   1.826   8.549  0.00  0.00    +0.000 C 
ATOM     36  N   UNL     1      46.322   2.929   7.655  0.00  0.00    +0.000 NA
ATOM     37  C   UNL     1      45.595   4.108   8.156  0.00  0.00    +0.000 C 
ATOM     38  H   UNL     1      45.992   2.709   6.714  0.00  0.00    +0.000 HD
ENDBRANCH  30  33
ENDBRANCH  28  29
ENDBRANCH  25  28
ENDBRANCH  21  22
ENDBRANCH   3  21
TORSDOF 8
ENDMDL
MODEL 3
REMARK VINA RESULT:    -7.096      2.931      4.412
REMARK INTER + INTRA:         -11.779
REMARK INTER:                 -10.718
REMARK INTRA:                  -1.061
REMARK UNBOUND:                -1.365
REMARK  Name = 
REMARK  8 active torsions:
REMARK  status: ('A' for Active; 'I' for Inactive)
REMARK    1  A    between atoms: C_2  and  C_3
REMARK    2  A    between atoms: C_3  and  N_4
REMARK    3  A    between atoms: C_5  and  C_7
REMARK    4  A    between atoms: N_17  and  C_18
REMARK    5  A    between atoms: C_18  and  C_19
REMARK    6  A    between atoms: C_22  and  C_23
REMARK    7  A    between atoms: C_23  and  N_24
REMARK    8  A    between atoms: C_25  and  C_27
REMARK                            x       y       z     vdW  Elec       q    Type
REMARK                         _______ _______ _______ _____ _____    ______ ____
ROOT
ATOM      1  O   UNL     1      47.895   9.305  11.806  0.00  0.00    +0.000 OA
ATOM      2  C   UNL     1      47.849   8.910  12.968  0.00  0.00    +0.000 C 
ATOM      3  N   UNL     1      46.680   8.606  13.627  0.00  0.00    +0.000 N 
ATOM      4  H   UNL     1      46.717   8.432  14.626  0.00  0.00    +0.000 HD
ENDROOT
BRANCH   2   5
ATOM      5  C   UNL     1      49.104   8.791  13.836  0.00  0.00    +0.000 C 
BRANCH   5   6
ATOM      6  N   UNL     1      48.895   7.870  14.933  0.00  0.00    +0.000 N 
ATOM      7  C   UNL     1      49.946   7.260  15.568  0.00  0.00    +0.000 C 
ATOM      8  O   UNL     1      51.112   7.484  15.243  0.00  0.00    +0.000 OA
ATOM      9  H   UNL     1      47.960   7.483  15.033  0.00  0.00    +0.000 HD
BRANCH   7  10
ATOM     10  C   UNL     1      49.616   6.374  16.688  0.00  0.00    +0.000 A 
ATOM     11  C   UNL     1      50.242   6.546  17.915  0.00  0.00    +0.000 A 
ATOM     12  S   UNL     1      49.727   5.438  19.107  0.00  0.00    +0.000 S 
ATOM     13  C   UNL     1      48.679   4.664  18.011  0.00  0.00    +0.000 A 
ATOM     14  N   UNL     1      47.942   3.584  18.388  0.00  0.00    +0.000 NA
ATOM     15  C   UNL     1      47.221   3.075  17.446  0.00  0.00    +0.000 A 
ATOM     16  N   UNL     1      47.161   3.557  16.162  0.00  0.00    +0.000 N 
ATOM     17  C   UNL     1      47.847   4.675  15.751  0.00  0.00    +0.000 A 
ATOM     18  O   UNL     1      47.708   5.136  14.624  0.00  0.00    +0.000 OA
ATOM     19  C   UNL     1      48.702   5.261  16.764  0.00  0.00    +0.000 A 
ATOM     20  H   UNL     1      46.558   3.127  15.476  0.00  0.00    +0.000 HD
ENDBRANCH   7  10
ENDBRANCH   5   6
ENDBRANCH   2   5
BRANCH   3  21
ATOM     21  C   UNL     1      45.385   8.682  12.990  0.00  0.00    +0.000 C 
BRANCH  21  22
ATOM     22  C   UNL     1      45.046   7.393  12.283  0.00  0.00    +0.000 A 
ATOM     23  C   UNL     1      45.947   6.321  12.261  0.00  0.00    +0.000 A 
ATOM     24  C   UNL     1      45.630   5.131  11.591  0.00  0.00    +0.000 A 
ATOM     25  C   UNL     1      44.411   4.996  10.910  0.00  0.00    +0.000 A 
ATOM     26  C   UNL     1      43.509   6.068  10.936  0.00  0.00    +0.000 A 
ATOM     27  C   UNL     1      43.826   7.255  11.607  0.00  0.00    +0.000 A 
BRANCH  25  28
ATOM     28  C   UNL     1      44.077   3.737  10.151  0.00  0.00    +0.000 C 
BRANCH  28  29
ATOM     29  N   UNL     1      44.696   3.696   8.846  0.00  0.00    +0.000 N 
ATOM     30  C   UNL     1      45.367   2.561   8.427  0.00  0.00    +0.000 C 
ATOM     31  O   UNL     1      45.418   1.540   9.108  0.00  0.00    +0.000 OA
ATOM     32  H   UNL     1      44.788   4.560   8.332  0.00  0.00    +0.000 HD
BRANCH  30  33
ATOM     33  C   UNL     1      45.961   2.659   7.022  0.00  0.00    +0.000 C 
ATOM     34  C   UNL     1      46.707   1.399   6.592  0.00  0.00    +0.000 C 
ATOM     35  C   UNL     1      48.145   1.706   6.956  0.00  0.00    +0.000 C 
ATOM     36  N   UNL     1      48.304   3.118   6.594  0.00  0.00    +0.000 NA
ATOM     37  C   UNL     1      47.017   3.759   6.915  0.00  0.00    +0.000 C 
ATOM     38  H   UNL     1      48.464   3.179   5.588  0.00  0.00    +0.000 HD
ENDBRANCH  30  33
ENDBRANCH  28  29
ENDBRANCH  25  28
ENDBRANCH  21  22
ENDBRANCH   3  21
TORSDOF 8
ENDMDL
MODEL 4
REMARK VINA RESULT:    -6.996      3.983      9.625
REMARK INTER + INTRA:         -11.633
REMARK INTER:                  -9.821
REMARK INTRA:                  -1.812
REMARK UNBOUND:                -1.365
REMARK  Name = 
REMARK  8 active torsions:
REMARK  status: ('A' for Active; 'I' for Inactive)
REMARK    1  A    between atoms: C_2  and  C_3
REMARK    2  A    between atoms: C_3  and  N_4
REMARK    3  A    between atoms: C_5  and  C_7
REMARK    4  A    between atoms: N_17  and  C_18
REMARK    5  A    between atoms: C_18  and  C_19
REMARK    6  A    between atoms: C_22  and  C_23
REMARK    7  A    between atoms: C_23  and  N_24
REMARK    8  A    between atoms: C_25  and  C_27
REMARK                            x       y       z     vdW  Elec       q    Type
REMARK                         _______ _______ _______ _____ _____    ______ ____
ROOT
ATOM      1  O   UNL     1      51.168   8.379  11.292  0.00  0.00    +0.000 OA
ATOM      2  C   UNL     1      50.467   9.037  12.057  0.00  0.00    +0.000 C 
ATOM      3  N   UNL     1      50.872   9.440  13.309  0.00  0.00    +0.000 N 
ATOM      4  H   UNL     1      50.183   9.848  13.933  0.00  0.00    +0.000 HD
ENDROOT
BRANCH   2   5
ATOM      5  C   UNL     1      49.024   9.412  11.715  0.00  0.00    +0.000 C 
BRANCH   5   6
ATOM      6  N   UNL     1      48.157   8.254  11.771  0.00  0.00    +0.000 N 
ATOM      7  C   UNL     1      47.611   7.823  12.953  0.00  0.00    +0.000 C 
ATOM      8  O   UNL     1      47.821   8.412  14.013  0.00  0.00    +0.000 OA
ATOM      9  H   UNL     1      48.188   7.621  10.975  0.00  0.00    +0.000 HD
BRANCH   7  10
ATOM     10  C   UNL     1      46.720   6.661  12.882  0.00  0.00    +0.000 A 
ATOM     11  C   UNL     1      47.134   5.439  13.394  0.00  0.00    +0.000 A 
ATOM     12  S   UNL     1      45.966   4.203  13.242  0.00  0.00    +0.000 S 
ATOM     13  C   UNL     1      44.884   5.249  12.446  0.00  0.00    +0.000 A 
ATOM     14  N   UNL     1      43.677   4.805  12.002  0.00  0.00    +0.000 NA
ATOM     15  C   UNL     1      42.976   5.696  11.384  0.00  0.00    +0.000 A 
ATOM     16  N   UNL     1      43.368   6.996  11.181  0.00  0.00    +0.000 N 
ATOM     17  C   UNL     1      44.555   7.500  11.658  0.00  0.00    +0.000 A 
ATOM     18  O   UNL     1      44.842   8.686  11.540  0.00  0.00    +0.000 OA
ATOM     19  C   UNL     1      45.395   6.529  12.327  0.00  0.00    +0.000 A 
ATOM     20  H   UNL     1      42.762   7.651  10.710  0.00  0.00    +0.000 HD
ENDBRANCH   7  10
ENDBRANCH   5   6
ENDBRANCH   2   5
BRANCH   3  21
ATOM     21  C   UNL     1      52.190   9.159  13.830  0.00  0.00    +0.000 C 
BRANCH  21  22
ATOM     22  C   UNL     1      52.153   8.041  14.842  0.00  0.00    +0.000 A 
ATOM     23  C   UNL     1      50.943   7.614  15.404  0.00  0.00    +0.000 A 
ATOM     24  C   UNL     1      50.918   6.583  16.354  0.00  0.00    +0.000 A 
ATOM     25  C   UNL     1      52.106   5.970  16.777  0.00  0.00    +0.000 A 
ATOM     26  C   UNL     1      53.316   6.397  16.211  0.00  0.00    +0.000 A 
ATOM     27  C   UNL     1      53.340   7.425  15.262  0.00  0.00    +0.000 A 
BRANCH  25  28
ATOM     28  C   UNL     1      52.095   4.890  17.829  0.00  0.00    +0.000 C 
BRANCH  28  29
ATOM     29  N   UNL     1      50.766   4.612  18.323  0.00  0.00    +0.000 N 
ATOM     30  C   UNL     1      50.030   3.566  17.797  0.00  0.00    +0.000 C 
ATOM     31  O   UNL     1      50.484   2.809  16.942  0.00  0.00    +0.000 OA
ATOM     32  H   UNL     1      50.323   5.297  18.918  0.00  0.00    +0.000 HD
BRANCH  30  33
ATOM     33  C   UNL     1      48.648   3.385  18.424  0.00  0.00    +0.000 C 
ATOM     34  C   UNL     1      47.610   2.832  17.451  0.00  0.00    +0.000 C 
ATOM     35  C   UNL     1      46.935   4.079  16.919  0.00  0.00    +0.000 C 
ATOM     36  N   UNL     1      46.820   4.945  18.097  0.00  0.00    +0.000 NA
ATOM     37  C   UNL     1      48.043   4.711  18.885  0.00  0.00    +0.000 C 
ATOM     38  H   UNL     1      46.011   4.646  18.642  0.00  0.00    +0.000 HD
ENDBRANCH  30  33
ENDBRANCH  28  29
ENDBRANCH  25  28
ENDBRANCH  21  22
ENDBRANCH   3  21
TORSDOF 8
ENDMDL
MODEL 5
REMARK VINA RESULT:    -6.821      4.070     10.751
REMARK INTER + INTRA:         -11.376
REMARK INTER:                 -10.345
REMARK INTRA:                  -1.031
REMARK UNBOUND:                -1.365
REMARK  Name = 
REMARK  8 active torsions:
REMARK  status: ('A' for Active; 'I' for Inactive)
REMARK    1  A    between atoms: C_2  and  C_3
REMARK    2  A    between atoms: C_3  and  N_4
REMARK    3  A    between atoms: C_5  and  C_7
REMARK    4  A    between atoms: N_17  and  C_18
REMARK    5  A    between atoms: C_18  and  C_19
REMARK    6  A    between atoms: C_22  and  C_23
REMARK    7  A    between atoms: C_23  and  N_24
REMARK    8  A    between atoms: C_25  and  C_27
REMARK                            x       y       z     vdW  Elec       q    Type
REMARK                         _______ _______ _______ _____ _____    ______ ____
ROOT
ATOM      1  O   UNL     1      47.421   4.542  16.727  0.00  0.00    +0.000 OA
ATOM      2  C   UNL     1      48.367   5.255  16.402  0.00  0.00    +0.000 C 
ATOM      3  N   UNL     1      49.523   5.375  17.140  0.00  0.00    +0.000 N 
ATOM      4  H   UNL     1      50.190   6.095  16.881  0.00  0.00    +0.000 HD
ENDROOT
BRANCH   2   5
ATOM      5  C   UNL     1      48.320   6.152  15.163  0.00  0.00    +0.000 C 
BRANCH   5   6
ATOM      6  N   UNL     1      47.097   5.944  14.415  0.00  0.00    +0.000 N 
ATOM      7  C   UNL     1      46.987   6.325  13.103  0.00  0.00    +0.000 C 
ATOM      8  O   UNL     1      47.927   6.842  12.500  0.00  0.00    +0.000 OA
ATOM      9  H   UNL     1      46.254   5.769  14.957  0.00  0.00    +0.000 HD
BRANCH   7  10
ATOM     10  C   UNL     1      45.714   6.032  12.436  0.00  0.00    +0.000 A 
ATOM     11  C   UNL     1      44.974   7.063  11.875  0.00  0.00    +0.000 A 
ATOM     12  S   UNL     1      43.530   6.540  11.129  0.00  0.00    +0.000 S 
ATOM     13  C   UNL     1      43.824   4.922  11.569  0.00  0.00    +0.000 A 
ATOM     14  N   UNL     1      42.937   3.938  11.261  0.00  0.00    +0.000 NA
ATOM     15  C   UNL     1      43.270   2.766  11.689  0.00  0.00    +0.000 A 
ATOM     16  N   UNL     1      44.418   2.488  12.389  0.00  0.00    +0.000 N 
ATOM     17  C   UNL     1      45.366   3.441  12.677  0.00  0.00    +0.000 A 
ATOM     18  O   UNL     1      46.423   3.150  13.224  0.00  0.00    +0.000 OA
ATOM     19  C   UNL     1      45.021   4.781  12.249  0.00  0.00    +0.000 A 
ATOM     20  H   UNL     1      44.632   1.544  12.676  0.00  0.00    +0.000 HD
ENDBRANCH   7  10
ENDBRANCH   5   6
ENDBRANCH   2   5
BRANCH   3  21
ATOM     21  C   UNL     1      49.750   4.632  18.358  0.00  0.00    +0.000 C 
BRANCH  21  22
ATOM     22  C   UNL     1      50.859   3.624  18.187  0.00  0.00    +0.000 A 
ATOM     23  C   UNL     1      52.163   3.904  18.616  0.00  0.00    +0.000 A 
ATOM     24  C   UNL     1      53.192   2.967  18.442  0.00  0.00    +0.000 A 
ATOM     25  C   UNL     1      52.941   1.737  17.816  0.00  0.00    +0.000 A 
ATOM     26  C   UNL     1      51.636   1.458  17.390  0.00  0.00    +0.000 A 
ATOM     27  C   UNL     1      50.610   2.393  17.565  0.00  0.00    +0.000 A 
BRANCH  25  28
ATOM     28  C   UNL     1      54.049   0.739  17.585  0.00  0.00    +0.000 C 
BRANCH  28  29
ATOM     29  N   UNL     1      54.014  -0.354  18.529  0.00  0.00    +0.000 N 
ATOM     30  C   UNL     1      54.516  -1.595  18.179  0.00  0.00    +0.000 C 
ATOM     31  O   UNL     1      55.051  -1.803  17.092  0.00  0.00    +0.000 OA
ATOM     32  H   UNL     1      53.460  -0.248  19.366  0.00  0.00    +0.000 HD
BRANCH  30  33
ATOM     33  C   UNL     1      54.423  -2.650  19.280  0.00  0.00    +0.000 C 
ATOM     34  C   UNL     1      54.998  -4.003  18.871  0.00  0.00    +0.000 C 
ATOM     35  C   UNL     1      53.783  -4.762  18.380  0.00  0.00    +0.000 C 
ATOM     36  N   UNL     1      52.728  -4.384  19.326  0.00  0.00    +0.000 NA
ATOM     37  C   UNL     1      52.976  -2.970  19.655  0.00  0.00    +0.000 C 
ATOM     38  H   UNL     1      52.833  -4.946  20.171  0.00  0.00    +0.000 HD
ENDBRANCH  30  33
ENDBRANCH  28  29
ENDBRANCH  25  28
ENDBRANCH  21  22
ENDBRANCH   3  21
TORSDOF 8
ENDMDL
MODEL 6
REMARK VINA RESULT:    -6.710      3.388      9.916
REMARK INTER + INTRA:         -11.214
REMARK INTER:                  -9.897
REMARK INTRA:                  -1.316
REMARK UNBOUND:                -1.365
REMARK  Name = 
REMARK  8 active torsions:
REMARK  status: ('A' for Active; 'I' for Inactive)
REMARK    1  A    between atoms: C_2  and  C_3
REMARK    2  A    between atoms: C_3  and  N_4
REMARK    3  A    between atoms: C_5  and  C_7
REMARK    4  A    between atoms: N_17  and  C_18
REMARK    5  A    between atoms: C_18  and  C_19
REMARK    6  A    between atoms: C_22  and  C_23
REMARK    7  A    between atoms: C_23  and  N_24
REMARK    8  A    between atoms: C_25  and  C_27
REMARK                            x       y       z     vdW  Elec       q    Type
REMARK                         _______ _______ _______ _____ _____    ______ ____
ROOT
ATOM      1  O   UNL     1      49.961   7.835  12.420  0.00  0.00    +0.000 OA
ATOM      2  C   UNL     1      48.817   8.143  12.743  0.00  0.00    +0.000 C 
ATOM      3  N   UNL     1      48.434   8.413  14.037  0.00  0.00    +0.000 N 
ATOM      4  H   UNL     1      47.444   8.511  14.240  0.00  0.00    +0.000 HD
ENDROOT
BRANCH   2   5
ATOM      5  C   UNL     1      47.669   8.179  11.731  0.00  0.00    +0.000 C 
BRANCH   5   6
ATOM      6  N   UNL     1      46.929   6.935  11.738  0.00  0.00    +0.000 N 
ATOM      7  C   UNL     1      45.560   6.915  11.654  0.00  0.00    +0.000 C 
ATOM      8  O   UNL     1      44.905   7.951  11.551  0.00  0.00    +0.000 OA
ATOM      9  H   UNL     1      47.419   6.112  12.081  0.00  0.00    +0.000 HD
BRANCH   7  10
ATOM     10  C   UNL     1      44.920   5.596  11.634  0.00  0.00    +0.000 A 
ATOM     11  C   UNL     1      44.215   5.151  12.744  0.00  0.00    +0.000 A 
ATOM     12  S   UNL     1      43.524   3.603  12.541  0.00  0.00    +0.000 S 
ATOM     13  C   UNL     1      44.181   3.456  10.977  0.00  0.00    +0.000 A 
ATOM     14  N   UNL     1      43.994   2.328  10.240  0.00  0.00    +0.000 NA
ATOM     15  C   UNL     1      44.579   2.339   9.090  0.00  0.00    +0.000 A 
ATOM     16  N   UNL     1      45.326   3.383   8.603  0.00  0.00    +0.000 N 
ATOM     17  C   UNL     1      45.499   4.561   9.291  0.00  0.00    +0.000 A 
ATOM     18  O   UNL     1      46.096   5.511   8.798  0.00  0.00    +0.000 OA
ATOM     19  C   UNL     1      44.891   4.584  10.606  0.00  0.00    +0.000 A 
ATOM     20  H   UNL     1      45.739   3.339   7.684  0.00  0.00    +0.000 HD
ENDBRANCH   7  10
ENDBRANCH   5   6
ENDBRANCH   2   5
BRANCH   3  21
ATOM     21  C   UNL     1      49.364   8.403  15.143  0.00  0.00    +0.000 C 
BRANCH  21  22
ATOM     22  C   UNL     1      49.426   7.044  15.794  0.00  0.00    +0.000 A 
ATOM     23  C   UNL     1      48.319   6.185  15.783  0.00  0.00    +0.000 A 
ATOM     24  C   UNL     1      48.380   4.928  16.402  0.00  0.00    +0.000 A 
ATOM     25  C   UNL     1      49.545   4.511  17.062  0.00  0.00    +0.000 A 
ATOM     26  C   UNL     1      50.652   5.370  17.069  0.00  0.00    +0.000 A 
ATOM     27  C   UNL     1      50.591   6.623  16.451  0.00  0.00    +0.000 A 
BRANCH  25  28
ATOM     28  C   UNL     1      49.607   3.179  17.767  0.00  0.00    +0.000 C 
BRANCH  28  29
ATOM     29  N   UNL     1      50.941   2.851  18.213  0.00  0.00    +0.000 N 
ATOM     30  C   UNL     1      51.612   1.769  17.671  0.00  0.00    +0.000 C 
ATOM     31  O   UNL     1      51.135   1.087  16.767  0.00  0.00    +0.000 OA
ATOM     32  H   UNL     1      51.295   3.304  19.043  0.00  0.00    +0.000 HD
BRANCH  30  33
ATOM     33  C   UNL     1      53.017   1.549  18.231  0.00  0.00    +0.000 C 
ATOM     34  C   UNL     1      53.651   2.820  18.789  0.00  0.00    +0.000 C 
ATOM     35  C   UNL     1      54.464   3.342  17.622  0.00  0.00    +0.000 C 
ATOM     36  N   UNL     1      55.039   2.132  17.027  0.00  0.00    +0.000 NA
ATOM     37  C   UNL     1      54.004   1.092  17.157  0.00  0.00    +0.000 C 
ATOM     38  H   UNL     1      55.857   1.858  17.573  0.00  0.00    +0.000 HD
ENDBRANCH  30  33
ENDBRANCH  28  29
ENDBRANCH  25  28
ENDBRANCH  21  22
ENDBRANCH   3  21
TORSDOF 8
ENDMDL
MODEL 7
REMARK VINA RESULT:    -6.683      2.184      3.195
REMARK INTER + INTRA:         -11.173
REMARK INTER:                 -10.174
REMARK INTRA:                  -0.999
REMARK UNBOUND:                -1.365
REMARK  Name = 
REMARK  8 active torsions:
REMARK  status: ('A' for Active; 'I' for Inactive)
REMARK    1  A    between atoms: C_2  and  C_3
REMARK    2  A    between atoms: C_3  and  N_4
REMARK    3  A    between atoms: C_5  and  C_7
REMARK    4  A    between atoms: N_17  and  C_18
REMARK    5  A    between atoms: C_18  and  C_19
REMARK    6  A    between atoms: C_22  and  C_23
REMARK    7  A    between atoms: C_23  and  N_24
REMARK    8  A    between atoms: C_25  and  C_27
REMARK                            x       y       z     vdW  Elec       q    Type
REMARK                         _______ _______ _______ _____ _____    ______ ____
ROOT
ATOM      1  O   UNL     1      47.618   7.720  15.034  0.00  0.00    +0.000 OA
ATOM      2  C   UNL     1      48.443   7.128  14.342  0.00  0.00    +0.000 C 
ATOM      3  N   UNL     1      48.258   5.856  13.851  0.00  0.00    +0.000 N 
ATOM      4  H   UNL     1      49.045   5.384  13.418  0.00  0.00    +0.000 HD
ENDROOT
BRANCH   2   5
ATOM      5  C   UNL     1      49.813   7.729  14.020  0.00  0.00    +0.000 C 
BRANCH   5   6
ATOM      6  N   UNL     1      50.865   7.047  14.745  0.00  0.00    +0.000 N 
ATOM      7  C   UNL     1      51.105   7.305  16.070  0.00  0.00    +0.000 C 
ATOM      8  O   UNL     1      50.426   8.112  16.703  0.00  0.00    +0.000 OA
ATOM      9  H   UNL     1      51.583   6.591  14.187  0.00  0.00    +0.000 HD
BRANCH   7  10
ATOM     10  C   UNL     1      52.173   6.529  16.709  0.00  0.00    +0.000 A 
ATOM     11  C   UNL     1      53.450   7.062  16.811  0.00  0.00    +0.000 A 
ATOM     12  S   UNL     1      54.561   6.030  17.596  0.00  0.00    +0.000 S 
ATOM     13  C   UNL     1      53.383   4.817  17.787  0.00  0.00    +0.000 A 
ATOM     14  N   UNL     1      53.689   3.626  18.367  0.00  0.00    +0.000 NA
ATOM     15  C   UNL     1      52.709   2.786  18.412  0.00  0.00    +0.000 A 
ATOM     16  N   UNL     1      51.445   3.036  17.939  0.00  0.00    +0.000 N 
ATOM     17  C   UNL     1      51.077   4.243  17.393  0.00  0.00    +0.000 A 
ATOM     18  O   UNL     1      49.921   4.471  17.059  0.00  0.00    +0.000 OA
ATOM     19  C   UNL     1      52.153   5.207  17.286  0.00  0.00    +0.000 A 
ATOM     20  H   UNL     1      50.715   2.345  18.025  0.00  0.00    +0.000 HD
ENDBRANCH   7  10
ENDBRANCH   5   6
ENDBRANCH   2   5
BRANCH   3  21
ATOM     21  C   UNL     1      47.042   5.106  14.070  0.00  0.00    +0.000 C 
BRANCH  21  22
ATOM     22  C   UNL     1      46.259   4.946  12.790  0.00  0.00    +0.000 A 
ATOM     23  C   UNL     1      45.588   3.752  12.497  0.00  0.00    +0.000 A 
ATOM     24  C   UNL     1      44.872   3.606  11.301  0.00  0.00    +0.000 A 
ATOM     25  C   UNL     1      44.830   4.646  10.361  0.00  0.00    +0.000 A 
ATOM     26  C   UNL     1      45.498   5.842  10.657  0.00  0.00    +0.000 A 
ATOM     27  C   UNL     1      46.211   5.987  11.852  0.00  0.00    +0.000 A 
BRANCH  25  28
ATOM     28  C   UNL     1      44.098   4.485   9.052  0.00  0.00    +0.000 C 
BRANCH  28  29
ATOM     29  N   UNL     1      44.616   3.394   8.259  0.00  0.00    +0.000 N 
ATOM     30  C   UNL     1      45.756   3.567   7.493  0.00  0.00    +0.000 C 
ATOM     31  O   UNL     1      46.395   4.617   7.495  0.00  0.00    +0.000 OA
ATOM     32  H   UNL     1      44.038   2.577   8.132  0.00  0.00    +0.000 HD
BRANCH  30  33
ATOM     33  C   UNL     1      46.192   2.326   6.717  0.00  0.00    +0.000 C 
ATOM     34  C   UNL     1      47.252   1.501   7.441  0.00  0.00    +0.000 C 
ATOM     35  C   UNL     1      48.551   2.019   6.861  0.00  0.00    +0.000 C 
ATOM     36  N   UNL     1      48.249   2.206   5.438  0.00  0.00    +0.000 NA
ATOM     37  C   UNL     1      46.855   2.678   5.385  0.00  0.00    +0.000 C 
ATOM     38  H   UNL     1      48.312   1.301   4.971  0.00  0.00    +0.000 HD
ENDBRANCH  30  33
ENDBRANCH  28  29
ENDBRANCH  25  28
ENDBRANCH  21  22
ENDBRANCH   3  21
TORSDOF 8
ENDMDL
MODEL 8
REMARK VINA RESULT:    -6.479      3.344      5.513
REMARK INTER + INTRA:         -10.875
REMARK INTER:                  -9.283
REMARK INTRA:                  -1.592
REMARK UNBOUND:                -1.365
REMARK  Name = 
REMARK  8 active torsions:
REMARK  status: ('A' for Active; 'I' for Inactive)
REMARK    1  A    between atoms: C_2  and  C_3
REMARK    2  A    between atoms: C_3  and  N_4
REMARK    3  A    between atoms: C_5  and  C_7
REMARK    4  A    between atoms: N_17  and  C_18
REMARK    5  A    between atoms: C_18  and  C_19
REMARK    6  A    between atoms: C_22  and  C_23
REMARK    7  A    between atoms: C_23  and  N_24
REMARK    8  A    between atoms: C_25  and  C_27
REMARK                            x       y       z     vdW  Elec       q    Type
REMARK                         _______ _______ _______ _____ _____    ______ ____
ROOT
ATOM      1  O   UNL     1      52.191  10.099  14.351  0.00  0.00    +0.000 OA
ATOM      2  C   UNL     1      52.497   8.916  14.220  0.00  0.00    +0.000 C 
ATOM      3  N   UNL     1      52.141   8.150  13.134  0.00  0.00    +0.000 N 
ATOM      4  H   UNL     1      52.302   7.149  13.173  0.00  0.00    +0.000 HD
ENDROOT
BRANCH   2   5
ATOM      5  C   UNL     1      53.248   8.147  15.309  0.00  0.00    +0.000 C 
BRANCH   5   6
ATOM      6  N   UNL     1      52.550   6.929  15.663  0.00  0.00    +0.000 N 
ATOM      7  C   UNL     1      51.939   6.781  16.881  0.00  0.00    +0.000 C 
ATOM      8  O   UNL     1      51.943   7.683  17.718  0.00  0.00    +0.000 OA
ATOM      9  H   UNL     1      52.759   6.103  15.106  0.00  0.00    +0.000 HD
BRANCH   7  10
ATOM     10  C   UNL     1      51.232   5.518  17.116  0.00  0.00    +0.000 A 
ATOM     11  C   UNL     1      51.942   4.386  17.491  0.00  0.00    +0.000 A 
ATOM     12  S   UNL     1      50.960   3.012  17.736  0.00  0.00    +0.000 S 
ATOM     13  C   UNL     1      49.555   3.872  17.306  0.00  0.00    +0.000 A 
ATOM     14  N   UNL     1      48.340   3.262  17.273  0.00  0.00    +0.000 NA
ATOM     15  C   UNL     1      47.370   4.025  16.894  0.00  0.00    +0.000 A 
ATOM     16  N   UNL     1      47.504   5.349  16.556  0.00  0.00    +0.000 N 
ATOM     17  C   UNL     1      48.702   6.019  16.625  0.00  0.00    +0.000 A 
ATOM     18  O   UNL     1      48.779   7.222  16.403  0.00  0.00    +0.000 OA
ATOM     19  C   UNL     1      49.830   5.196  17.010  0.00  0.00    +0.000 A 
ATOM     20  H   UNL     1      46.700   5.898  16.290  0.00  0.00    +0.000 HD
ENDBRANCH   7  10
ENDBRANCH   5   6
ENDBRANCH   2   5
BRANCH   3  21
ATOM     21  C   UNL     1      51.404   8.685  12.012  0.00  0.00    +0.000 C 
BRANCH  21  22
ATOM     22  C   UNL     1      49.917   8.511  12.200  0.00  0.00    +0.000 A 
ATOM     23  C   UNL     1      49.012   9.484  11.757  0.00  0.00    +0.000 A 
ATOM     24  C   UNL     1      47.633   9.321  11.947  0.00  0.00    +0.000 A 
ATOM     25  C   UNL     1      47.130   8.189  12.603  0.00  0.00    +0.000 A 
ATOM     26  C   UNL     1      48.035   7.214  13.043  0.00  0.00    +0.000 A 
ATOM     27  C   UNL     1      49.412   7.377  12.852  0.00  0.00    +0.000 A 
BRANCH  25  28
ATOM     28  C   UNL     1      45.651   8.023  12.850  0.00  0.00    +0.000 C 
BRANCH  28  29
ATOM     29  N   UNL     1      45.020   7.163  11.876  0.00  0.00    +0.000 N 
ATOM     30  C   UNL     1      44.798   5.828  12.163  0.00  0.00    +0.000 C 
ATOM     31  O   UNL     1      45.073   5.337  13.256  0.00  0.00    +0.000 OA
ATOM     32  H   UNL     1      44.915   7.504  10.932  0.00  0.00    +0.000 HD
BRANCH  30  33
ATOM     33  C   UNL     1      44.113   5.044  11.044  0.00  0.00    +0.000 C 
ATOM     34  C   UNL     1      42.851   4.317  11.501  0.00  0.00    +0.000 C 
ATOM     35  C   UNL     1      43.353   2.927  11.832  0.00  0.00    +0.000 C 
ATOM     36  N   UNL     1      44.327   2.644  10.772  0.00  0.00    +0.000 NA
ATOM     37  C   UNL     1      44.998   3.926  10.494  0.00  0.00    +0.000 C 
ATOM     38  H   UNL     1      43.821   2.346   9.938  0.00  0.00    +0.000 HD
ENDBRANCH  30  33
ENDBRANCH  28  29
ENDBRANCH  25  28
ENDBRANCH  21  22
ENDBRANCH   3  21
TORSDOF 8
ENDMDL
MODEL 9
REMARK VINA RESULT:    -6.439      3.917     10.684
REMARK INTER + INTRA:         -10.815
REMARK INTER:                  -9.622
REMARK INTRA:                  -1.193
REMARK UNBOUND:                -1.365
REMARK  Name = 
REMARK  8 active torsions:
REMARK  status: ('A' for Active; 'I' for Inactive)
REMARK    1  A    between atoms: C_2  and  C_3
REMARK    2  A    between atoms: C_3  and  N_4
REMARK    3  A    between atoms: C_5  and  C_7
REMARK    4  A    between atoms: N_17  and  C_18
REMARK    5  A    between atoms: C_18  and  C_19
REMARK    6  A    between atoms: C_22  and  C_23
REMARK    7  A    between atoms: C_23  and  N_24
REMARK    8  A    between atoms: C_25  and  C_27
REMARK                            x       y       z     vdW  Elec       q    Type
REMARK                         _______ _______ _______ _____ _____    ______ ____
ROOT
ATOM      1  O   UNL     1      47.663   4.220  16.639  0.00  0.00    +0.000 OA
ATOM      2  C   UNL     1      48.328   5.248  16.540  0.00  0.00    +0.000 C 
ATOM      3  N   UNL     1      49.031   5.809  17.582  0.00  0.00    +0.000 N 
ATOM      4  H   UNL     1      49.428   6.734  17.457  0.00  0.00    +0.000 HD
ENDROOT
BRANCH   2   5
ATOM      5  C   UNL     1      48.376   6.062  15.245  0.00  0.00    +0.000 C 
BRANCH   5   6
ATOM      6  N   UNL     1      47.161   5.891  14.476  0.00  0.00    +0.000 N 
ATOM      7  C   UNL     1      47.091   6.253  13.156  0.00  0.00    +0.000 C 
ATOM      8  O   UNL     1      48.063   6.721  12.563  0.00  0.00    +0.000 OA
ATOM      9  H   UNL     1      46.301   5.760  15.004  0.00  0.00    +0.000 HD
BRANCH   7  10
ATOM     10  C   UNL     1      45.820   6.001  12.469  0.00  0.00    +0.000 A 
ATOM     11  C   UNL     1      45.118   7.056  11.903  0.00  0.00    +0.000 A 
ATOM     12  S   UNL     1      43.670   6.580  11.134  0.00  0.00    +0.000 S 
ATOM     13  C   UNL     1      43.911   4.952  11.568  0.00  0.00    +0.000 A 
ATOM     14  N   UNL     1      43.001   3.996  11.242  0.00  0.00    +0.000 NA
ATOM     15  C   UNL     1      43.293   2.812  11.667  0.00  0.00    +0.000 A 
ATOM     16  N   UNL     1      44.422   2.496  12.382  0.00  0.00    +0.000 N 
ATOM     17  C   UNL     1      45.394   3.420  12.689  0.00  0.00    +0.000 A 
ATOM     18  O   UNL     1      46.434   3.095  13.250  0.00  0.00    +0.000 OA
ATOM     19  C   UNL     1      45.093   4.772  12.265  0.00  0.00    +0.000 A 
ATOM     20  H   UNL     1      44.605   1.546  12.666  0.00  0.00    +0.000 HD
ENDBRANCH   7  10
ENDBRANCH   5   6
ENDBRANCH   2   5
BRANCH   3  21
ATOM     21  C   UNL     1      49.087   5.208  18.895  0.00  0.00    +0.000 C 
BRANCH  21  22
ATOM     22  C   UNL     1      50.481   4.731  19.220  0.00  0.00    +0.000 A 
ATOM     23  C   UNL     1      51.224   3.984  18.296  0.00  0.00    +0.000 A 
ATOM     24  C   UNL     1      52.514   3.534  18.610  0.00  0.00    +0.000 A 
ATOM     25  C   UNL     1      53.082   3.805  19.863  0.00  0.00    +0.000 A 
ATOM     26  C   UNL     1      52.339   4.555  20.785  0.00  0.00    +0.000 A 
ATOM     27  C   UNL     1      51.052   5.005  20.470  0.00  0.00    +0.000 A 
BRANCH  25  28
ATOM     28  C   UNL     1      54.452   3.290  20.227  0.00  0.00    +0.000 C 
BRANCH  28  29
ATOM     29  N   UNL     1      54.982   2.380  19.238  0.00  0.00    +0.000 N 
ATOM     30  C   UNL     1      55.225   1.058  19.564  0.00  0.00    +0.000 C 
ATOM     31  O   UNL     1      54.955   0.595  20.670  0.00  0.00    +0.000 OA
ATOM     32  H   UNL     1      55.339   2.765  18.376  0.00  0.00    +0.000 HD
BRANCH  30  33
ATOM     33  C   UNL     1      55.775   0.213  18.416  0.00  0.00    +0.000 C 
ATOM     34  C   UNL     1      55.431   0.770  17.037  0.00  0.00    +0.000 C 
ATOM     35  C   UNL     1      54.172   0.016  16.662  0.00  0.00    +0.000 C 
ATOM     36  N   UNL     1      54.424  -1.347  17.141  0.00  0.00    +0.000 NA
ATOM     37  C   UNL     1      55.181  -1.196  18.396  0.00  0.00    +0.000 C 
ATOM     38  H   UNL     1      55.008  -1.829  16.457  0.00  0.00    +0.000 HD
ENDBRANCH  30  33
ENDBRANCH  28  29
ENDBRANCH  25  28
ENDBRANCH  21  22
ENDBRANCH   3  21
TORSDOF 8
ENDMDL
