MODEL 1
REMARK VINA RESULT:    -7.454      0.000      0.000
REMARK INTER + INTRA:         -11.341
REMARK INTER:                 -10.287
REMARK INTRA:                  -1.055
REMARK UNBOUND:                -1.055
REMARK  Name = 
REMARK  7 active torsions:
REMARK  status: ('A' for Active; 'I' for Inactive)
REMARK    1  A    between atoms: C_2  and  C_19
REMARK    2  A    between atoms: N_3  and  C_4
REMARK    3  A    between atoms: C_4  and  C_5
REMARK    4  A    between atoms: C_8  and  C_9
REMARK    5  A    between atoms: C_9  and  N_10
REMARK    6  A    between atoms: C_13  and  C_14
REMARK    7  A    between atoms: C_14  and  O_15
REMARK                            x       y       z     vdW  Elec       q    Type
REMARK                         _______ _______ _______ _____ _____    ______ ____
ROOT
ATOM      1  C   UNL     1      46.562   4.285  14.404  0.00  0.00    +0.000 C 
ENDROOT
BRANCH   1   2
ATOM      2  C   UNL     1      45.975   4.346  13.012  0.00  0.00    +0.000 A 
ATOM      3  C   UNL     1      46.101   5.501  12.245  0.00  0.00    +0.000 A 
ATOM      4  C   UNL     1      45.585   5.514  10.948  0.00  0.00    +0.000 A 
ATOM      5  C   UNL     1      44.944   4.385  10.433  0.00  0.00    +0.000 A 
ATOM      6  C   UNL     1      44.827   3.297  11.295  0.00  0.00    +0.000 A 
ATOM      7  N   UNL     1      45.331   3.245  12.554  0.00  0.00    +0.000 NA
BRANCH   5   8
ATOM      8  C   UNL     1      44.334   4.356   9.051  0.00  0.00    +0.000 C 
BRANCH   8   9
ATOM      9  N   UNL     1      45.035   3.612   8.006  0.00  0.00    +0.000 NA
ATOM     10  C   UNL     1      44.981   2.157   8.053  0.00  0.00    +0.000 C 
ATOM     11  C   UNL     1      46.428   1.696   8.050  0.00  0.00    +0.000 C 
ATOM     12  C   UNL     1      47.169   2.796   7.295  0.00  0.00    +0.000 C 
ATOM     13  C   UNL     1      46.384   4.056   7.664  0.00  0.00    +0.000 C 
BRANCH  12  14
ATOM     14  C   UNL     1      47.211   2.539   5.786  0.00  0.00    +0.000 C 
BRANCH  14  15
ATOM     15  O   UNL     1      48.403   1.845   5.431  0.00  0.00    +0.000 OA
ATOM     16  H   UNL     1      48.355   1.636   4.482  0.00  0.00    +0.000 HD
ENDBRANCH  14  15
ENDBRANCH  12  14
ENDBRANCH   8   9
ENDBRANCH   5   8
ENDBRANCH   1   2
BRANCH   1  19
ATOM     17  O   UNL     1      48.589   4.567  16.332  0.00  0.00    +0.000 OA
ATOM     18  C   UNL     1      48.237   5.559  15.700  0.00  0.00    +0.000 C 
ATOM     19  N   UNL     1      47.223   5.516  14.778  0.00  0.00    +0.000 N 
ATOM     20  H   UNL     1      47.083   6.292  14.142  0.00  0.00    +0.000 HD
BRANCH  18  21
ATOM     21  C   UNL     1      48.853   6.875  15.931  0.00  0.00    +0.000 A 
ATOM     22  C   UNL     1      48.863   7.416  17.208  0.00  0.00    +0.000 A 
ATOM     23  S   UNL     1      49.611   8.948  17.295  0.00  0.00    +0.000 S 
ATOM     24  C   UNL     1      49.981   8.923  15.636  0.00  0.00    +0.000 A 
ATOM     25  N   UNL     1      50.668   9.945  15.058  0.00  0.00    +0.000 NA
ATOM     26  C   UNL     1      50.918   9.778  13.800  0.00  0.00    +0.000 A 
ATOM     27  N   UNL     1      50.533   8.683  13.068  0.00  0.00    +0.000 N 
ATOM     28  C   UNL     1      49.782   7.660  13.592  0.00  0.00    +0.000 A 
ATOM     29  O   UNL     1      49.349   6.762  12.883  0.00  0.00    +0.000 OA
ATOM     30  C   UNL     1      49.515   7.775  15.016  0.00  0.00    +0.000 A 
ATOM     31  H   UNL     1      50.733   8.623  12.082  0.00  0.00    +0.000 HD
ENDBRANCH  18  21
ENDBRANCH   1  19
TORSDOF 7
ENDMDL
MODEL 2
REMARK VINA RESULT:    -7.163      2.029      3.476
REMARK INTER + INTRA:         -10.940
REMARK INTER:                 -10.965
REMARK INTRA:                   0.025
REMARK UNBOUND:                -1.055
REMARK  Name = 
REMARK  7 active torsions:
REMARK  status: ('A' for Active; 'I' for Inactive)
REMARK    1  A    between atoms: C_2  and  C_19
REMARK    2  A    between atoms: N_3  and  C_4
REMARK    3  A    between atoms: C_4  and  C_5
REMARK    4  A    between atoms: C_8  and  C_9
REMARK    5  A    between atoms: C_9  and  N_10
REMARK    6  A    between atoms: C_13  and  C_14
REMARK    7  A    between atoms: C_14  and  O_15
REMARK                            x       y       z     vdW  Elec       q    Type
REMARK                         _______ _______ _______ _____ _____    ______ ____
ROOT
ATOM      1  C   UNL     1      46.343   7.044  12.649  0.00  0.00    +0.000 C 
ENDROOT
BRANCH   1   2
ATOM      2  C   UNL     1      45.874   5.871  11.818  0.00  0.00    +0.000 A 
ATOM      3  C   UNL     1      45.554   4.661  12.428  0.00  0.00    +0.000 A 
ATOM      4  C   UNL     1      45.083   3.608  11.641  0.00  0.00    +0.000 A 
ATOM      5  C   UNL     1      44.946   3.768  10.260  0.00  0.00    +0.000 A 
ATOM      6  C   UNL     1      45.337   5.000   9.740  0.00  0.00    +0.000 A 
ATOM      7  N   UNL     1      45.782   6.048  10.477  0.00  0.00    +0.000 NA
BRANCH   5   8
ATOM      8  C   UNL     1      44.479   2.651   9.356  0.00  0.00    +0.000 C 
BRANCH   8   9
ATOM      9  N   UNL     1      45.245   2.386   8.139  0.00  0.00    +0.000 NA
ATOM     10  C   UNL     1      45.908   1.094   8.019  0.00  0.00    +0.000 C 
ATOM     11  C   UNL     1      47.369   1.411   7.751  0.00  0.00    +0.000 C 
ATOM     12  C   UNL     1      47.334   2.758   7.035  0.00  0.00    +0.000 C 
ATOM     13  C   UNL     1      46.123   3.450   7.661  0.00  0.00    +0.000 C 
BRANCH  12  14
ATOM     14  C   UNL     1      47.215   2.605   5.516  0.00  0.00    +0.000 C 
BRANCH  14  15
ATOM     15  O   UNL     1      48.376   1.973   4.985  0.00  0.00    +0.000 OA
ATOM     16  H   UNL     1      48.384   2.122   4.024  0.00  0.00    +0.000 HD
ENDBRANCH  14  15
ENDBRANCH  12  14
ENDBRANCH   8   9
ENDBRANCH   5   8
ENDBRANCH   1   2
BRANCH   1  19
ATOM     17  O   UNL     1      49.041   6.605  13.306  0.00  0.00    +0.000 OA
ATOM     18  C   UNL     1      48.195   6.489  14.188  0.00  0.00    +0.000 C 
ATOM     19  N   UNL     1      46.855   6.638  13.938  0.00  0.00    +0.000 N 
ATOM     20  H   UNL     1      46.203   6.725  14.709  0.00  0.00    +0.000 HD
BRANCH  18  21
ATOM     21  C   UNL     1      48.566   6.130  15.565  0.00  0.00    +0.000 A 
ATOM     22  C   UNL     1      49.351   6.994  16.315  0.00  0.00    +0.000 A 
ATOM     23  S   UNL     1      49.690   6.420  17.886  0.00  0.00    +0.000 S 
ATOM     24  C   UNL     1      48.767   5.015  17.632  0.00  0.00    +0.000 A 
ATOM     25  N   UNL     1      48.611   4.093  18.620  0.00  0.00    +0.000 NA
ATOM     26  C   UNL     1      47.851   3.095  18.306  0.00  0.00    +0.000 A 
ATOM     27  N   UNL     1      47.242   2.933  17.086  0.00  0.00    +0.000 N 
ATOM     28  C   UNL     1      47.424   3.802  16.039  0.00  0.00    +0.000 A 
ATOM     29  O   UNL     1      46.968   3.563  14.929  0.00  0.00    +0.000 OA
ATOM     30  C   UNL     1      48.230   4.968  16.355  0.00  0.00    +0.000 A 
ATOM     31  H   UNL     1      46.683   2.117  16.891  0.00  0.00    +0.000 HD
ENDBRANCH  18  21
ENDBRANCH   1  19
TORSDOF 7
ENDMDL
MODEL 3
REMARK VINA RESULT:    -7.057      5.187      9.181
REMARK INTER + INTRA:         -10.794
REMARK INTER:                 -10.064
REMARK INTRA:                  -0.730
REMARK UNBOUND:                -1.055
REMARK  Name = 
REMARK  7 active torsions:
REMARK  status: ('A' for Active; 'I' for Inactive)
REMARK    1  A    between atoms: C_2  and  C_19
REMARK    2  A    between atoms: N_3  and  C_4
REMARK    3  A    between atoms: C_4  and  C_5
REMARK    4  A    between atoms: C_8  and  C_9
REMARK    5  A    between atoms: C_9  and  N_10
REMARK    6  A    between atoms: C_13  and  C_14
REMARK    7  A    between atoms: C_14  and  O_15
REMARK                            x       y       z     vdW  Elec       q    Type
REMARK                         _______ _______ _______ _____ _____    ______ ____
ROOT
ATOM      1  C   UNL     1      47.156   3.402  16.858  0.00  0.00    +0.000 C 
ENDROOT
BRANCH   1   2
ATOM      2  C   UNL     1      48.644   3.361  17.127  0.00  0.00    +0.000 A 
ATOM      3  C   UNL     1      49.288   4.464  17.681  0.00  0.00    +0.000 A 
ATOM      4  C   UNL     1      50.655   4.383  17.957  0.00  0.00    +0.000 A 
ATOM      5  C   UNL     1      51.363   3.214  17.671  0.00  0.00    +0.000 A 
ATOM      6  C   UNL     1      50.638   2.184  17.074  0.00  0.00    +0.000 A 
ATOM      7  N   UNL     1      49.309   2.224  16.809  0.00  0.00    +0.000 NA
BRANCH   5   8
ATOM      8  C   UNL     1      52.849   3.085  17.913  0.00  0.00    +0.000 C 
BRANCH   8   9
ATOM      9  N   UNL     1      53.348   1.826  18.465  0.00  0.00    +0.000 NA
ATOM     10  C   UNL     1      54.411   1.892  19.459  0.00  0.00    +0.000 C 
ATOM     11  C   UNL     1      55.528   1.015  18.918  0.00  0.00    +0.000 C 
ATOM     12  C   UNL     1      54.806  -0.030  18.072  0.00  0.00    +0.000 C 
ATOM     13  C   UNL     1      53.606   0.742  17.521  0.00  0.00    +0.000 C 
BRANCH  12  14
ATOM     14  C   UNL     1      54.402  -1.260  18.890  0.00  0.00    +0.000 C 
BRANCH  14  15
ATOM     15  O   UNL     1      52.983  -1.374  18.950  0.00  0.00    +0.000 OA
ATOM     16  H   UNL     1      52.617  -0.994  18.133  0.00  0.00    +0.000 HD
ENDBRANCH  14  15
ENDBRANCH  12  14
ENDBRANCH   8   9
ENDBRANCH   5   8
ENDBRANCH   1   2
BRANCH   1  19
ATOM     17  O   UNL     1      47.260   3.036  14.073  0.00  0.00    +0.000 OA
ATOM     18  C   UNL     1      46.840   4.104  14.510  0.00  0.00    +0.000 C 
ATOM     19  N   UNL     1      46.804   4.379  15.853  0.00  0.00    +0.000 N 
ATOM     20  H   UNL     1      46.282   5.179  16.192  0.00  0.00    +0.000 HD
BRANCH  18  21
ATOM     21  C   UNL     1      46.394   5.180  13.612  0.00  0.00    +0.000 A 
ATOM     22  C   UNL     1      47.249   6.233  13.321  0.00  0.00    +0.000 A 
ATOM     23  S   UNL     1      46.570   7.393  12.269  0.00  0.00    +0.000 S 
ATOM     24  C   UNL     1      45.125   6.508  12.134  0.00  0.00    +0.000 A 
ATOM     25  N   UNL     1      44.113   6.938  11.334  0.00  0.00    +0.000 NA
ATOM     26  C   UNL     1      43.090   6.148  11.293  0.00  0.00    +0.000 A 
ATOM     27  N   UNL     1      42.987   4.970  11.990  0.00  0.00    +0.000 N 
ATOM     28  C   UNL     1      43.953   4.529  12.858  0.00  0.00    +0.000 A 
ATOM     29  O   UNL     1      43.775   3.540  13.557  0.00  0.00    +0.000 OA
ATOM     30  C   UNL     1      45.147   5.356  12.905  0.00  0.00    +0.000 A 
ATOM     31  H   UNL     1      42.150   4.410  11.938  0.00  0.00    +0.000 HD
ENDBRANCH  18  21
ENDBRANCH   1  19
TORSDOF 7
ENDMDL
MODEL 4
REMARK VINA RESULT:    -6.972      1.810      2.733
REMARK INTER + INTRA:         -10.677
REMARK INTER:                  -9.922
REMARK INTRA:                  -0.755
REMARK UNBOUND:                -1.055
REMARK  Name = 
REMARK  7 active torsions:
REMARK  status: ('A' for Active; 'I' for Inactive)
REMARK    1  A    between atoms: C_2  and  C_19
REMARK    2  A    between atoms: N_3  and  C_4
REMARK    3  A    between atoms: C_4  and  C_5
REMARK    4  A    between atoms: C_8  and  C_9
REMARK    5  A    between atoms: C_9  and  N_10
REMARK    6  A    between atoms: C_13  and  C_14
REMARK    7  A    between atoms: C_14  and  O_15
REMARK                            x       y       z     vdW  Elec       q    Type
REMARK                         _______ _______ _______ _____ _____    ______ ____
ROOT
ATOM      1  C   UNL     1      47.111   4.295  14.717  0.00  0.00    +0.000 C 
ENDROOT
BRANCH   1   2
ATOM      2  C   UNL     1      46.325   4.386  13.427  0.00  0.00    +0.000 A 
ATOM      3  C   UNL     1      46.343   5.556  12.675  0.00  0.00    +0.000 A 
ATOM      4  C   UNL     1      45.642   5.597  11.468  0.00  0.00    +0.000 A 
ATOM      5  C   UNL     1      44.926   4.480  11.031  0.00  0.00    +0.000 A 
ATOM      6  C   UNL     1      44.931   3.374  11.879  0.00  0.00    +0.000 A 
ATOM      7  N   UNL     1      45.615   3.296  13.047  0.00  0.00    +0.000 NA
BRANCH   5   8
ATOM      8  C   UNL     1      44.119   4.481   9.753  0.00  0.00    +0.000 C 
BRANCH   8   9
ATOM      9  N   UNL     1      44.652   3.753   8.603  0.00  0.00    +0.000 NA
ATOM     10  C   UNL     1      44.608   2.298   8.637  0.00  0.00    +0.000 C 
ATOM     11  C   UNL     1      46.038   1.842   8.406  0.00  0.00    +0.000 C 
ATOM     12  C   UNL     1      46.653   2.954   7.562  0.00  0.00    +0.000 C 
ATOM     13  C   UNL     1      45.932   4.206   8.064  0.00  0.00    +0.000 C 
BRANCH  12  14
ATOM     14  C   UNL     1      46.463   2.718   6.061  0.00  0.00    +0.000 C 
BRANCH  14  15
ATOM     15  O   UNL     1      47.550   3.273   5.327  0.00  0.00    +0.000 OA
ATOM     16  H   UNL     1      47.395   4.229   5.240  0.00  0.00    +0.000 HD
ENDBRANCH  14  15
ENDBRANCH  12  14
ENDBRANCH   8   9
ENDBRANCH   5   8
ENDBRANCH   1   2
BRANCH   1  19
ATOM     17  O   UNL     1      49.137   4.805  16.597  0.00  0.00    +0.000 OA
ATOM     18  C   UNL     1      48.547   5.758  16.096  0.00  0.00    +0.000 C 
ATOM     19  N   UNL     1      47.515   5.593  15.209  0.00  0.00    +0.000 N 
ATOM     20  H   UNL     1      47.178   6.383  14.671  0.00  0.00    +0.000 HD
BRANCH  18  21
ATOM     21  C   UNL     1      48.882   7.144  16.457  0.00  0.00    +0.000 A 
ATOM     22  C   UNL     1      49.627   7.923  15.584  0.00  0.00    +0.000 A 
ATOM     23  S   UNL     1      49.928   9.500  16.163  0.00  0.00    +0.000 S 
ATOM     24  C   UNL     1      49.039   9.209  17.582  0.00  0.00    +0.000 A 
ATOM     25  N   UNL     1      48.869  10.186  18.513  0.00  0.00    +0.000 NA
ATOM     26  C   UNL     1      48.138   9.842  19.523  0.00  0.00    +0.000 A 
ATOM     27  N   UNL     1      47.570   8.603  19.687  0.00  0.00    +0.000 N 
ATOM     28  C   UNL     1      47.768   7.568  18.809  0.00  0.00    +0.000 A 
ATOM     29  O   UNL     1      47.352   6.442  19.048  0.00  0.00    +0.000 OA
ATOM     30  C   UNL     1      48.543   7.916  17.630  0.00  0.00    +0.000 A 
ATOM     31  H   UNL     1      47.032   8.386  20.512  0.00  0.00    +0.000 HD
ENDBRANCH  18  21
ENDBRANCH   1  19
TORSDOF 7
ENDMDL
MODEL 5
REMARK VINA RESULT:    -6.626      2.421      4.088
REMARK INTER + INTRA:         -10.198
REMARK INTER:                  -9.421
REMARK INTRA:                  -0.777
REMARK UNBOUND:                -1.055
REMARK  Name = 
REMARK  7 active torsions:
REMARK  status: ('A' for Active; 'I' for Inactive)
REMARK    1  A    between atoms: C_2  and  C_19
REMARK    2  A    between atoms: N_3  and  C_4
REMARK    3  A    between atoms: C_4  and  C_5
REMARK    4  A    between atoms: C_8  and  C_9
REMARK    5  A    between atoms: C_9  and  N_10
REMARK    6  A    between atoms: C_13  and  C_14
REMARK    7  A    between atoms: C_14  and  O_15
REMARK                            x       y       z     vdW  Elec       q    Type
REMARK                         _______ _______ _______ _____ _____    ______ ____
ROOT
ATOM      1  C   UNL     1      47.478   8.716  13.639  0.00  0.00    +0.000 C 
ENDROOT
BRANCH   1   2
ATOM      2  C   UNL     1      46.309   8.032  12.966  0.00  0.00    +0.000 A 
ATOM      3  C   UNL     1      45.556   8.707  12.009  0.00  0.00    +0.000 A 
ATOM      4  C   UNL     1      44.508   8.036  11.375  0.00  0.00    +0.000 A 
ATOM      5  C   UNL     1      44.217   6.711  11.705  0.00  0.00    +0.000 A 
ATOM      6  C   UNL     1      44.998   6.140  12.708  0.00  0.00    +0.000 A 
ATOM      7  N   UNL     1      46.033   6.756  13.332  0.00  0.00    +0.000 NA
BRANCH   5   8
ATOM      8  C   UNL     1      43.072   5.950  11.078  0.00  0.00    +0.000 C 
BRANCH   8   9
ATOM      9  N   UNL     1      43.345   4.619  10.537  0.00  0.00    +0.000 NA
ATOM     10  C   UNL     1      43.266   3.484  11.447  0.00  0.00    +0.000 C 
ATOM     11  C   UNL     1      44.609   2.781  11.338  0.00  0.00    +0.000 C 
ATOM     12  C   UNL     1      45.076   3.088   9.918  0.00  0.00    +0.000 C 
ATOM     13  C   UNL     1      44.505   4.484   9.661  0.00  0.00    +0.000 C 
BRANCH  12  14
ATOM     14  C   UNL     1      44.586   2.047   8.907  0.00  0.00    +0.000 C 
BRANCH  14  15
ATOM     15  O   UNL     1      45.546   1.006   8.757  0.00  0.00    +0.000 OA
ATOM     16  H   UNL     1      45.683   0.861   7.805  0.00  0.00    +0.000 HD
ENDBRANCH  14  15
ENDBRANCH  12  14
ENDBRANCH   8   9
ENDBRANCH   5   8
ENDBRANCH   1   2
BRANCH   1  19
ATOM     17  O   UNL     1      49.448   6.725  13.888  0.00  0.00    +0.000 OA
ATOM     18  C   UNL     1      48.881   7.121  14.903  0.00  0.00    +0.000 C 
ATOM     19  N   UNL     1      47.876   8.053  14.861  0.00  0.00    +0.000 N 
ATOM     20  H   UNL     1      47.562   8.498  15.715  0.00  0.00    +0.000 HD
BRANCH  18  21
ATOM     21  C   UNL     1      49.214   6.580  16.229  0.00  0.00    +0.000 A 
ATOM     22  C   UNL     1      50.008   7.317  17.095  0.00  0.00    +0.000 A 
ATOM     23  S   UNL     1      50.299   6.538  18.586  0.00  0.00    +0.000 S 
ATOM     24  C   UNL     1      49.341   5.207  18.141  0.00  0.00    +0.000 A 
ATOM     25  N   UNL     1      49.138   4.173  19.001  0.00  0.00    +0.000 NA
ATOM     26  C   UNL     1      48.356   3.246  18.550  0.00  0.00    +0.000 A 
ATOM     27  N   UNL     1      47.767   3.260  17.310  0.00  0.00    +0.000 N 
ATOM     28  C   UNL     1      47.995   4.248  16.385  0.00  0.00    +0.000 A 
ATOM     29  O   UNL     1      47.555   4.165  15.246  0.00  0.00    +0.000 OA
ATOM     30  C   UNL     1      48.829   5.339  16.860  0.00  0.00    +0.000 A 
ATOM     31  H   UNL     1      47.188   2.493  17.004  0.00  0.00    +0.000 HD
ENDBRANCH  18  21
ENDBRANCH   1  19
TORSDOF 7
ENDMDL
MODEL 6
REMARK VINA RESULT:    -6.624      5.208      8.683
REMARK INTER + INTRA:         -10.195
REMARK INTER:                  -9.241
REMARK INTRA:                  -0.954
REMARK UNBOUND:                -1.055
REMARK  Name = 
REMARK  7 active torsions:
REMARK  status: ('A' for Active; 'I' for Inactive)
REMARK    1  A    between atoms: C_2  and  C_19
REMARK    2  A    between atoms: N_3  and  C_4
REMARK    3  A    between atoms: C_4  and  C_5
REMARK    4  A    between atoms: C_8  and  C_9
REMARK    5  A    between atoms: C_9  and  N_10
REMARK    6  A    between atoms: C_13  and  C_14
REMARK    7  A    between atoms: C_14  and  O_15
REMARK                            x       y       z     vdW  Elec       q    Type
REMARK                         _______ _______ _______ _____ _____    ______ ____
ROOT
ATOM      1  C   UNL     1      47.258   3.443  16.876  0.00  0.00    +0.000 C 
ENDROOT
BRANCH   1   2
ATOM      2  C   UNL     1      48.741   3.325  17.148  0.00  0.00    +0.000 A 
ATOM      3  C   UNL     1      49.424   4.361  17.779  0.00  0.00    +0.000 A 
ATOM      4  C   UNL     1      50.784   4.207  18.055  0.00  0.00    +0.000 A 
ATOM      5  C   UNL     1      51.448   3.033  17.692  0.00  0.00    +0.000 A 
ATOM      6  C   UNL     1      50.688   2.077  17.022  0.00  0.00    +0.000 A 
ATOM      7  N   UNL     1      49.363   2.187  16.754  0.00  0.00    +0.000 NA
BRANCH   5   8
ATOM      8  C   UNL     1      52.926   2.829  17.931  0.00  0.00    +0.000 C 
BRANCH   8   9
ATOM      9  N   UNL     1      53.362   1.549  18.488  0.00  0.00    +0.000 NA
ATOM     10  C   UNL     1      54.463   1.560  19.442  0.00  0.00    +0.000 C 
ATOM     11  C   UNL     1      55.499   0.603  18.877  0.00  0.00    +0.000 C 
ATOM     12  C   UNL     1      54.679  -0.405  18.077  0.00  0.00    +0.000 C 
ATOM     13  C   UNL     1      53.513   0.435  17.555  0.00  0.00    +0.000 C 
BRANCH  12  14
ATOM     14  C   UNL     1      54.225  -1.592  18.931  0.00  0.00    +0.000 C 
BRANCH  14  15
ATOM     15  O   UNL     1      52.809  -1.582  19.087  0.00  0.00    +0.000 OA
ATOM     16  H   UNL     1      52.594  -2.072  19.899  0.00  0.00    +0.000 HD
ENDBRANCH  14  15
ENDBRANCH  12  14
ENDBRANCH   8   9
ENDBRANCH   5   8
ENDBRANCH   1   2
BRANCH   1  19
ATOM     17  O   UNL     1      47.226   3.124  14.083  0.00  0.00    +0.000 OA
ATOM     18  C   UNL     1      46.918   4.216  14.553  0.00  0.00    +0.000 C 
ATOM     19  N   UNL     1      46.955   4.467  15.901  0.00  0.00    +0.000 N 
ATOM     20  H   UNL     1      46.519   5.302  16.272  0.00  0.00    +0.000 HD
BRANCH  18  21
ATOM     21  C   UNL     1      46.535   5.343  13.690  0.00  0.00    +0.000 A 
ATOM     22  C   UNL     1      45.345   5.294  12.980  0.00  0.00    +0.000 A 
ATOM     23  S   UNL     1      45.060   6.681  12.026  0.00  0.00    +0.000 S 
ATOM     24  C   UNL     1      46.499   7.412  12.560  0.00  0.00    +0.000 A 
ATOM     25  N   UNL     1      46.846   8.659  12.144  0.00  0.00    +0.000 NA
ATOM     26  C   UNL     1      47.943   9.111  12.660  0.00  0.00    +0.000 A 
ATOM     27  N   UNL     1      48.727   8.419  13.549  0.00  0.00    +0.000 N 
ATOM     28  C   UNL     1      48.453   7.134  13.946  0.00  0.00    +0.000 A 
ATOM     29  O   UNL     1      49.238   6.502  14.640  0.00  0.00    +0.000 OA
ATOM     30  C   UNL     1      47.204   6.598  13.433  0.00  0.00    +0.000 A 
ATOM     31  H   UNL     1      49.588   8.814  13.896  0.00  0.00    +0.000 HD
ENDBRANCH  18  21
ENDBRANCH   1  19
TORSDOF 7
ENDMDL
MODEL 7
REMARK VINA RESULT:    -6.499      3.762      9.047
REMARK INTER + INTRA:         -10.024
REMARK INTER:                  -8.835
REMARK INTRA:                  -1.189
REMARK UNBOUND:                -1.055
REMARK  Name = 
REMARK  7 active torsions:
REMARK  status: ('A' for Active; 'I' for Inactive)
REMARK    1  A    between atoms: C_2  and  C_19
REMARK    2  A    between atoms: N_3  and  C_4
REMARK    3  A    between atoms: C_4  and  C_5
REMARK    4  A    between atoms: C_8  and  C_9
REMARK    5  A    between atoms: C_9  and  N_10
REMARK    6  A    between atoms: C_13  and  C_14
REMARK    7  A    between atoms: C_14  and  O_15
REMARK                            x       y       z     vdW  Elec       q    Type
REMARK                         _______ _______ _______ _____ _____    ______ ____
ROOT
ATOM      1  C   UNL     1      48.415   7.095  13.430  0.00  0.00    +0.000 C 
ENDROOT
BRANCH   1   2
ATOM      2  C   UNL     1      48.772   6.528  14.786  0.00  0.00    +0.000 A 
ATOM      3  C   UNL     1      49.839   7.054  15.509  0.00  0.00    +0.000 A 
ATOM      4  C   UNL     1      50.119   6.538  16.776  0.00  0.00    +0.000 A 
ATOM      5  C   UNL     1      49.343   5.504  17.303  0.00  0.00    +0.000 A 
ATOM      6  C   UNL     1      48.328   5.015  16.482  0.00  0.00    +0.000 A 
ATOM      7  N   UNL     1      48.019   5.503  15.256  0.00  0.00    +0.000 NA
BRANCH   5   8
ATOM      8  C   UNL     1      49.625   4.882  18.652  0.00  0.00    +0.000 C 
BRANCH   8   9
ATOM      9  N   UNL     1      50.844   4.089  18.801  0.00  0.00    +0.000 NA
ATOM     10  C   UNL     1      51.932   4.654  19.587  0.00  0.00    +0.000 C 
ATOM     11  C   UNL     1      53.147   4.631  18.675  0.00  0.00    +0.000 C 
ATOM     12  C   UNL     1      52.892   3.450  17.744  0.00  0.00    +0.000 C 
ATOM     13  C   UNL     1      51.369   3.445  17.601  0.00  0.00    +0.000 C 
BRANCH  12  14
ATOM     14  C   UNL     1      53.443   2.137  18.308  0.00  0.00    +0.000 C 
BRANCH  14  15
ATOM     15  O   UNL     1      52.399   1.177  18.449  0.00  0.00    +0.000 OA
ATOM     16  H   UNL     1      51.653   1.611  18.896  0.00  0.00    +0.000 HD
ENDBRANCH  14  15
ENDBRANCH  12  14
ENDBRANCH   8   9
ENDBRANCH   5   8
ENDBRANCH   1   2
BRANCH   1  19
ATOM     17  O   UNL     1      46.279   7.866  11.773  0.00  0.00    +0.000 OA
ATOM     18  C   UNL     1      46.565   6.673  11.848  0.00  0.00    +0.000 C 
ATOM     19  N   UNL     1      47.560   6.212  12.671  0.00  0.00    +0.000 N 
ATOM     20  H   UNL     1      47.898   5.262  12.571  0.00  0.00    +0.000 HD
BRANCH  18  21
ATOM     21  C   UNL     1      45.818   5.656  11.093  0.00  0.00    +0.000 A 
ATOM     22  C   UNL     1      45.901   5.627   9.708  0.00  0.00    +0.000 A 
ATOM     23  S   UNL     1      44.969   4.389   8.994  0.00  0.00    +0.000 S 
ATOM     24  C   UNL     1      44.453   3.824  10.512  0.00  0.00    +0.000 A 
ATOM     25  N   UNL     1      43.644   2.736  10.615  0.00  0.00    +0.000 NA
ATOM     26  C   UNL     1      43.363   2.390  11.830  0.00  0.00    +0.000 A 
ATOM     27  N   UNL     1      43.813   3.045  12.949  0.00  0.00    +0.000 N 
ATOM     28  C   UNL     1      44.576   4.184  12.893  0.00  0.00    +0.000 A 
ATOM     29  O   UNL     1      44.855   4.813  13.905  0.00  0.00    +0.000 OA
ATOM     30  C   UNL     1      44.961   4.588  11.551  0.00  0.00    +0.000 A 
ATOM     31  H   UNL     1      43.536   2.744  13.871  0.00  0.00    +0.000 HD
ENDBRANCH  18  21
ENDBRANCH   1  19
TORSDOF 7
ENDMDL
MODEL 8
REMARK VINA RESULT:    -6.469      3.191      9.019
REMARK INTER + INTRA:          -9.981
REMARK INTER:                  -9.058
REMARK INTRA:                  -0.924
REMARK UNBOUND:                -1.055
REMARK  Name = 
REMARK  7 active torsions:
REMARK  status: ('A' for Active; 'I' for Inactive)
REMARK    1  A    between atoms: C_2  and  C_19
REMARK    2  A    between atoms: N_3  and  C_4
REMARK    3  A    between atoms: C_4  and  C_5
REMARK    4  A    between atoms: C_8  and  C_9
REMARK    5  A    between atoms: C_9  and  N_10
REMARK    6  A    between atoms: C_13  and  C_14
REMARK    7  A    between atoms: C_14  and  O_15
REMARK                            x       y       z     vdW  Elec       q    Type
REMARK                         _______ _______ _______ _____ _____    ______ ____
ROOT
ATOM      1  C   UNL     1      47.293   7.887  12.207  0.00  0.00    +0.000 C 
ENDROOT
BRANCH   1   2
ATOM      2  C   UNL     1      48.087   7.911  13.494  0.00  0.00    +0.000 A 
ATOM      3  C   UNL     1      47.887   8.927  14.424  0.00  0.00    +0.000 A 
ATOM      4  C   UNL     1      48.604   8.900  15.622  0.00  0.00    +0.000 A 
ATOM      5  C   UNL     1      49.516   7.873  15.874  0.00  0.00    +0.000 A 
ATOM      6  C   UNL     1      49.679   6.931  14.861  0.00  0.00    +0.000 A 
ATOM      7  N   UNL     1      48.987   6.918  13.694  0.00  0.00    +0.000 NA
BRANCH   5   8
ATOM      8  C   UNL     1      50.347   7.815  17.136  0.00  0.00    +0.000 C 
BRANCH   8   9
ATOM      9  N   UNL     1      50.083   6.734  18.083  0.00  0.00    +0.000 NA
ATOM     10  C   UNL     1      50.821   5.488  17.919  0.00  0.00    +0.000 C 
ATOM     11  C   UNL     1      49.765   4.401  17.820  0.00  0.00    +0.000 C 
ATOM     12  C   UNL     1      48.591   4.944  18.629  0.00  0.00    +0.000 C 
ATOM     13  C   UNL     1      48.685   6.454  18.400  0.00  0.00    +0.000 C 
BRANCH  12  14
ATOM     14  C   UNL     1      48.676   4.558  20.108  0.00  0.00    +0.000 C 
BRANCH  14  15
ATOM     15  O   UNL     1      48.308   3.194  20.290  0.00  0.00    +0.000 OA
ATOM     16  H   UNL     1      47.630   2.977  19.628  0.00  0.00    +0.000 HD
ENDBRANCH  14  15
ENDBRANCH  12  14
ENDBRANCH   8   9
ENDBRANCH   5   8
ENDBRANCH   1   2
BRANCH   1  19
ATOM     17  O   UNL     1      44.550   7.499  11.729  0.00  0.00    +0.000 OA
ATOM     18  C   UNL     1      45.292   6.521  11.717  0.00  0.00    +0.000 C 
ATOM     19  N   UNL     1      46.633   6.619  11.990  0.00  0.00    +0.000 N 
ATOM     20  H   UNL     1      47.248   5.841  11.788  0.00  0.00    +0.000 HD
BRANCH  18  21
ATOM     21  C   UNL     1      44.777   5.168  11.458  0.00  0.00    +0.000 A 
ATOM     22  C   UNL     1      44.031   4.518  12.430  0.00  0.00    +0.000 A 
ATOM     23  S   UNL     1      43.518   2.957  11.966  0.00  0.00    +0.000 S 
ATOM     24  C   UNL     1      44.242   3.112  10.437  0.00  0.00    +0.000 A 
ATOM     25  N   UNL     1      44.142   2.120   9.512  0.00  0.00    +0.000 NA
ATOM     26  C   UNL     1      44.703   2.387   8.377  0.00  0.00    +0.000 A 
ATOM     27  N   UNL     1      45.364   3.556   8.091  0.00  0.00    +0.000 N 
ATOM     28  C   UNL     1      45.547   4.556   9.012  0.00  0.00    +0.000 A 
ATOM     29  O   UNL     1      46.247   5.528   8.764  0.00  0.00    +0.000 OA
ATOM     30  C   UNL     1      44.893   4.327  10.290  0.00  0.00    +0.000 A 
ATOM     31  H   UNL     1      45.806   3.694   7.195  0.00  0.00    +0.000 HD
ENDBRANCH  18  21
ENDBRANCH   1  19
TORSDOF 7
ENDMDL
MODEL 9
REMARK VINA RESULT:    -6.431      4.505      8.846
REMARK INTER + INTRA:          -9.929
REMARK INTER:                  -9.011
REMARK INTRA:                  -0.918
REMARK UNBOUND:                -1.055
REMARK  Name = 
REMARK  7 active torsions:
REMARK  status: ('A' for Active; 'I' for Inactive)
REMARK    1  A    between atoms: C_2  and  C_19
REMARK    2  A    between atoms: N_3  and  C_4
REMARK    3  A    between atoms: C_4  and  C_5
REMARK    4  A    between atoms: C_8  and  C_9
REMARK    5  A    between atoms: C_9  and  N_10
REMARK    6  A    between atoms: C_13  and  C_14
REMARK    7  A    between atoms: C_14  and  O_15
REMARK                            x       y       z     vdW  Elec       q    Type
REMARK                         _______ _______ _______ _____ _____    ______ ____
ROOT
ATOM      1  C   UNL     1      47.134   3.362  16.879  0.00  0.00    +0.000 C 
ENDROOT
BRANCH   1   2
ATOM      2  C   UNL     1      48.589   3.431  17.285  0.00  0.00    +0.000 A 
ATOM      3  C   UNL     1      49.449   2.374  17.003  0.00  0.00    +0.000 A 
ATOM      4  C   UNL     1      50.796   2.483  17.353  0.00  0.00    +0.000 A 
ATOM      5  C   UNL     1      51.269   3.634  17.986  0.00  0.00    +0.000 A 
ATOM      6  C   UNL     1      50.320   4.615  18.268  0.00  0.00    +0.000 A 
ATOM      7  N   UNL     1      49.009   4.549  17.928  0.00  0.00    +0.000 NA
BRANCH   5   8
ATOM      8  C   UNL     1      52.708   3.790  18.421  0.00  0.00    +0.000 C 
BRANCH   8   9
ATOM      9  N   UNL     1      53.623   4.495  17.526  0.00  0.00    +0.000 NA
ATOM     10  C   UNL     1      55.037   4.147  17.584  0.00  0.00    +0.000 C 
ATOM     11  C   UNL     1      55.767   5.454  17.840  0.00  0.00    +0.000 C 
ATOM     12  C   UNL     1      54.869   6.514  17.210  0.00  0.00    +0.000 C 
ATOM     13  C   UNL     1      53.465   5.943  17.418  0.00  0.00    +0.000 C 
BRANCH  12  14
ATOM     14  C   UNL     1      55.202   6.756  15.735  0.00  0.00    +0.000 C 
BRANCH  14  15
ATOM     15  O   UNL     1      54.102   6.390  14.908  0.00  0.00    +0.000 OA
ATOM     16  H   UNL     1      54.194   6.863  14.062  0.00  0.00    +0.000 HD
ENDBRANCH  14  15
ENDBRANCH  12  14
ENDBRANCH   8   9
ENDBRANCH   5   8
ENDBRANCH   1   2
BRANCH   1  19
ATOM     17  O   UNL     1      47.264   3.068  14.086  0.00  0.00    +0.000 OA
ATOM     18  C   UNL     1      46.837   4.124  14.547  0.00  0.00    +0.000 C 
ATOM     19  N   UNL     1      46.788   4.364  15.896  0.00  0.00    +0.000 N 
ATOM     20  H   UNL     1      46.261   5.153  16.250  0.00  0.00    +0.000 HD
BRANCH  18  21
ATOM     21  C   UNL     1      46.396   5.221  13.673  0.00  0.00    +0.000 A 
ATOM     22  C   UNL     1      47.238   6.299  13.442  0.00  0.00    +0.000 A 
ATOM     23  S   UNL     1      46.566   7.481  12.410  0.00  0.00    +0.000 S 
ATOM     24  C   UNL     1      45.144   6.575  12.204  0.00  0.00    +0.000 A 
ATOM     25  N   UNL     1      44.147   7.013  11.390  0.00  0.00    +0.000 NA
ATOM     26  C   UNL     1      43.140   6.206  11.292  0.00  0.00    +0.000 A 
ATOM     27  N   UNL     1      43.041   5.003  11.946  0.00  0.00    +0.000 N 
ATOM     28  C   UNL     1      43.991   4.551  12.827  0.00  0.00    +0.000 A 
ATOM     29  O   UNL     1      43.813   3.536  13.487  0.00  0.00    +0.000 OA
ATOM     30  C   UNL     1      45.166   5.398  12.936  0.00  0.00    +0.000 A 
ATOM     31  H   UNL     1      42.217   4.430  11.852  0.00  0.00    +0.000 HD
ENDBRANCH  18  21
ENDBRANCH   1  19
TORSDOF 7
ENDMDL
