MODEL 1
REMARK VINA RESULT:    -7.865      0.000      0.000
REMARK INTER + INTRA:         -13.027
REMARK INTER:                 -11.544
REMARK INTRA:                  -1.483
REMARK UNBOUND:                -1.483
REMARK  Name = 
REMARK  9 active torsions:
REMARK  status: ('A' for Active; 'I' for Inactive)
REMARK    1  A    between atoms: C_1  and  O_2
REMARK    2  A    between atoms: O_2  and  C_3
REMARK    3  A    between atoms: C_10  and  C_11
REMARK    4  A    between atoms: N_13  and  C_14
REMARK    5  A    between atoms: C_14  and  C_15
REMARK    6  A    between atoms: C_18  and  C_19
REMARK    7  A    between atoms: C_19  and  C_20
REMARK    8  A    between atoms: C_20  and  C_21
REMARK    9  A    between atoms: C_21  and  C_22
REMARK                            x       y       z     vdW  Elec       q    Type
REMARK                         _______ _______ _______ _____ _____    ______ ____
ROOT
ATOM      1  C   UNL     1      48.201   7.276  13.453  0.00  0.00    +0.000 C 
ENDROOT
BRANCH   1   2
ATOM      2  C   UNL     1      47.123   6.427  12.824  0.00  0.00    +0.000 A 
ATOM      3  C   UNL     1      46.457   5.450  13.575  0.00  0.00    +0.000 A 
ATOM      4  C   UNL     1      45.403   4.717  13.017  0.00  0.00    +0.000 A 
ATOM      5  C   UNL     1      44.990   4.940  11.696  0.00  0.00    +0.000 A 
ATOM      6  C   UNL     1      45.702   5.869  10.926  0.00  0.00    +0.000 A 
ATOM      7  C   UNL     1      46.759   6.601  11.482  0.00  0.00    +0.000 A 
BRANCH   5   8
ATOM      8  C   UNL     1      43.807   4.192  11.117  0.00  0.00    +0.000 C 
BRANCH   8   9
ATOM      9  C   UNL     1      44.021   3.787   9.651  0.00  0.00    +0.000 C 
BRANCH   9  10
ATOM     10  C   UNL     1      44.567   2.363   9.513  0.00  0.00    +0.000 C 
BRANCH  10  11
ATOM     11  C   UNL     1      45.626   2.301   8.439  0.00  0.00    +0.000 A 
ATOM     12  C   UNL     1      45.868   3.399   7.616  0.00  0.00    +0.000 A 
ATOM     13  C   UNL     1      46.805   3.281   6.592  0.00  0.00    +0.000 A 
ATOM     14  C   UNL     1      47.475   2.078   6.419  0.00  0.00    +0.000 A 
ATOM     15  C   UNL     1      47.182   1.038   7.285  0.00  0.00    +0.000 A 
ATOM     16  N   UNL     1      46.275   1.120   8.283  0.00  0.00    +0.000 NA
ENDBRANCH  10  11
ENDBRANCH   9  10
ENDBRANCH   8   9
ENDBRANCH   5   8
ENDBRANCH   1   2
BRANCH   1  19
ATOM     17  C   UNL     1      49.274   7.590  15.641  0.00  0.00    +0.000 C 
ATOM     18  O   UNL     1      50.273   8.074  15.113  0.00  0.00    +0.000 OA
ATOM     19  N   UNL     1      48.210   7.170  14.889  0.00  0.00    +0.000 N 
ATOM     20  H   UNL     1      47.400   6.762  15.333  0.00  0.00    +0.000 HD
BRANCH  17  28
ATOM     21  C   UNL     1      48.770   4.873  17.685  0.00  0.00    +0.000 A 
ATOM     22  N   UNL     1      48.658   3.988  18.694  0.00  0.00    +0.000 NA
ATOM     23  C   UNL     1      48.730   4.453  19.943  0.00  0.00    +0.000 A 
ATOM     24  N   UNL     1      48.894   5.719  20.322  0.00  0.00    +0.000 NA
ATOM     25  C   UNL     1      49.017   6.564  19.285  0.00  0.00    +0.000 A 
ATOM     26  S   UNL     1      49.223   8.224  19.574  0.00  0.00    +0.000 S 
ATOM     27  C   UNL     1      49.306   8.554  17.909  0.00  0.00    +0.000 A 
ATOM     28  C   UNL     1      49.189   7.427  17.103  0.00  0.00    +0.000 A 
ATOM     29  C   UNL     1      48.989   6.240  17.931  0.00  0.00    +0.000 A 
BRANCH  21  31
ATOM     30  C   UNL     1      47.790   3.311  16.242  0.00  0.00    +0.000 C 
ATOM     31  O   UNL     1      48.697   4.400  16.393  0.00  0.00    +0.000 OA
ENDBRANCH  21  31
ENDBRANCH  17  28
ENDBRANCH   1  19
TORSDOF 8
ENDMDL
MODEL 2
REMARK VINA RESULT:    -7.388      2.286      2.612
REMARK INTER + INTRA:         -12.326
REMARK INTER:                 -11.100
REMARK INTRA:                  -1.226
REMARK UNBOUND:                -1.483
REMARK  Name = 
REMARK  9 active torsions:
REMARK  status: ('A' for Active; 'I' for Inactive)
REMARK    1  A    between atoms: C_1  and  O_2
REMARK    2  A    between atoms: O_2  and  C_3
REMARK    3  A    between atoms: C_10  and  C_11
REMARK    4  A    between atoms: N_13  and  C_14
REMARK    5  A    between atoms: C_14  and  C_15
REMARK    6  A    between atoms: C_18  and  C_19
REMARK    7  A    between atoms: C_19  and  C_20
REMARK    8  A    between atoms: C_20  and  C_21
REMARK    9  A    between atoms: C_21  and  C_22
REMARK                            x       y       z     vdW  Elec       q    Type
REMARK                         _______ _______ _______ _____ _____    ______ ____
ROOT
ATOM      1  C   UNL     1      48.640   7.066  15.088  0.00  0.00    +0.000 C 
ENDROOT
BRANCH   1   2
ATOM      2  C   UNL     1      47.681   6.333  14.182  0.00  0.00    +0.000 A 
ATOM      3  C   UNL     1      47.046   5.162  14.613  0.00  0.00    +0.000 A 
ATOM      4  C   UNL     1      46.097   4.525  13.805  0.00  0.00    +0.000 A 
ATOM      5  C   UNL     1      45.760   5.042  12.546  0.00  0.00    +0.000 A 
ATOM      6  C   UNL     1      46.446   6.175  12.088  0.00  0.00    +0.000 A 
ATOM      7  C   UNL     1      47.399   6.810  12.895  0.00  0.00    +0.000 A 
BRANCH   5   8
ATOM      8  C   UNL     1      44.685   4.388  11.702  0.00  0.00    +0.000 C 
BRANCH   8   9
ATOM      9  C   UNL     1      45.239   3.292  10.781  0.00  0.00    +0.000 C 
BRANCH   9  10
ATOM     10  C   UNL     1      44.646   3.358   9.371  0.00  0.00    +0.000 C 
BRANCH  10  11
ATOM     11  C   UNL     1      45.603   2.770   8.362  0.00  0.00    +0.000 A 
ATOM     12  C   UNL     1      46.018   3.514   7.259  0.00  0.00    +0.000 A 
ATOM     13  C   UNL     1      46.847   2.913   6.315  0.00  0.00    +0.000 A 
ATOM     14  C   UNL     1      47.240   1.594   6.495  0.00  0.00    +0.000 A 
ATOM     15  C   UNL     1      46.789   0.928   7.622  0.00  0.00    +0.000 A 
ATOM     16  N   UNL     1      45.981   1.482   8.553  0.00  0.00    +0.000 NA
ENDBRANCH  10  11
ENDBRANCH   9  10
ENDBRANCH   8   9
ENDBRANCH   5   8
ENDBRANCH   1   2
BRANCH   1  19
ATOM     17  C   UNL     1      49.910   6.176  16.994  0.00  0.00    +0.000 C 
ATOM     18  O   UNL     1      49.320   6.923  17.773  0.00  0.00    +0.000 OA
ATOM     19  N   UNL     1      49.633   6.190  15.654  0.00  0.00    +0.000 N 
ATOM     20  H   UNL     1      50.133   5.581  15.022  0.00  0.00    +0.000 HD
BRANCH  17  28
ATOM     21  C   UNL     1      50.193   2.750  17.011  0.00  0.00    +0.000 A 
ATOM     22  N   UNL     1      50.579   1.462  17.082  0.00  0.00    +0.000 NA
ATOM     23  C   UNL     1      51.779   1.198  17.603  0.00  0.00    +0.000 A 
ATOM     24  N   UNL     1      52.659   2.075  18.082  0.00  0.00    +0.000 NA
ATOM     25  C   UNL     1      52.239   3.347  17.977  0.00  0.00    +0.000 A 
ATOM     26  S   UNL     1      53.226   4.606  18.547  0.00  0.00    +0.000 S 
ATOM     27  C   UNL     1      52.089   5.777  18.073  0.00  0.00    +0.000 A 
ATOM     28  C   UNL     1      50.952   5.250  17.471  0.00  0.00    +0.000 A 
ATOM     29  C   UNL     1      51.035   3.792  17.440  0.00  0.00    +0.000 A 
BRANCH  21  31
ATOM     30  C   UNL     1      47.890   2.883  17.408  0.00  0.00    +0.000 C 
ATOM     31  O   UNL     1      48.955   3.031  16.474  0.00  0.00    +0.000 OA
ENDBRANCH  21  31
ENDBRANCH  17  28
ENDBRANCH   1  19
TORSDOF 8
ENDMDL
MODEL 3
REMARK VINA RESULT:    -6.720      3.859      8.805
REMARK INTER + INTRA:         -11.346
REMARK INTER:                  -9.847
REMARK INTRA:                  -1.498
REMARK UNBOUND:                -1.483
REMARK  Name = 
REMARK  9 active torsions:
REMARK  status: ('A' for Active; 'I' for Inactive)
REMARK    1  A    between atoms: C_1  and  O_2
REMARK    2  A    between atoms: O_2  and  C_3
REMARK    3  A    between atoms: C_10  and  C_11
REMARK    4  A    between atoms: N_13  and  C_14
REMARK    5  A    between atoms: C_14  and  C_15
REMARK    6  A    between atoms: C_18  and  C_19
REMARK    7  A    between atoms: C_19  and  C_20
REMARK    8  A    between atoms: C_20  and  C_21
REMARK    9  A    between atoms: C_21  and  C_22
REMARK                            x       y       z     vdW  Elec       q    Type
REMARK                         _______ _______ _______ _____ _____    ______ ____
ROOT
ATOM      1  C   UNL     1      47.359   3.423  17.034  0.00  0.00    +0.000 C 
ENDROOT
BRANCH   1   2
ATOM      2  C   UNL     1      48.827   3.277  17.353  0.00  0.00    +0.000 A 
ATOM      3  C   UNL     1      49.530   2.128  16.969  0.00  0.00    +0.000 A 
ATOM      4  C   UNL     1      50.908   2.026  17.193  0.00  0.00    +0.000 A 
ATOM      5  C   UNL     1      51.617   3.067  17.809  0.00  0.00    +0.000 A 
ATOM      6  C   UNL     1      50.900   4.186  18.253  0.00  0.00    +0.000 A 
ATOM      7  C   UNL     1      49.520   4.287  18.033  0.00  0.00    +0.000 A 
BRANCH   5   8
ATOM      8  C   UNL     1      53.119   2.981  17.990  0.00  0.00    +0.000 C 
BRANCH   8   9
ATOM      9  C   UNL     1      53.773   4.357  18.178  0.00  0.00    +0.000 C 
BRANCH   9  10
ATOM     10  C   UNL     1      54.781   4.681  17.072  0.00  0.00    +0.000 C 
BRANCH  10  11
ATOM     11  C   UNL     1      54.295   5.834  16.229  0.00  0.00    +0.000 A 
ATOM     12  C   UNL     1      53.075   6.450  16.504  0.00  0.00    +0.000 A 
ATOM     13  C   UNL     1      52.629   7.466  15.662  0.00  0.00    +0.000 A 
ATOM     14  C   UNL     1      53.407   7.841  14.576  0.00  0.00    +0.000 A 
ATOM     15  C   UNL     1      54.609   7.185  14.378  0.00  0.00    +0.000 A 
ATOM     16  N   UNL     1      55.067   6.192  15.173  0.00  0.00    +0.000 NA
ENDBRANCH  10  11
ENDBRANCH   9  10
ENDBRANCH   8   9
ENDBRANCH   5   8
ENDBRANCH   1   2
BRANCH   1  19
ATOM     17  C   UNL     1      47.101   4.216  14.723  0.00  0.00    +0.000 C 
ATOM     18  O   UNL     1      47.308   3.087  14.282  0.00  0.00    +0.000 OA
ATOM     19  N   UNL     1      47.112   4.463  16.069  0.00  0.00    +0.000 N 
ATOM     20  H   UNL     1      46.953   5.397  16.419  0.00  0.00    +0.000 HD
BRANCH  17  28
ATOM     21  C   UNL     1      44.429   5.120  12.758  0.00  0.00    +0.000 A 
ATOM     22  N   UNL     1      43.520   5.727  11.971  0.00  0.00    +0.000 NA
ATOM     23  C   UNL     1      43.858   6.890  11.409  0.00  0.00    +0.000 A 
ATOM     24  N   UNL     1      45.017   7.535  11.530  0.00  0.00    +0.000 NA
ATOM     25  C   UNL     1      45.886   6.903  12.336  0.00  0.00    +0.000 A 
ATOM     26  S   UNL     1      47.424   7.572  12.601  0.00  0.00    +0.000 S 
ATOM     27  C   UNL     1      47.852   6.299  13.642  0.00  0.00    +0.000 A 
ATOM     28  C   UNL     1      46.849   5.352  13.818  0.00  0.00    +0.000 A 
ATOM     29  C   UNL     1      45.683   5.704  13.012  0.00  0.00    +0.000 A 
BRANCH  21  31
ATOM     30  C   UNL     1      43.702   2.925  12.396  0.00  0.00    +0.000 C 
ATOM     31  O   UNL     1      44.088   3.920  13.341  0.00  0.00    +0.000 OA
ENDBRANCH  21  31
ENDBRANCH  17  28
ENDBRANCH   1  19
TORSDOF 8
ENDMDL
MODEL 4
REMARK VINA RESULT:    -6.696      3.484      5.424
REMARK INTER + INTRA:         -11.311
REMARK INTER:                  -9.629
REMARK INTRA:                  -1.682
REMARK UNBOUND:                -1.483
REMARK  Name = 
REMARK  9 active torsions:
REMARK  status: ('A' for Active; 'I' for Inactive)
REMARK    1  A    between atoms: C_1  and  O_2
REMARK    2  A    between atoms: O_2  and  C_3
REMARK    3  A    between atoms: C_10  and  C_11
REMARK    4  A    between atoms: N_13  and  C_14
REMARK    5  A    between atoms: C_14  and  C_15
REMARK    6  A    between atoms: C_18  and  C_19
REMARK    7  A    between atoms: C_19  and  C_20
REMARK    8  A    between atoms: C_20  and  C_21
REMARK    9  A    between atoms: C_21  and  C_22
REMARK                            x       y       z     vdW  Elec       q    Type
REMARK                         _______ _______ _______ _____ _____    ______ ____
ROOT
ATOM      1  C   UNL     1      47.883   3.617  17.259  0.00  0.00    +0.000 C 
ENDROOT
BRANCH   1   2
ATOM      2  C   UNL     1      47.755   4.412  15.982  0.00  0.00    +0.000 A 
ATOM      3  C   UNL     1      47.092   3.875  14.872  0.00  0.00    +0.000 A 
ATOM      4  C   UNL     1      46.902   4.640  13.714  0.00  0.00    +0.000 A 
ATOM      5  C   UNL     1      47.373   5.959  13.638  0.00  0.00    +0.000 A 
ATOM      6  C   UNL     1      48.096   6.470  14.724  0.00  0.00    +0.000 A 
ATOM      7  C   UNL     1      48.289   5.703  15.881  0.00  0.00    +0.000 A 
BRANCH   5   8
ATOM      8  C   UNL     1      47.109   6.806  12.410  0.00  0.00    +0.000 C 
BRANCH   8   9
ATOM      9  C   UNL     1      45.847   7.669  12.546  0.00  0.00    +0.000 C 
BRANCH   9  10
ATOM     10  C   UNL     1      44.792   7.332  11.487  0.00  0.00    +0.000 C 
BRANCH  10  11
ATOM     11  C   UNL     1      44.326   5.904  11.636  0.00  0.00    +0.000 A 
ATOM     12  C   UNL     1      44.510   4.986  10.603  0.00  0.00    +0.000 A 
ATOM     13  C   UNL     1      44.005   3.697  10.751  0.00  0.00    +0.000 A 
ATOM     14  C   UNL     1      43.336   3.357  11.918  0.00  0.00    +0.000 A 
ATOM     15  C   UNL     1      43.203   4.326  12.898  0.00  0.00    +0.000 A 
ATOM     16  N   UNL     1      43.677   5.586  12.783  0.00  0.00    +0.000 NA
ENDBRANCH  10  11
ENDBRANCH   9  10
ENDBRANCH   8   9
ENDBRANCH   5   8
ENDBRANCH   1   2
BRANCH   1  19
ATOM     17  C   UNL     1      49.985   2.372  16.994  0.00  0.00    +0.000 C 
ATOM     18  O   UNL     1      49.487   1.661  16.123  0.00  0.00    +0.000 OA
ATOM     19  N   UNL     1      49.257   3.357  17.604  0.00  0.00    +0.000 N 
ATOM     20  H   UNL     1      49.673   3.927  18.327  0.00  0.00    +0.000 HD
BRANCH  17  28
ATOM     21  C   UNL     1      52.533   4.544  17.773  0.00  0.00    +0.000 A 
ATOM     22  N   UNL     1      53.657   5.160  18.186  0.00  0.00    +0.000 NA
ATOM     23  C   UNL     1      54.686   4.395  18.561  0.00  0.00    +0.000 A 
ATOM     24  N   UNL     1      54.739   3.065  18.568  0.00  0.00    +0.000 NA
ATOM     25  C   UNL     1      53.592   2.493  18.164  0.00  0.00    +0.000 A 
ATOM     26  S   UNL     1      53.476   0.801  18.096  0.00  0.00    +0.000 S 
ATOM     27  C   UNL     1      51.866   0.884  17.560  0.00  0.00    +0.000 A 
ATOM     28  C   UNL     1      51.380   2.180  17.428  0.00  0.00    +0.000 A 
ATOM     29  C   UNL     1      52.427   3.142  17.765  0.00  0.00    +0.000 A 
BRANCH  21  31
ATOM     30  C   UNL     1      51.845   6.415  16.545  0.00  0.00    +0.000 C 
ATOM     31  O   UNL     1      51.468   5.326  17.383  0.00  0.00    +0.000 OA
ENDBRANCH  21  31
ENDBRANCH  17  28
ENDBRANCH   1  19
TORSDOF 8
ENDMDL
MODEL 5
REMARK VINA RESULT:    -6.514      3.671      5.819
REMARK INTER + INTRA:         -11.043
REMARK INTER:                  -9.802
REMARK INTRA:                  -1.240
REMARK UNBOUND:                -1.483
REMARK  Name = 
REMARK  9 active torsions:
REMARK  status: ('A' for Active; 'I' for Inactive)
REMARK    1  A    between atoms: C_1  and  O_2
REMARK    2  A    between atoms: O_2  and  C_3
REMARK    3  A    between atoms: C_10  and  C_11
REMARK    4  A    between atoms: N_13  and  C_14
REMARK    5  A    between atoms: C_14  and  C_15
REMARK    6  A    between atoms: C_18  and  C_19
REMARK    7  A    between atoms: C_19  and  C_20
REMARK    8  A    between atoms: C_20  and  C_21
REMARK    9  A    between atoms: C_21  and  C_22
REMARK                            x       y       z     vdW  Elec       q    Type
REMARK                         _______ _______ _______ _____ _____    ______ ____
ROOT
ATOM      1  C   UNL     1      48.924   6.904  14.256  0.00  0.00    +0.000 C 
ENDROOT
BRANCH   1   2
ATOM      2  C   UNL     1      47.727   6.264  13.596  0.00  0.00    +0.000 A 
ATOM      3  C   UNL     1      47.230   6.762  12.385  0.00  0.00    +0.000 A 
ATOM      4  C   UNL     1      46.170   6.121  11.731  0.00  0.00    +0.000 A 
ATOM      5  C   UNL     1      45.580   4.971  12.273  0.00  0.00    +0.000 A 
ATOM      6  C   UNL     1      46.033   4.515  13.518  0.00  0.00    +0.000 A 
ATOM      7  C   UNL     1      47.091   5.157  14.174  0.00  0.00    +0.000 A 
BRANCH   5   8
ATOM      8  C   UNL     1      44.478   4.243  11.530  0.00  0.00    +0.000 C 
BRANCH   8   9
ATOM      9  C   UNL     1      44.737   4.157  10.020  0.00  0.00    +0.000 C 
BRANCH   9  10
ATOM     10  C   UNL     1      44.605   2.728   9.485  0.00  0.00    +0.000 C 
BRANCH  10  11
ATOM     11  C   UNL     1      45.623   2.469   8.401  0.00  0.00    +0.000 A 
ATOM     12  C   UNL     1      45.907   3.444   7.446  0.00  0.00    +0.000 A 
ATOM     13  C   UNL     1      46.802   3.143   6.422  0.00  0.00    +0.000 A 
ATOM     14  C   UNL     1      47.388   1.886   6.378  0.00  0.00    +0.000 A 
ATOM     15  C   UNL     1      47.058   0.978   7.370  0.00  0.00    +0.000 A 
ATOM     16  N   UNL     1      46.190   1.238   8.373  0.00  0.00    +0.000 NA
ENDBRANCH  10  11
ENDBRANCH   9  10
ENDBRANCH   8   9
ENDBRANCH   5   8
ENDBRANCH   1   2
BRANCH   1  19
ATOM     17  C   UNL     1      50.960   8.153  13.680  0.00  0.00    +0.000 C 
ATOM     18  O   UNL     1      51.330   8.147  14.852  0.00  0.00    +0.000 OA
ATOM     19  N   UNL     1      49.783   7.563  13.306  0.00  0.00    +0.000 N 
ATOM     20  H   UNL     1      49.482   7.585  12.342  0.00  0.00    +0.000 HD
BRANCH  17  28
ATOM     21  C   UNL     1      50.183  10.336  11.140  0.00  0.00    +0.000 A 
ATOM     22  N   UNL     1      50.165  11.226  10.130  0.00  0.00    +0.000 NA
ATOM     23  C   UNL     1      51.322  11.516   9.531  0.00  0.00    +0.000 A 
ATOM     24  N   UNL     1      52.522  11.012   9.814  0.00  0.00    +0.000 NA
ATOM     25  C   UNL     1      52.497  10.142  10.837  0.00  0.00    +0.000 A 
ATOM     26  S   UNL     1      53.934   9.387  11.334  0.00  0.00    +0.000 S 
ATOM     27  C   UNL     1      53.122   8.540  12.563  0.00  0.00    +0.000 A 
ATOM     28  C   UNL     1      51.760   8.812  12.632  0.00  0.00    +0.000 A 
ATOM     29  C   UNL     1      51.385   9.751  11.578  0.00  0.00    +0.000 A 
BRANCH  21  31
ATOM     30  C   UNL     1      48.019  11.066  11.652  0.00  0.00    +0.000 C 
ATOM     31  O   UNL     1      48.993  10.032  11.762  0.00  0.00    +0.000 OA
ENDBRANCH  21  31
ENDBRANCH  17  28
ENDBRANCH   1  19
TORSDOF 8
ENDMDL
MODEL 6
REMARK VINA RESULT:    -6.384      2.844      4.114
REMARK INTER + INTRA:         -10.852
REMARK INTER:                  -9.789
REMARK INTRA:                  -1.062
REMARK UNBOUND:                -1.483
REMARK  Name = 
REMARK  9 active torsions:
REMARK  status: ('A' for Active; 'I' for Inactive)
REMARK    1  A    between atoms: C_1  and  O_2
REMARK    2  A    between atoms: O_2  and  C_3
REMARK    3  A    between atoms: C_10  and  C_11
REMARK    4  A    between atoms: N_13  and  C_14
REMARK    5  A    between atoms: C_14  and  C_15
REMARK    6  A    between atoms: C_18  and  C_19
REMARK    7  A    between atoms: C_19  and  C_20
REMARK    8  A    between atoms: C_20  and  C_21
REMARK    9  A    between atoms: C_21  and  C_22
REMARK                            x       y       z     vdW  Elec       q    Type
REMARK                         _______ _______ _______ _____ _____    ______ ____
ROOT
ATOM      1  C   UNL     1      47.253   8.449  13.372  0.00  0.00    +0.000 C 
ENDROOT
BRANCH   1   2
ATOM      2  C   UNL     1      46.330   7.369  12.861  0.00  0.00    +0.000 A 
ATOM      3  C   UNL     1      45.219   7.694  12.074  0.00  0.00    +0.000 A 
ATOM      4  C   UNL     1      44.408   6.689  11.533  0.00  0.00    +0.000 A 
ATOM      5  C   UNL     1      44.685   5.335  11.769  0.00  0.00    +0.000 A 
ATOM      6  C   UNL     1      45.756   5.014  12.613  0.00  0.00    +0.000 A 
ATOM      7  C   UNL     1      46.566   6.020  13.157  0.00  0.00    +0.000 A 
BRANCH   5   8
ATOM      8  C   UNL     1      43.845   4.249  11.129  0.00  0.00    +0.000 C 
BRANCH   8   9
ATOM      9  C   UNL     1      44.246   3.969   9.674  0.00  0.00    +0.000 C 
BRANCH   9  10
ATOM     10  C   UNL     1      44.580   2.495   9.434  0.00  0.00    +0.000 C 
BRANCH  10  11
ATOM     11  C   UNL     1      45.638   2.356   8.365  0.00  0.00    +0.000 A 
ATOM     12  C   UNL     1      45.898   3.404   7.484  0.00  0.00    +0.000 A 
ATOM     13  C   UNL     1      46.833   3.213   6.469  0.00  0.00    +0.000 A 
ATOM     14  C   UNL     1      47.481   1.991   6.361  0.00  0.00    +0.000 A 
ATOM     15  C   UNL     1      47.170   1.005   7.282  0.00  0.00    +0.000 A 
ATOM     16  N   UNL     1      46.265   1.157   8.274  0.00  0.00    +0.000 NA
ENDBRANCH  10  11
ENDBRANCH   9  10
ENDBRANCH   8   9
ENDBRANCH   5   8
ENDBRANCH   1   2
BRANCH   1  19
ATOM     17  C   UNL     1      49.484   8.714  14.367  0.00  0.00    +0.000 C 
ATOM     18  O   UNL     1      49.400   9.938  14.299  0.00  0.00    +0.000 OA
ATOM     19  N   UNL     1      48.468   7.910  13.927  0.00  0.00    +0.000 N 
ATOM     20  H   UNL     1      48.553   6.904  13.976  0.00  0.00    +0.000 HD
BRANCH  17  28
ATOM     21  C   UNL     1      52.742   8.515  13.290  0.00  0.00    +0.000 A 
ATOM     22  N   UNL     1      54.068   8.339  13.133  0.00  0.00    +0.000 NA
ATOM     23  C   UNL     1      54.721   7.650  14.072  0.00  0.00    +0.000 A 
ATOM     24  N   UNL     1      54.206   7.094  15.167  0.00  0.00    +0.000 NA
ATOM     25  C   UNL     1      52.885   7.308  15.290  0.00  0.00    +0.000 A 
ATOM     26  S   UNL     1      52.051   6.664  16.621  0.00  0.00    +0.000 S 
ATOM     27  C   UNL     1      50.583   7.336  16.089  0.00  0.00    +0.000 A 
ATOM     28  C   UNL     1      50.690   8.063  14.908  0.00  0.00    +0.000 A 
ATOM     29  C   UNL     1      52.066   8.020  14.419  0.00  0.00    +0.000 A 
BRANCH  21  31
ATOM     30  C   UNL     1      51.641   8.421  11.226  0.00  0.00    +0.000 C 
ATOM     31  O   UNL     1      52.062   9.225  12.325  0.00  0.00    +0.000 OA
ENDBRANCH  21  31
ENDBRANCH  17  28
ENDBRANCH   1  19
TORSDOF 8
ENDMDL
MODEL 7
REMARK VINA RESULT:    -6.266      4.547      9.393
REMARK INTER + INTRA:         -10.678
REMARK INTER:                  -9.415
REMARK INTRA:                  -1.263
REMARK UNBOUND:                -1.483
REMARK  Name = 
REMARK  9 active torsions:
REMARK  status: ('A' for Active; 'I' for Inactive)
REMARK    1  A    between atoms: C_1  and  O_2
REMARK    2  A    between atoms: O_2  and  C_3
REMARK    3  A    between atoms: C_10  and  C_11
REMARK    4  A    between atoms: N_13  and  C_14
REMARK    5  A    between atoms: C_14  and  C_15
REMARK    6  A    between atoms: C_18  and  C_19
REMARK    7  A    between atoms: C_19  and  C_20
REMARK    8  A    between atoms: C_20  and  C_21
REMARK    9  A    between atoms: C_21  and  C_22
REMARK                            x       y       z     vdW  Elec       q    Type
REMARK                         _______ _______ _______ _____ _____    ______ ____
ROOT
ATOM      1  C   UNL     1      47.260   3.383  16.844  0.00  0.00    +0.000 C 
ENDROOT
BRANCH   1   2
ATOM      2  C   UNL     1      48.646   3.542  17.422  0.00  0.00    +0.000 A 
ATOM      3  C   UNL     1      49.667   2.646  17.082  0.00  0.00    +0.000 A 
ATOM      4  C   UNL     1      50.972   2.839  17.553  0.00  0.00    +0.000 A 
ATOM      5  C   UNL     1      51.286   3.929  18.377  0.00  0.00    +0.000 A 
ATOM      6  C   UNL     1      50.249   4.785  18.771  0.00  0.00    +0.000 A 
ATOM      7  C   UNL     1      48.943   4.590  18.302  0.00  0.00    +0.000 A 
BRANCH   5   8
ATOM      8  C   UNL     1      52.711   4.171  18.831  0.00  0.00    +0.000 C 
BRANCH   8   9
ATOM      9  C   UNL     1      53.720   4.110  17.676  0.00  0.00    +0.000 C 
BRANCH   9  10
ATOM     10  C   UNL     1      55.026   3.417  18.076  0.00  0.00    +0.000 C 
BRANCH  10  11
ATOM     11  C   UNL     1      54.839   1.920  18.133  0.00  0.00    +0.000 A 
ATOM     12  C   UNL     1      55.196   1.203  19.274  0.00  0.00    +0.000 A 
ATOM     13  C   UNL     1      55.072  -0.184  19.263  0.00  0.00    +0.000 A 
ATOM     14  C   UNL     1      54.596  -0.816  18.123  0.00  0.00    +0.000 A 
ATOM     15  C   UNL     1      54.255  -0.030  17.036  0.00  0.00    +0.000 A 
ATOM     16  N   UNL     1      54.369   1.317  17.014  0.00  0.00    +0.000 NA
ENDBRANCH  10  11
ENDBRANCH   9  10
ENDBRANCH   8   9
ENDBRANCH   5   8
ENDBRANCH   1   2
BRANCH   1  19
ATOM     17  C   UNL     1      46.963   4.190  14.542  0.00  0.00    +0.000 C 
ATOM     18  O   UNL     1      47.258   3.087  14.087  0.00  0.00    +0.000 OA
ATOM     19  N   UNL     1      46.945   4.417  15.892  0.00  0.00    +0.000 N 
ATOM     20  H   UNL     1      46.714   5.331  16.254  0.00  0.00    +0.000 HD
BRANCH  17  28
ATOM     21  C   UNL     1      44.172   5.021  12.716  0.00  0.00    +0.000 A 
ATOM     22  N   UNL     1      43.209   5.603  11.975  0.00  0.00    +0.000 NA
ATOM     23  C   UNL     1      43.486   6.774  11.398  0.00  0.00    +0.000 A 
ATOM     24  N   UNL     1      44.632   7.450  11.461  0.00  0.00    +0.000 NA
ATOM     25  C   UNL     1      45.558   6.843  12.221  0.00  0.00    +0.000 A 
ATOM     26  S   UNL     1      47.088   7.553  12.409  0.00  0.00    +0.000 S 
ATOM     27  C   UNL     1      47.603   6.292  13.426  0.00  0.00    +0.000 A 
ATOM     28  C   UNL     1      46.636   5.319  13.652  0.00  0.00    +0.000 A 
ATOM     29  C   UNL     1      45.422   5.639  12.906  0.00  0.00    +0.000 A 
BRANCH  21  31
ATOM     30  C   UNL     1      43.658   2.763  12.379  0.00  0.00    +0.000 C 
ATOM     31  O   UNL     1      43.894   3.812  13.314  0.00  0.00    +0.000 OA
ENDBRANCH  21  31
ENDBRANCH  17  28
ENDBRANCH   1  19
TORSDOF 8
ENDMDL
MODEL 8
REMARK VINA RESULT:    -6.113      3.995      9.078
REMARK INTER + INTRA:         -10.454
REMARK INTER:                  -8.538
REMARK INTRA:                  -1.916
REMARK UNBOUND:                -1.483
REMARK  Name = 
REMARK  9 active torsions:
REMARK  status: ('A' for Active; 'I' for Inactive)
REMARK    1  A    between atoms: C_1  and  O_2
REMARK    2  A    between atoms: O_2  and  C_3
REMARK    3  A    between atoms: C_10  and  C_11
REMARK    4  A    between atoms: N_13  and  C_14
REMARK    5  A    between atoms: C_14  and  C_15
REMARK    6  A    between atoms: C_18  and  C_19
REMARK    7  A    between atoms: C_19  and  C_20
REMARK    8  A    between atoms: C_20  and  C_21
REMARK    9  A    between atoms: C_21  and  C_22
REMARK                            x       y       z     vdW  Elec       q    Type
REMARK                         _______ _______ _______ _____ _____    ______ ____
ROOT
ATOM      1  C   UNL     1      47.372   3.614  16.897  0.00  0.00    +0.000 C 
ENDROOT
BRANCH   1   2
ATOM      2  C   UNL     1      48.833   3.327  17.146  0.00  0.00    +0.000 A 
ATOM      3  C   UNL     1      49.649   4.278  17.772  0.00  0.00    +0.000 A 
ATOM      4  C   UNL     1      50.984   3.984  18.076  0.00  0.00    +0.000 A 
ATOM      5  C   UNL     1      51.536   2.735  17.759  0.00  0.00    +0.000 A 
ATOM      6  C   UNL     1      50.738   1.810  17.072  0.00  0.00    +0.000 A 
ATOM      7  C   UNL     1      49.403   2.106  16.764  0.00  0.00    +0.000 A 
BRANCH   5   8
ATOM      8  C   UNL     1      52.960   2.396  18.148  0.00  0.00    +0.000 C 
BRANCH   8   9
ATOM      9  C   UNL     1      53.704   3.587  18.770  0.00  0.00    +0.000 C 
BRANCH   9  10
ATOM     10  C   UNL     1      54.807   4.127  17.856  0.00  0.00    +0.000 C 
BRANCH  10  11
ATOM     11  C   UNL     1      54.532   5.563  17.480  0.00  0.00    +0.000 A 
ATOM     12  C   UNL     1      53.606   5.871  16.486  0.00  0.00    +0.000 A 
ATOM     13  C   UNL     1      53.429   7.203  16.120  0.00  0.00    +0.000 A 
ATOM     14  C   UNL     1      54.174   8.188  16.753  0.00  0.00    +0.000 A 
ATOM     15  C   UNL     1      55.067   7.798  17.737  0.00  0.00    +0.000 A 
ATOM     16  N   UNL     1      55.265   6.514  18.110  0.00  0.00    +0.000 NA
ENDBRANCH  10  11
ENDBRANCH   9  10
ENDBRANCH   8   9
ENDBRANCH   5   8
ENDBRANCH   1   2
BRANCH   1  19
ATOM     17  C   UNL     1      47.125   4.289  14.548  0.00  0.00    +0.000 C 
ATOM     18  O   UNL     1      47.247   3.125  14.171  0.00  0.00    +0.000 OA
ATOM     19  N   UNL     1      47.178   4.611  15.876  0.00  0.00    +0.000 N 
ATOM     20  H   UNL     1      47.090   5.573  16.173  0.00  0.00    +0.000 HD
BRANCH  17  28
ATOM     21  C   UNL     1      48.880   7.166  13.871  0.00  0.00    +0.000 A 
ATOM     22  N   UNL     1      49.404   8.301  13.368  0.00  0.00    +0.000 NA
ATOM     23  C   UNL     1      48.773   8.881  12.345  0.00  0.00    +0.000 A 
ATOM     24  N   UNL     1      47.654   8.467  11.752  0.00  0.00    +0.000 NA
ATOM     25  C   UNL     1      47.176   7.326  12.274  0.00  0.00    +0.000 A 
ATOM     26  S   UNL     1      45.748   6.652  11.651  0.00  0.00    +0.000 S 
ATOM     27  C   UNL     1      45.832   5.347  12.736  0.00  0.00    +0.000 A 
ATOM     28  C   UNL     1      46.935   5.386  13.581  0.00  0.00    +0.000 A 
ATOM     29  C   UNL     1      47.723   6.587  13.319  0.00  0.00    +0.000 A 
BRANCH  21  31
ATOM     30  C   UNL     1      49.689   7.420  16.053  0.00  0.00    +0.000 C 
ATOM     31  O   UNL     1      49.526   6.562  14.927  0.00  0.00    +0.000 OA
ENDBRANCH  21  31
ENDBRANCH  17  28
ENDBRANCH   1  19
TORSDOF 8
ENDMDL
MODEL 9
REMARK VINA RESULT:    -6.039      5.488      7.839
REMARK INTER + INTRA:         -10.346
REMARK INTER:                  -9.198
REMARK INTRA:                  -1.148
REMARK UNBOUND:                -1.483
REMARK  Name = 
REMARK  9 active torsions:
REMARK  status: ('A' for Active; 'I' for Inactive)
REMARK    1  A    between atoms: C_1  and  O_2
REMARK    2  A    between atoms: O_2  and  C_3
REMARK    3  A    between atoms: C_10  and  C_11
REMARK    4  A    between atoms: N_13  and  C_14
REMARK    5  A    between atoms: C_14  and  C_15
REMARK    6  A    between atoms: C_18  and  C_19
REMARK    7  A    between atoms: C_19  and  C_20
REMARK    8  A    between atoms: C_20  and  C_21
REMARK    9  A    between atoms: C_21  and  C_22
REMARK                            x       y       z     vdW  Elec       q    Type
REMARK                         _______ _______ _______ _____ _____    ______ ____
ROOT
ATOM      1  C   UNL     1      51.135   8.769  11.530  0.00  0.00    +0.000 C 
ENDROOT
BRANCH   1   2
ATOM      2  C   UNL     1      49.704   8.357  11.775  0.00  0.00    +0.000 A 
ATOM      3  C   UNL     1      49.385   7.024  12.063  0.00  0.00    +0.000 A 
ATOM      4  C   UNL     1      48.070   6.654  12.369  0.00  0.00    +0.000 A 
ATOM      5  C   UNL     1      47.041   7.606  12.394  0.00  0.00    +0.000 A 
ATOM      6  C   UNL     1      47.350   8.926  12.040  0.00  0.00    +0.000 A 
ATOM      7  C   UNL     1      48.665   9.296  11.729  0.00  0.00    +0.000 A 
BRANCH   5   8
ATOM      8  C   UNL     1      45.632   7.215  12.790  0.00  0.00    +0.000 C 
BRANCH   8   9
ATOM      9  C   UNL     1      44.842   6.593  11.631  0.00  0.00    +0.000 C 
BRANCH   9  10
ATOM     10  C   UNL     1      44.614   5.090  11.819  0.00  0.00    +0.000 C 
BRANCH  10  11
ATOM     11  C   UNL     1      44.819   4.353  10.518  0.00  0.00    +0.000 A 
ATOM     12  C   UNL     1      44.393   3.034  10.375  0.00  0.00    +0.000 A 
ATOM     13  C   UNL     1      44.660   2.366   9.182  0.00  0.00    +0.000 A 
ATOM     14  C   UNL     1      45.339   3.027   8.169  0.00  0.00    +0.000 A 
ATOM     15  C   UNL     1      45.720   4.340   8.389  0.00  0.00    +0.000 A 
ATOM     16  N   UNL     1      45.480   5.013   9.536  0.00  0.00    +0.000 NA
ENDBRANCH  10  11
ENDBRANCH   9  10
ENDBRANCH   8   9
ENDBRANCH   5   8
ENDBRANCH   1   2
BRANCH   1  19
ATOM     17  C   UNL     1      52.933   7.824  10.147  0.00  0.00    +0.000 C 
ATOM     18  O   UNL     1      53.154   8.920   9.635  0.00  0.00    +0.000 OA
ATOM     19  N   UNL     1      51.951   7.668  11.088  0.00  0.00    +0.000 N 
ATOM     20  H   UNL     1      51.769   6.760  11.492  0.00  0.00    +0.000 HD
BRANCH  17  28
ATOM     21  C   UNL     1      53.088   5.959   7.264  0.00  0.00    +0.000 A 
ATOM     22  N   UNL     1      53.384   5.116   6.256  0.00  0.00    +0.000 NA
ATOM     23  C   UNL     1      54.306   4.176   6.479  0.00  0.00    +0.000 A 
ATOM     24  N   UNL     1      54.979   3.961   7.608  0.00  0.00    +0.000 NA
ATOM     25  C   UNL     1      54.664   4.834   8.579  0.00  0.00    +0.000 A 
ATOM     26  S   UNL     1      55.414   4.708  10.097  0.00  0.00    +0.000 S 
ATOM     27  C   UNL     1      54.562   6.055  10.685  0.00  0.00    +0.000 A 
ATOM     28  C   UNL     1      53.704   6.631   9.754  0.00  0.00    +0.000 A 
ATOM     29  C   UNL     1      53.749   5.880   8.503  0.00  0.00    +0.000 A 
BRANCH  21  31
ATOM     30  C   UNL     1      52.641   8.060   6.333  0.00  0.00    +0.000 C 
ATOM     31  O   UNL     1      52.137   6.931   7.041  0.00  0.00    +0.000 OA
ENDBRANCH  21  31
ENDBRANCH  17  28
ENDBRANCH   1  19
TORSDOF 8
ENDMDL
