MODEL 1
REMARK VINA RESULT:    -8.742      0.000      0.000
REMARK INTER + INTRA:         -11.938
REMARK INTER:                 -11.297
REMARK INTRA:                  -0.641
REMARK UNBOUND:                -0.641
REMARK  Name = 
REMARK  5 active torsions:
REMARK  status: ('A' for Active; 'I' for Inactive)
REMARK    1  A    between atoms: C_2  and  C_4
REMARK    2  A    between atoms: C_7  and  N_8
REMARK    3  A    between atoms: N_8  and  C_9
REMARK    4  A    between atoms: C_9  and  C_10
REMARK    5  A    between atoms: C_14  and  C_15
REMARK                            x       y       z     vdW  Elec       q    Type
REMARK                         _______ _______ _______ _____ _____    ______ ____
ROOT
ATOM      1  C   UNL     1      43.469   4.575  11.043  0.00  0.00    +0.000 C 
ENDROOT
BRANCH   1   2
ATOM      2  C   UNL     1      44.656   4.929  11.900  0.00  0.00    +0.000 A 
ATOM      3  C   UNL     1      45.009   4.174  13.007  0.00  0.00    +0.000 A 
ATOM      4  N   UNL     1      46.036   4.482  13.827  0.00  0.00    +0.000 NA
ATOM      5  C   UNL     1      46.737   5.609  13.532  0.00  0.00    +0.000 A 
ATOM      6  C   UNL     1      46.492   6.455  12.449  0.00  0.00    +0.000 A 
ATOM      7  C   UNL     1      45.417   6.078  11.630  0.00  0.00    +0.000 A 
BRANCH   6   8
ATOM      8  C   UNL     1      47.300   7.666  12.185  0.00  0.00    +0.000 A 
ATOM      9  C   UNL     1      46.753   8.959  12.315  0.00  0.00    +0.000 A 
ATOM     10  C   UNL     1      47.510  10.110  12.058  0.00  0.00    +0.000 A 
ATOM     11  C   UNL     1      48.842   9.993  11.675  0.00  0.00    +0.000 A 
ATOM     12  C   UNL     1      49.400   8.730  11.550  0.00  0.00    +0.000 A 
ATOM     13  F   UNL     1      50.684   8.611  11.187  0.00  0.00    +0.000 F 
ATOM     14  C   UNL     1      48.650   7.581  11.795  0.00  0.00    +0.000 A 
ENDBRANCH   6   8
ENDBRANCH   1   2
BRANCH   1  15
ATOM     15  N   UNL     1      43.785   4.882   9.653  0.00  0.00    +0.000 N 
ATOM     16  H   UNL     1      44.147   5.823   9.543  0.00  0.00    +0.000 HD
BRANCH  15  20
ATOM     17  C   UNL     1      46.208   2.058   7.919  0.00  0.00    +0.000 A 
ATOM     18  C   UNL     1      46.336   3.396   7.588  0.00  0.00    +0.000 A 
ATOM     19  N   UNL     1      45.529   4.357   8.111  0.00  0.00    +0.000 NA
ATOM     20  C   UNL     1      44.586   3.949   8.987  0.00  0.00    +0.000 A 
ATOM     21  C   UNL     1      44.477   2.588   9.310  0.00  0.00    +0.000 A 
ATOM     22  N   UNL     1      45.262   1.609   8.788  0.00  0.00    +0.000 NA
BRANCH  17  24
ATOM     23  N   UNL     1      46.867  -0.251   7.620  0.00  0.00    +0.000 N 
ATOM     24  C   UNL     1      47.136   1.058   7.325  0.00  0.00    +0.000 C 
ATOM     25  O   UNL     1      48.080   1.381   6.615  0.00  0.00    +0.000 OA
ATOM     26  H   UNL     1      47.462  -0.977   7.248  0.00  0.00    +0.000 HD
ATOM     27  H   UNL     1      46.081  -0.486   8.214  0.00  0.00    +0.000 HD
ENDBRANCH  17  24
ENDBRANCH  15  20
ENDBRANCH   1  15
TORSDOF 5
ENDMDL
MODEL 2
REMARK VINA RESULT:    -8.667      1.167      1.522
REMARK INTER + INTRA:         -11.840
REMARK INTER:                 -11.232
REMARK INTRA:                  -0.609
REMARK UNBOUND:                -0.641
REMARK  Name = 
REMARK  5 active torsions:
REMARK  status: ('A' for Active; 'I' for Inactive)
REMARK    1  A    between atoms: C_2  and  C_4
REMARK    2  A    between atoms: C_7  and  N_8
REMARK    3  A    between atoms: N_8  and  C_9
REMARK    4  A    between atoms: C_9  and  C_10
REMARK    5  A    between atoms: C_14  and  C_15
REMARK                            x       y       z     vdW  Elec       q    Type
REMARK                         _______ _______ _______ _____ _____    ______ ____
ROOT
ATOM      1  C   UNL     1      43.510   4.582  11.132  0.00  0.00    +0.000 C 
ENDROOT
BRANCH   1   2
ATOM      2  C   UNL     1      44.782   4.856  11.890  0.00  0.00    +0.000 A 
ATOM      3  C   UNL     1      45.246   3.996  12.872  0.00  0.00    +0.000 A 
ATOM      4  N   UNL     1      46.355   4.227  13.607  0.00  0.00    +0.000 NA
ATOM      5  C   UNL     1      47.026   5.381  13.354  0.00  0.00    +0.000 A 
ATOM      6  C   UNL     1      46.673   6.329  12.392  0.00  0.00    +0.000 A 
ATOM      7  C   UNL     1      45.516   6.030  11.657  0.00  0.00    +0.000 A 
BRANCH   6   8
ATOM      8  C   UNL     1      47.455   7.566  12.168  0.00  0.00    +0.000 A 
ATOM      9  C   UNL     1      48.827   7.522  11.847  0.00  0.00    +0.000 A 
ATOM     10  C   UNL     1      49.575   8.689  11.643  0.00  0.00    +0.000 A 
ATOM     11  C   UNL     1      48.960   9.933  11.744  0.00  0.00    +0.000 A 
ATOM     12  C   UNL     1      47.610   9.996  12.051  0.00  0.00    +0.000 A 
ATOM     13  F   UNL     1      47.011  11.192  12.144  0.00  0.00    +0.000 F 
ATOM     14  C   UNL     1      46.862   8.839  12.264  0.00  0.00    +0.000 A 
ENDBRANCH   6   8
ENDBRANCH   1   2
BRANCH   1  15
ATOM     15  N   UNL     1      43.729   4.886   9.722  0.00  0.00    +0.000 N 
ATOM     16  H   UNL     1      44.006   5.851   9.579  0.00  0.00    +0.000 HD
BRANCH  15  20
ATOM     17  C   UNL     1      46.268   2.217   7.909  0.00  0.00    +0.000 A 
ATOM     18  C   UNL     1      46.353   3.571   7.633  0.00  0.00    +0.000 A 
ATOM     19  N   UNL     1      45.507   4.483   8.183  0.00  0.00    +0.000 NA
ATOM     20  C   UNL     1      44.569   4.008   9.030  0.00  0.00    +0.000 A 
ATOM     21  C   UNL     1      44.504   2.632   9.297  0.00  0.00    +0.000 A 
ATOM     22  N   UNL     1      45.328   1.702   8.748  0.00  0.00    +0.000 NA
BRANCH  17  24
ATOM     23  N   UNL     1      48.307   1.849   6.659  0.00  0.00    +0.000 N 
ATOM     24  C   UNL     1      47.236   1.274   7.288  0.00  0.00    +0.000 C 
ATOM     25  O   UNL     1      47.089   0.059   7.335  0.00  0.00    +0.000 OA
ATOM     26  H   UNL     1      48.998   1.262   6.215  0.00  0.00    +0.000 HD
ATOM     27  H   UNL     1      48.398   2.859   6.633  0.00  0.00    +0.000 HD
ENDBRANCH  17  24
ENDBRANCH  15  20
ENDBRANCH   1  15
TORSDOF 5
ENDMDL
MODEL 3
REMARK VINA RESULT:    -8.602      4.008      7.225
REMARK INTER + INTRA:         -11.757
REMARK INTER:                 -11.360
REMARK INTRA:                  -0.397
REMARK UNBOUND:                -0.641
REMARK  Name = 
REMARK  5 active torsions:
REMARK  status: ('A' for Active; 'I' for Inactive)
REMARK    1  A    between atoms: C_2  and  C_4
REMARK    2  A    between atoms: C_7  and  N_8
REMARK    3  A    between atoms: N_8  and  C_9
REMARK    4  A    between atoms: C_9  and  C_10
REMARK    5  A    between atoms: C_14  and  C_15
REMARK                            x       y       z     vdW  Elec       q    Type
REMARK                         _______ _______ _______ _____ _____    ______ ____
ROOT
ATOM      1  C   UNL     1      46.036   7.160  12.044  0.00  0.00    +0.000 C 
ENDROOT
BRANCH   1   2
ATOM      2  C   UNL     1      45.221   6.194  11.226  0.00  0.00    +0.000 A 
ATOM      3  C   UNL     1      43.853   6.060  11.403  0.00  0.00    +0.000 A 
ATOM      4  N   UNL     1      43.093   5.174  10.724  0.00  0.00    +0.000 NA
ATOM      5  C   UNL     1      43.736   4.374   9.833  0.00  0.00    +0.000 A 
ATOM      6  C   UNL     1      45.104   4.408   9.554  0.00  0.00    +0.000 A 
ATOM      7  C   UNL     1      45.838   5.353  10.286  0.00  0.00    +0.000 A 
BRANCH   6   8
ATOM      8  C   UNL     1      45.738   3.507   8.565  0.00  0.00    +0.000 A 
ATOM      9  C   UNL     1      46.364   4.010   7.406  0.00  0.00    +0.000 A 
ATOM     10  C   UNL     1      46.957   3.162   6.462  0.00  0.00    +0.000 A 
ATOM     11  C   UNL     1      46.949   1.786   6.663  0.00  0.00    +0.000 A 
ATOM     12  C   UNL     1      46.345   1.273   7.801  0.00  0.00    +0.000 A 
ATOM     13  F   UNL     1      46.339  -0.052   8.002  0.00  0.00    +0.000 F 
ATOM     14  C   UNL     1      45.744   2.111   8.739  0.00  0.00    +0.000 A 
ENDBRANCH   6   8
ENDBRANCH   1   2
BRANCH   1  15
ATOM     15  N   UNL     1      47.339   6.565  12.314  0.00  0.00    +0.000 N 
ATOM     16  H   UNL     1      48.093   7.237  12.214  0.00  0.00    +0.000 HD
BRANCH  15  20
ATOM     17  C   UNL     1      47.419   4.485  15.853  0.00  0.00    +0.000 A 
ATOM     18  C   UNL     1      48.208   5.609  15.677  0.00  0.00    +0.000 A 
ATOM     19  N   UNL     1      48.239   6.304  14.508  0.00  0.00    +0.000 NA
ATOM     20  C   UNL     1      47.450   5.851  13.511  0.00  0.00    +0.000 A 
ATOM     21  C   UNL     1      46.657   4.711  13.713  0.00  0.00    +0.000 A 
ATOM     22  N   UNL     1      46.622   3.993  14.866  0.00  0.00    +0.000 NA
BRANCH  17  24
ATOM     23  N   UNL     1      48.445   4.099  18.010  0.00  0.00    +0.000 N 
ATOM     24  C   UNL     1      47.418   3.781  17.163  0.00  0.00    +0.000 C 
ATOM     25  O   UNL     1      46.554   2.969  17.469  0.00  0.00    +0.000 OA
ATOM     26  H   UNL     1      48.501   3.653  18.914  0.00  0.00    +0.000 HD
ATOM     27  H   UNL     1      49.147   4.772  17.725  0.00  0.00    +0.000 HD
ENDBRANCH  17  24
ENDBRANCH  15  20
ENDBRANCH   1  15
TORSDOF 5
ENDMDL
MODEL 4
REMARK VINA RESULT:    -8.455      2.702      3.840
REMARK INTER + INTRA:         -11.568
REMARK INTER:                 -11.012
REMARK INTRA:                  -0.555
REMARK UNBOUND:                -0.641
REMARK  Name = 
REMARK  5 active torsions:
REMARK  status: ('A' for Active; 'I' for Inactive)
REMARK    1  A    between atoms: C_2  and  C_4
REMARK    2  A    between atoms: C_7  and  N_8
REMARK    3  A    between atoms: N_8  and  C_9
REMARK    4  A    between atoms: C_9  and  C_10
REMARK    5  A    between atoms: C_14  and  C_15
REMARK                            x       y       z     vdW  Elec       q    Type
REMARK                         _______ _______ _______ _____ _____    ______ ____
ROOT
ATOM      1  C   UNL     1      44.025   4.822  11.337  0.00  0.00    +0.000 C 
ENDROOT
BRANCH   1   2
ATOM      2  C   UNL     1      45.255   5.476  11.910  0.00  0.00    +0.000 A 
ATOM      3  C   UNL     1      45.954   6.451  11.218  0.00  0.00    +0.000 A 
ATOM      4  N   UNL     1      47.085   7.028  11.675  0.00  0.00    +0.000 NA
ATOM      5  C   UNL     1      47.546   6.601  12.879  0.00  0.00    +0.000 A 
ATOM      6  C   UNL     1      46.939   5.633  13.682  0.00  0.00    +0.000 A 
ATOM      7  C   UNL     1      45.764   5.075  13.156  0.00  0.00    +0.000 A 
BRANCH   6   8
ATOM      8  C   UNL     1      47.496   5.217  14.988  0.00  0.00    +0.000 A 
ATOM      9  C   UNL     1      48.476   5.986  15.650  0.00  0.00    +0.000 A 
ATOM     10  C   UNL     1      49.015   5.592  16.882  0.00  0.00    +0.000 A 
ATOM     11  C   UNL     1      48.574   4.421  17.490  0.00  0.00    +0.000 A 
ATOM     12  C   UNL     1      47.605   3.657  16.858  0.00  0.00    +0.000 A 
ATOM     13  F   UNL     1      47.172   2.530  17.442  0.00  0.00    +0.000 F 
ATOM     14  C   UNL     1      47.072   4.037  15.628  0.00  0.00    +0.000 A 
ENDBRANCH   6   8
ENDBRANCH   1   2
BRANCH   1  15
ATOM     15  N   UNL     1      44.030   5.002   9.889  0.00  0.00    +0.000 N 
ATOM     16  H   UNL     1      44.282   5.948   9.623  0.00  0.00    +0.000 HD
BRANCH  15  20
ATOM     17  C   UNL     1      46.254   2.143   7.956  0.00  0.00    +0.000 A 
ATOM     18  C   UNL     1      46.372   3.479   7.614  0.00  0.00    +0.000 A 
ATOM     19  N   UNL     1      45.627   4.453   8.204  0.00  0.00    +0.000 NA
ATOM     20  C   UNL     1      44.757   4.058   9.158  0.00  0.00    +0.000 A 
ATOM     21  C   UNL     1      44.656   2.698   9.489  0.00  0.00    +0.000 A 
ATOM     22  N   UNL     1      45.379   1.708   8.903  0.00  0.00    +0.000 NA
BRANCH  17  24
ATOM     23  N   UNL     1      46.871  -0.173   7.625  0.00  0.00    +0.000 N 
ATOM     24  C   UNL     1      47.112   1.130   7.285  0.00  0.00    +0.000 C 
ATOM     25  O   UNL     1      47.980   1.438   6.477  0.00  0.00    +0.000 OA
ATOM     26  H   UNL     1      47.422  -0.907   7.206  0.00  0.00    +0.000 HD
ATOM     27  H   UNL     1      46.149  -0.396   8.301  0.00  0.00    +0.000 HD
ENDBRANCH  17  24
ENDBRANCH  15  20
ENDBRANCH   1  15
TORSDOF 5
ENDMDL
MODEL 5
REMARK VINA RESULT:    -8.389      3.679      6.862
REMARK INTER + INTRA:         -11.482
REMARK INTER:                 -10.739
REMARK INTRA:                  -0.743
REMARK UNBOUND:                -0.641
REMARK  Name = 
REMARK  5 active torsions:
REMARK  status: ('A' for Active; 'I' for Inactive)
REMARK    1  A    between atoms: C_2  and  C_4
REMARK    2  A    between atoms: C_7  and  N_8
REMARK    3  A    between atoms: N_8  and  C_9
REMARK    4  A    between atoms: C_9  and  C_10
REMARK    5  A    between atoms: C_14  and  C_15
REMARK                            x       y       z     vdW  Elec       q    Type
REMARK                         _______ _______ _______ _____ _____    ______ ____
ROOT
ATOM      1  C   UNL     1      43.651   6.592  11.200  0.00  0.00    +0.000 C 
ENDROOT
BRANCH   1   2
ATOM      2  C   UNL     1      43.746   5.121  10.894  0.00  0.00    +0.000 A 
ATOM      3  C   UNL     1      43.061   4.174  11.639  0.00  0.00    +0.000 A 
ATOM      4  N   UNL     1      43.154   2.844  11.428  0.00  0.00    +0.000 NA
ATOM      5  C   UNL     1      43.983   2.440  10.430  0.00  0.00    +0.000 A 
ATOM      6  C   UNL     1      44.726   3.284   9.602  0.00  0.00    +0.000 A 
ATOM      7  C   UNL     1      44.581   4.655   9.866  0.00  0.00    +0.000 A 
BRANCH   6   8
ATOM      8  C   UNL     1      45.608   2.774   8.529  0.00  0.00    +0.000 A 
ATOM      9  C   UNL     1      46.160   3.635   7.557  0.00  0.00    +0.000 A 
ATOM     10  C   UNL     1      46.988   3.157   6.533  0.00  0.00    +0.000 A 
ATOM     11  C   UNL     1      47.295   1.802   6.465  0.00  0.00    +0.000 A 
ATOM     12  C   UNL     1      46.768   0.942   7.417  0.00  0.00    +0.000 A 
ATOM     13  F   UNL     1      47.066  -0.364   7.359  0.00  0.00    +0.000 F 
ATOM     14  C   UNL     1      45.936   1.409   8.432  0.00  0.00    +0.000 A 
ENDBRANCH   6   8
ENDBRANCH   1   2
BRANCH   1  15
ATOM     15  N   UNL     1      44.173   6.827  12.542  0.00  0.00    +0.000 N 
ATOM     16  H   UNL     1      43.831   6.144  13.209  0.00  0.00    +0.000 HD
BRANCH  15  20
ATOM     17  C   UNL     1      48.224   7.228  13.071  0.00  0.00    +0.000 A 
ATOM     18  C   UNL     1      47.481   8.255  12.517  0.00  0.00    +0.000 A 
ATOM     19  N   UNL     1      46.144   8.149  12.290  0.00  0.00    +0.000 NA
ATOM     20  C   UNL     1      45.559   6.983  12.640  0.00  0.00    +0.000 A 
ATOM     21  C   UNL     1      46.333   5.957  13.203  0.00  0.00    +0.000 A 
ATOM     22  N   UNL     1      47.671   6.036  13.424  0.00  0.00    +0.000 NA
BRANCH  17  24
ATOM     23  N   UNL     1      50.469   7.432  12.191  0.00  0.00    +0.000 N 
ATOM     24  C   UNL     1      49.681   7.415  13.310  0.00  0.00    +0.000 C 
ATOM     25  O   UNL     1      50.149   7.549  14.434  0.00  0.00    +0.000 OA
ATOM     26  H   UNL     1      51.467   7.553  12.287  0.00  0.00    +0.000 HD
ATOM     27  H   UNL     1      50.052   7.314  11.275  0.00  0.00    +0.000 HD
ENDBRANCH  17  24
ENDBRANCH  15  20
ENDBRANCH   1  15
TORSDOF 5
ENDMDL
MODEL 6
REMARK VINA RESULT:    -7.740      1.851      2.454
REMARK INTER + INTRA:         -10.643
REMARK INTER:                  -9.971
REMARK INTRA:                  -0.672
REMARK UNBOUND:                -0.641
REMARK  Name = 
REMARK  5 active torsions:
REMARK  status: ('A' for Active; 'I' for Inactive)
REMARK    1  A    between atoms: C_2  and  C_4
REMARK    2  A    between atoms: C_7  and  N_8
REMARK    3  A    between atoms: N_8  and  C_9
REMARK    4  A    between atoms: C_9  and  C_10
REMARK    5  A    between atoms: C_14  and  C_15
REMARK                            x       y       z     vdW  Elec       q    Type
REMARK                         _______ _______ _______ _____ _____    ______ ____
ROOT
ATOM      1  C   UNL     1      44.260   3.702  11.621  0.00  0.00    +0.000 C 
ENDROOT
BRANCH   1   2
ATOM      2  C   UNL     1      44.657   5.147  11.762  0.00  0.00    +0.000 A 
ATOM      3  C   UNL     1      43.773   6.178  11.482  0.00  0.00    +0.000 A 
ATOM      4  N   UNL     1      44.102   7.485  11.551  0.00  0.00    +0.000 NA
ATOM      5  C   UNL     1      45.382   7.776  11.904  0.00  0.00    +0.000 A 
ATOM      6  C   UNL     1      46.369   6.839  12.216  0.00  0.00    +0.000 A 
ATOM      7  C   UNL     1      45.965   5.498  12.134  0.00  0.00    +0.000 A 
BRANCH   6   8
ATOM      8  C   UNL     1      47.745   7.228  12.598  0.00  0.00    +0.000 A 
ATOM      9  C   UNL     1      48.660   7.725  11.647  0.00  0.00    +0.000 A 
ATOM     10  C   UNL     1      49.967   8.086  12.000  0.00  0.00    +0.000 A 
ATOM     11  C   UNL     1      50.386   7.970  13.321  0.00  0.00    +0.000 A 
ATOM     12  C   UNL     1      49.497   7.491  14.271  0.00  0.00    +0.000 A 
ATOM     13  F   UNL     1      49.894   7.382  15.547  0.00  0.00    +0.000 F 
ATOM     14  C   UNL     1      48.199   7.121  13.925  0.00  0.00    +0.000 A 
ENDBRANCH   6   8
ENDBRANCH   1   2
BRANCH   1  15
ATOM     15  N   UNL     1      43.789   3.474  10.259  0.00  0.00    +0.000 N 
ATOM     16  H   UNL     1      43.196   4.228   9.930  0.00  0.00    +0.000 HD
BRANCH  15  20
ATOM     17  C   UNL     1      46.523   2.617   7.319  0.00  0.00    +0.000 A 
ATOM     18  C   UNL     1      46.131   1.644   8.222  0.00  0.00    +0.000 A 
ATOM     19  N   UNL     1      45.257   1.897   9.233  0.00  0.00    +0.000 NA
ATOM     20  C   UNL     1      44.773   3.154   9.318  0.00  0.00    +0.000 A 
ATOM     21  C   UNL     1      45.183   4.123   8.389  0.00  0.00    +0.000 A 
ATOM     22  N   UNL     1      46.066   3.897   7.382  0.00  0.00    +0.000 NA
BRANCH  17  24
ATOM     23  N   UNL     1      47.259   2.908   5.032  0.00  0.00    +0.000 N 
ATOM     24  C   UNL     1      47.470   2.270   6.225  0.00  0.00    +0.000 C 
ATOM     25  O   UNL     1      48.381   1.467   6.377  0.00  0.00    +0.000 OA
ATOM     26  H   UNL     1      47.866   2.714   4.250  0.00  0.00    +0.000 HD
ATOM     27  H   UNL     1      46.493   3.565   4.936  0.00  0.00    +0.000 HD
ENDBRANCH  17  24
ENDBRANCH  15  20
ENDBRANCH   1  15
TORSDOF 5
ENDMDL
MODEL 7
REMARK VINA RESULT:    -7.736      1.396      2.023
REMARK INTER + INTRA:         -10.638
REMARK INTER:                  -9.990
REMARK INTRA:                  -0.648
REMARK UNBOUND:                -0.641
REMARK  Name = 
REMARK  5 active torsions:
REMARK  status: ('A' for Active; 'I' for Inactive)
REMARK    1  A    between atoms: C_2  and  C_4
REMARK    2  A    between atoms: C_7  and  N_8
REMARK    3  A    between atoms: N_8  and  C_9
REMARK    4  A    between atoms: C_9  and  C_10
REMARK    5  A    between atoms: C_14  and  C_15
REMARK                            x       y       z     vdW  Elec       q    Type
REMARK                         _______ _______ _______ _____ _____    ______ ____
ROOT
ATOM      1  C   UNL     1      44.163   5.058  11.196  0.00  0.00    +0.000 C 
ENDROOT
BRANCH   1   2
ATOM      2  C   UNL     1      44.800   6.393  11.480  0.00  0.00    +0.000 A 
ATOM      3  C   UNL     1      44.099   7.581  11.342  0.00  0.00    +0.000 A 
ATOM      4  N   UNL     1      44.644   8.799  11.542  0.00  0.00    +0.000 NA
ATOM      5  C   UNL     1      45.959   8.832  11.884  0.00  0.00    +0.000 A 
ATOM      6  C   UNL     1      46.778   7.715  12.061  0.00  0.00    +0.000 A 
ATOM      7  C   UNL     1      46.153   6.478  11.847  0.00  0.00    +0.000 A 
BRANCH   6   8
ATOM      8  C   UNL     1      48.205   7.825  12.439  0.00  0.00    +0.000 A 
ATOM      9  C   UNL     1      48.630   7.641  13.771  0.00  0.00    +0.000 A 
ATOM     10  C   UNL     1      49.978   7.754  14.137  0.00  0.00    +0.000 A 
ATOM     11  C   UNL     1      50.937   8.042  13.172  0.00  0.00    +0.000 A 
ATOM     12  C   UNL     1      50.539   8.218  11.855  0.00  0.00    +0.000 A 
ATOM     13  F   UNL     1      51.459   8.490  10.920  0.00  0.00    +0.000 F 
ATOM     14  C   UNL     1      49.198   8.117  11.486  0.00  0.00    +0.000 A 
ENDBRANCH   6   8
ENDBRANCH   1   2
BRANCH   1  15
ATOM     15  N   UNL     1      43.905   4.956   9.764  0.00  0.00    +0.000 N 
ATOM     16  H   UNL     1      43.938   5.860   9.305  0.00  0.00    +0.000 HD
BRANCH  15  20
ATOM     17  C   UNL     1      46.213   2.086   7.950  0.00  0.00    +0.000 A 
ATOM     18  C   UNL     1      46.332   3.418   7.592  0.00  0.00    +0.000 A 
ATOM     19  N   UNL     1      45.561   4.394   8.141  0.00  0.00    +0.000 NA
ATOM     20  C   UNL     1      44.663   4.007   9.072  0.00  0.00    +0.000 A 
ATOM     21  C   UNL     1      44.562   2.652   9.421  0.00  0.00    +0.000 A 
ATOM     22  N   UNL     1      45.311   1.659   8.875  0.00  0.00    +0.000 NA
BRANCH  17  24
ATOM     23  N   UNL     1      46.817  -0.234   7.626  0.00  0.00    +0.000 N 
ATOM     24  C   UNL     1      47.100   1.070   7.323  0.00  0.00    +0.000 C 
ATOM     25  O   UNL     1      48.025   1.376   6.582  0.00  0.00    +0.000 OA
ATOM     26  H   UNL     1      47.385  -0.971   7.234  0.00  0.00    +0.000 HD
ATOM     27  H   UNL     1      46.048  -0.455   8.248  0.00  0.00    +0.000 HD
ENDBRANCH  17  24
ENDBRANCH  15  20
ENDBRANCH   1  15
TORSDOF 5
ENDMDL
MODEL 8
REMARK VINA RESULT:    -7.255      3.951      7.273
REMARK INTER + INTRA:         -10.016
REMARK INTER:                  -9.363
REMARK INTRA:                  -0.654
REMARK UNBOUND:                -0.641
REMARK  Name = 
REMARK  5 active torsions:
REMARK  status: ('A' for Active; 'I' for Inactive)
REMARK    1  A    between atoms: C_2  and  C_4
REMARK    2  A    between atoms: C_7  and  N_8
REMARK    3  A    between atoms: N_8  and  C_9
REMARK    4  A    between atoms: C_9  and  C_10
REMARK    5  A    between atoms: C_14  and  C_15
REMARK                            x       y       z     vdW  Elec       q    Type
REMARK                         _______ _______ _______ _____ _____    ______ ____
ROOT
ATOM      1  C   UNL     1      45.362   6.912  12.866  0.00  0.00    +0.000 C 
ENDROOT
BRANCH   1   2
ATOM      2  C   UNL     1      44.669   5.878  12.019  0.00  0.00    +0.000 A 
ATOM      3  C   UNL     1      43.367   5.478  12.274  0.00  0.00    +0.000 A 
ATOM      4  N   UNL     1      42.726   4.522  11.569  0.00  0.00    +0.000 NA
ATOM      5  C   UNL     1      43.426   3.928  10.567  0.00  0.00    +0.000 A 
ATOM      6  C   UNL     1      44.737   4.238  10.201  0.00  0.00    +0.000 A 
ATOM      7  C   UNL     1      45.348   5.243  10.966  0.00  0.00    +0.000 A 
BRANCH   6   8
ATOM      8  C   UNL     1      45.439   3.551   9.094  0.00  0.00    +0.000 A 
ATOM      9  C   UNL     1      46.028   4.273   8.035  0.00  0.00    +0.000 A 
ATOM     10  C   UNL     1      46.685   3.628   6.978  0.00  0.00    +0.000 A 
ATOM     11  C   UNL     1      46.779   2.241   6.964  0.00  0.00    +0.000 A 
ATOM     12  C   UNL     1      46.213   1.515   8.001  0.00  0.00    +0.000 A 
ATOM     13  F   UNL     1      46.306   0.177   7.994  0.00  0.00    +0.000 F 
ATOM     14  C   UNL     1      45.550   2.149   9.049  0.00  0.00    +0.000 A 
ENDBRANCH   6   8
ENDBRANCH   1   2
BRANCH   1  15
ATOM     15  N   UNL     1      46.455   6.272  13.590  0.00  0.00    +0.000 N 
ATOM     16  H   UNL     1      46.542   5.289  13.356  0.00  0.00    +0.000 HD
BRANCH  15  20
ATOM     17  C   UNL     1      50.126   8.065  13.187  0.00  0.00    +0.000 A 
ATOM     18  C   UNL     1      49.820   7.331  14.319  0.00  0.00    +0.000 A 
ATOM     19  N   UNL     1      48.604   6.753  14.509  0.00  0.00    +0.000 NA
ATOM     20  C   UNL     1      47.693   6.920  13.527  0.00  0.00    +0.000 A 
ATOM     21  C   UNL     1      48.026   7.666  12.386  0.00  0.00    +0.000 A 
ATOM     22  N   UNL     1      49.229   8.265  12.183  0.00  0.00    +0.000 NA
BRANCH  17  24
ATOM     23  N   UNL     1      52.369   7.927  12.288  0.00  0.00    +0.000 N 
ATOM     24  C   UNL     1      51.483   8.657  13.033  0.00  0.00    +0.000 C 
ATOM     25  O   UNL     1      51.791   9.729  13.538  0.00  0.00    +0.000 OA
ATOM     26  H   UNL     1      53.306   8.274  12.149  0.00  0.00    +0.000 HD
ATOM     27  H   UNL     1      52.085   7.040  11.887  0.00  0.00    +0.000 HD
ENDBRANCH  17  24
ENDBRANCH  15  20
ENDBRANCH   1  15
TORSDOF 5
ENDMDL
MODEL 9
REMARK VINA RESULT:    -6.683      4.364      7.610
REMARK INTER + INTRA:          -9.277
REMARK INTER:                  -8.718
REMARK INTRA:                  -0.559
REMARK UNBOUND:                -0.641
REMARK  Name = 
REMARK  5 active torsions:
REMARK  status: ('A' for Active; 'I' for Inactive)
REMARK    1  A    between atoms: C_2  and  C_4
REMARK    2  A    between atoms: C_7  and  N_8
REMARK    3  A    between atoms: N_8  and  C_9
REMARK    4  A    between atoms: C_9  and  C_10
REMARK    5  A    between atoms: C_14  and  C_15
REMARK                            x       y       z     vdW  Elec       q    Type
REMARK                         _______ _______ _______ _____ _____    ______ ____
ROOT
ATOM      1  C   UNL     1      48.730   7.433  13.205  0.00  0.00    +0.000 C 
ENDROOT
BRANCH   1   2
ATOM      2  C   UNL     1      47.372   7.361  12.559  0.00  0.00    +0.000 A 
ATOM      3  C   UNL     1      46.422   8.353  12.741  0.00  0.00    +0.000 A 
ATOM      4  N   UNL     1      45.179   8.305  12.218  0.00  0.00    +0.000 NA
ATOM      5  C   UNL     1      44.866   7.204  11.486  0.00  0.00    +0.000 A 
ATOM      6  C   UNL     1      45.726   6.136  11.220  0.00  0.00    +0.000 A 
ATOM      7  C   UNL     1      47.005   6.248  11.785  0.00  0.00    +0.000 A 
BRANCH   6   8
ATOM      8  C   UNL     1      45.318   4.967  10.410  0.00  0.00    +0.000 A 
ATOM      9  C   UNL     1      44.562   3.914  10.964  0.00  0.00    +0.000 A 
ATOM     10  C   UNL     1      44.181   2.799  10.205  0.00  0.00    +0.000 A 
ATOM     11  C   UNL     1      44.539   2.719   8.864  0.00  0.00    +0.000 A 
ATOM     12  C   UNL     1      45.275   3.749   8.299  0.00  0.00    +0.000 A 
ATOM     13  F   UNL     1      45.618   3.680   7.005  0.00  0.00    +0.000 F 
ATOM     14  C   UNL     1      45.665   4.856   9.051  0.00  0.00    +0.000 A 
ENDBRANCH   6   8
ENDBRANCH   1   2
BRANCH   1  15
ATOM     15  N   UNL     1      48.559   7.714  14.626  0.00  0.00    +0.000 N 
ATOM     16  H   UNL     1      47.725   8.261  14.809  0.00  0.00    +0.000 HD
BRANCH  15  20
ATOM     17  C   UNL     1      49.030   4.445  17.065  0.00  0.00    +0.000 A 
ATOM     18  C   UNL     1      47.989   4.501  16.154  0.00  0.00    +0.000 A 
ATOM     19  N   UNL     1      47.776   5.581  15.355  0.00  0.00    +0.000 NA
ATOM     20  C   UNL     1      48.640   6.610  15.482  0.00  0.00    +0.000 A 
ATOM     21  C   UNL     1      49.689   6.530  16.410  0.00  0.00    +0.000 A 
ATOM     22  N   UNL     1      49.911   5.468  17.229  0.00  0.00    +0.000 NA
BRANCH  17  24
ATOM     23  N   UNL     1      48.384   3.108  18.976  0.00  0.00    +0.000 N 
ATOM     24  C   UNL     1      49.218   3.226  17.897  0.00  0.00    +0.000 C 
ATOM     25  O   UNL     1      50.064   2.379  17.637  0.00  0.00    +0.000 OA
ATOM     26  H   UNL     1      48.463   2.304  19.581  0.00  0.00    +0.000 HD
ATOM     27  H   UNL     1      47.697   3.828  19.167  0.00  0.00    +0.000 HD
ENDBRANCH  17  24
ENDBRANCH  15  20
ENDBRANCH   1  15
TORSDOF 5
ENDMDL
