MODEL 1
REMARK VINA RESULT:    -7.092      0.000      0.000
REMARK INTER + INTRA:          -9.139
REMARK INTER:                  -8.336
REMARK INTRA:                  -0.803
REMARK UNBOUND:                -0.803
REMARK  Name = 
REMARK  6 active torsions:
REMARK  status: ('A' for Active; 'I' for Inactive)
REMARK    1  A    between atoms: C_1  and  C_2
REMARK    2  A    between atoms: C_2  and  C_3
REMARK    3  A    between atoms: C_2  and  C_4
REMARK    4  A    between atoms: C_2  and  C_5
REMARK    5  A    between atoms: C_8  and  C_9
REMARK    6  A    between atoms: C_9  and  N_10
REMARK                            x       y       z     vdW  Elec       q    Type
REMARK                         _______ _______ _______ _____ _____    ______ ____
ROOT
ATOM      1  C   UNL     1      46.098   2.745   7.879  0.00  0.00    +0.000 A 
ATOM      2  C   UNL     1      45.338   2.001   8.795  0.00  0.00    +0.000 A 
ATOM      3  C   UNL     1      44.595   2.621   9.806  0.00  0.00    +0.000 A 
ATOM      4  C   UNL     1      44.584   4.013   9.938  0.00  0.00    +0.000 A 
ATOM      5  C   UNL     1      45.308   4.770   9.010  0.00  0.00    +0.000 A 
ATOM      6  C   UNL     1      46.048   4.146   7.999  0.00  0.00    +0.000 A 
ENDROOT
BRANCH   1   8
ATOM      7  C   UNL     1      48.435   2.569   6.797  0.00  0.00    +0.000 C 
ATOM      8  C   UNL     1      46.968   2.082   6.796  0.00  0.00    +0.000 C 
ATOM      9  C   UNL     1      46.391   2.396   5.397  0.00  0.00    +0.000 C 
ATOM     10  C   UNL     1      46.989   0.554   7.005  0.00  0.00    +0.000 C 
ENDBRANCH   1   8
BRANCH   4  11
ATOM     11  C   UNL     1      43.819   4.679  11.051  0.00  0.00    +0.000 C 
BRANCH  11  12
ATOM     12  N   UNL     1      44.691   5.372  11.998  0.00  0.00    +0.000 N 
ATOM     13  C   UNL     1      45.518   4.732  12.893  0.00  0.00    +0.000 A 
ATOM     14  C   UNL     1      46.296   5.683  13.514  0.00  0.00    +0.000 A 
ATOM     15  C   UNL     1      45.943   6.951  12.975  0.00  0.00    +0.000 A 
ATOM     16  C   UNL     1      46.399   8.258  13.191  0.00  0.00    +0.000 A 
ATOM     17  N   UNL     1      45.868   9.298  12.504  0.00  0.00    +0.000 NA
ATOM     18  C   UNL     1      44.882   9.052  11.617  0.00  0.00    +0.000 A 
ATOM     19  C   UNL     1      44.357   7.801  11.335  0.00  0.00    +0.000 A 
ATOM     20  C   UNL     1      44.926   6.734  12.040  0.00  0.00    +0.000 A 
ENDBRANCH  11  12
ENDBRANCH   4  11
TORSDOF 3
ENDMDL
MODEL 2
REMARK VINA RESULT:    -6.965      1.171      2.515
REMARK INTER + INTRA:          -8.990
REMARK INTER:                  -8.171
REMARK INTRA:                  -0.819
REMARK UNBOUND:                -0.803
REMARK  Name = 
REMARK  6 active torsions:
REMARK  status: ('A' for Active; 'I' for Inactive)
REMARK    1  A    between atoms: C_1  and  C_2
REMARK    2  A    between atoms: C_2  and  C_3
REMARK    3  A    between atoms: C_2  and  C_4
REMARK    4  A    between atoms: C_2  and  C_5
REMARK    5  A    between atoms: C_8  and  C_9
REMARK    6  A    between atoms: C_9  and  N_10
REMARK                            x       y       z     vdW  Elec       q    Type
REMARK                         _______ _______ _______ _____ _____    ______ ____
ROOT
ATOM      1  C   UNL     1      46.134   2.772   7.842  0.00  0.00    +0.000 A 
ATOM      2  C   UNL     1      45.278   2.164   8.773  0.00  0.00    +0.000 A 
ATOM      3  C   UNL     1      44.612   2.910   9.753  0.00  0.00    +0.000 A 
ATOM      4  C   UNL     1      44.778   4.296   9.836  0.00  0.00    +0.000 A 
ATOM      5  C   UNL     1      45.601   4.920   8.893  0.00  0.00    +0.000 A 
ATOM      6  C   UNL     1      46.264   4.171   7.913  0.00  0.00    +0.000 A 
ENDROOT
BRANCH   1   8
ATOM      7  C   UNL     1      46.354   2.093   5.362  0.00  0.00    +0.000 C 
ATOM      8  C   UNL     1      46.921   1.966   6.794  0.00  0.00    +0.000 C 
ATOM      9  C   UNL     1      46.893   0.465   7.157  0.00  0.00    +0.000 C 
ATOM     10  C   UNL     1      48.386   2.450   6.754  0.00  0.00    +0.000 C 
ENDBRANCH   1   8
BRANCH   4  11
ATOM     11  C   UNL     1      44.095   5.093  10.917  0.00  0.00    +0.000 C 
BRANCH  11  12
ATOM     12  N   UNL     1      45.033   5.890  11.707  0.00  0.00    +0.000 N 
ATOM     13  C   UNL     1      45.065   7.266  11.704  0.00  0.00    +0.000 A 
ATOM     14  C   UNL     1      45.960   7.677  12.665  0.00  0.00    +0.000 A 
ATOM     15  C   UNL     1      46.488   6.513  13.289  0.00  0.00    +0.000 A 
ATOM     16  C   UNL     1      47.401   6.301  14.332  0.00  0.00    +0.000 A 
ATOM     17  N   UNL     1      47.714   5.045  14.732  0.00  0.00    +0.000 NA
ATOM     18  C   UNL     1      47.140   4.001  14.098  0.00  0.00    +0.000 A 
ATOM     19  C   UNL     1      46.233   4.103  13.054  0.00  0.00    +0.000 A 
ATOM     20  C   UNL     1      45.906   5.406  12.663  0.00  0.00    +0.000 A 
ENDBRANCH  11  12
ENDBRANCH   4  11
TORSDOF 3
ENDMDL
MODEL 3
REMARK VINA RESULT:    -6.211      2.112      6.817
REMARK INTER + INTRA:          -8.104
REMARK INTER:                  -7.483
REMARK INTRA:                  -0.620
REMARK UNBOUND:                -0.803
REMARK  Name = 
REMARK  6 active torsions:
REMARK  status: ('A' for Active; 'I' for Inactive)
REMARK    1  A    between atoms: C_1  and  C_2
REMARK    2  A    between atoms: C_2  and  C_3
REMARK    3  A    between atoms: C_2  and  C_4
REMARK    4  A    between atoms: C_2  and  C_5
REMARK    5  A    between atoms: C_8  and  C_9
REMARK    6  A    between atoms: C_9  and  N_10
REMARK                            x       y       z     vdW  Elec       q    Type
REMARK                         _______ _______ _______ _____ _____    ______ ____
ROOT
ATOM      1  C   UNL     1      47.743   7.459  13.898  0.00  0.00    +0.000 A 
ATOM      2  C   UNL     1      47.496   6.132  13.515  0.00  0.00    +0.000 A 
ATOM      3  C   UNL     1      46.380   5.787  12.743  0.00  0.00    +0.000 A 
ATOM      4  C   UNL     1      45.469   6.761  12.324  0.00  0.00    +0.000 A 
ATOM      5  C   UNL     1      45.722   8.094  12.668  0.00  0.00    +0.000 A 
ATOM      6  C   UNL     1      46.840   8.435  13.439  0.00  0.00    +0.000 A 
ENDROOT
BRANCH   1   8
ATOM      7  C   UNL     1      49.345   6.750  15.794  0.00  0.00    +0.000 C 
ATOM      8  C   UNL     1      48.931   7.854  14.795  0.00  0.00    +0.000 C 
ATOM      9  C   UNL     1      48.566   9.101  15.629  0.00  0.00    +0.000 C 
ATOM     10  C   UNL     1      50.163   8.171  13.921  0.00  0.00    +0.000 C 
ENDBRANCH   1   8
BRANCH   4  11
ATOM     11  C   UNL     1      44.246   6.385  11.529  0.00  0.00    +0.000 C 
BRANCH  11  12
ATOM     12  N   UNL     1      44.174   4.952  11.251  0.00  0.00    +0.000 N 
ATOM     13  C   UNL     1      43.432   4.061  11.992  0.00  0.00    +0.000 A 
ATOM     14  C   UNL     1      43.476   2.838  11.363  0.00  0.00    +0.000 A 
ATOM     15  C   UNL     1      44.264   2.983  10.188  0.00  0.00    +0.000 A 
ATOM     16  C   UNL     1      44.636   2.112   9.155  0.00  0.00    +0.000 A 
ATOM     17  N   UNL     1      45.406   2.547   8.129  0.00  0.00    +0.000 NA
ATOM     18  C   UNL     1      45.819   3.831   8.127  0.00  0.00    +0.000 A 
ATOM     19  C   UNL     1      45.513   4.768   9.101  0.00  0.00    +0.000 A 
ATOM     20  C   UNL     1      44.703   4.311  10.146  0.00  0.00    +0.000 A 
ENDBRANCH  11  12
ENDBRANCH   4  11
TORSDOF 3
ENDMDL
MODEL 4
REMARK VINA RESULT:    -6.192      2.215      6.291
REMARK INTER + INTRA:          -8.081
REMARK INTER:                  -7.440
REMARK INTRA:                  -0.641
REMARK UNBOUND:                -0.803
REMARK  Name = 
REMARK  6 active torsions:
REMARK  status: ('A' for Active; 'I' for Inactive)
REMARK    1  A    between atoms: C_1  and  C_2
REMARK    2  A    between atoms: C_2  and  C_3
REMARK    3  A    between atoms: C_2  and  C_4
REMARK    4  A    between atoms: C_2  and  C_5
REMARK    5  A    between atoms: C_8  and  C_9
REMARK    6  A    between atoms: C_9  and  N_10
REMARK                            x       y       z     vdW  Elec       q    Type
REMARK                         _______ _______ _______ _____ _____    ______ ____
ROOT
ATOM      1  C   UNL     1      48.013   7.717  12.585  0.00  0.00    +0.000 A 
ATOM      2  C   UNL     1      46.941   8.478  12.095  0.00  0.00    +0.000 A 
ATOM      3  C   UNL     1      45.651   7.944  11.988  0.00  0.00    +0.000 A 
ATOM      4  C   UNL     1      45.387   6.625  12.370  0.00  0.00    +0.000 A 
ATOM      5  C   UNL     1      46.439   5.865  12.894  0.00  0.00    +0.000 A 
ATOM      6  C   UNL     1      47.727   6.403  13.001  0.00  0.00    +0.000 A 
ENDROOT
BRANCH   1   8
ATOM      7  C   UNL     1      49.526   9.807  12.651  0.00  0.00    +0.000 C 
ATOM      8  C   UNL     1      49.450   8.264  12.658  0.00  0.00    +0.000 C 
ATOM      9  C   UNL     1      50.262   7.768  11.440  0.00  0.00    +0.000 C 
ATOM     10  C   UNL     1      50.131   7.774  13.953  0.00  0.00    +0.000 C 
ENDBRANCH   1   8
BRANCH   4  11
ATOM     11  C   UNL     1      44.009   6.037  12.215  0.00  0.00    +0.000 C 
BRANCH  11  12
ATOM     12  N   UNL     1      44.036   4.658  11.729  0.00  0.00    +0.000 N 
ATOM     13  C   UNL     1      43.418   3.606  12.365  0.00  0.00    +0.000 A 
ATOM     14  C   UNL     1      43.522   2.496  11.558  0.00  0.00    +0.000 A 
ATOM     15  C   UNL     1      44.218   2.881  10.379  0.00  0.00    +0.000 A 
ATOM     16  C   UNL     1      44.593   2.206   9.210  0.00  0.00    +0.000 A 
ATOM     17  N   UNL     1      45.258   2.853   8.222  0.00  0.00    +0.000 NA
ATOM     18  C   UNL     1      45.564   4.156   8.392  0.00  0.00    +0.000 A 
ATOM     19  C   UNL     1      45.246   4.910   9.510  0.00  0.00    +0.000 A 
ATOM     20  C   UNL     1      44.544   4.235  10.515  0.00  0.00    +0.000 A 
ENDBRANCH  11  12
ENDBRANCH   4  11
TORSDOF 3
ENDMDL
MODEL 5
REMARK VINA RESULT:    -5.491      3.305      5.877
REMARK INTER + INTRA:          -7.257
REMARK INTER:                  -6.458
REMARK INTRA:                  -0.799
REMARK UNBOUND:                -0.803
REMARK  Name = 
REMARK  6 active torsions:
REMARK  status: ('A' for Active; 'I' for Inactive)
REMARK    1  A    between atoms: C_1  and  C_2
REMARK    2  A    between atoms: C_2  and  C_3
REMARK    3  A    between atoms: C_2  and  C_4
REMARK    4  A    between atoms: C_2  and  C_5
REMARK    5  A    between atoms: C_8  and  C_9
REMARK    6  A    between atoms: C_9  and  N_10
REMARK                            x       y       z     vdW  Elec       q    Type
REMARK                         _______ _______ _______ _____ _____    ______ ____
ROOT
ATOM      1  C   UNL     1      45.139   5.141  11.994  0.00  0.00    +0.000 A 
ATOM      2  C   UNL     1      45.751   4.676  13.169  0.00  0.00    +0.000 A 
ATOM      3  C   UNL     1      46.953   5.221  13.634  0.00  0.00    +0.000 A 
ATOM      4  C   UNL     1      47.589   6.255  12.940  0.00  0.00    +0.000 A 
ATOM      5  C   UNL     1      46.973   6.752  11.786  0.00  0.00    +0.000 A 
ATOM      6  C   UNL     1      45.769   6.206  11.325  0.00  0.00    +0.000 A 
ENDROOT
BRANCH   1   8
ATOM      7  C   UNL     1      43.488   3.158  12.071  0.00  0.00    +0.000 C 
ATOM      8  C   UNL     1      43.848   4.519  11.432  0.00  0.00    +0.000 C 
ATOM      9  C   UNL     1      44.002   4.276   9.914  0.00  0.00    +0.000 C 
ATOM     10  C   UNL     1      42.660   5.472  11.676  0.00  0.00    +0.000 C 
ENDBRANCH   1   8
BRANCH   4  11
ATOM     11  C   UNL     1      48.904   6.812  13.417  0.00  0.00    +0.000 C 
BRANCH  11  12
ATOM     12  N   UNL     1      48.766   7.627  14.624  0.00  0.00    +0.000 N 
ATOM     13  C   UNL     1      48.300   8.921  14.628  0.00  0.00    +0.000 A 
ATOM     14  C   UNL     1      48.162   9.323  15.937  0.00  0.00    +0.000 A 
ATOM     15  C   UNL     1      48.547   8.234  16.767  0.00  0.00    +0.000 A 
ATOM     16  C   UNL     1      48.592   8.040  18.154  0.00  0.00    +0.000 A 
ATOM     17  N   UNL     1      49.003   6.858  18.674  0.00  0.00    +0.000 NA
ATOM     18  C   UNL     1      49.380   5.875  17.830  0.00  0.00    +0.000 A 
ATOM     19  C   UNL     1      49.379   5.968  16.447  0.00  0.00    +0.000 A 
ATOM     20  C   UNL     1      48.936   7.188  15.924  0.00  0.00    +0.000 A 
ENDBRANCH  11  12
ENDBRANCH   4  11
TORSDOF 3
ENDMDL
MODEL 6
REMARK VINA RESULT:    -5.419      3.542      7.852
REMARK INTER + INTRA:          -7.172
REMARK INTER:                  -6.491
REMARK INTRA:                  -0.681
REMARK UNBOUND:                -0.803
REMARK  Name = 
REMARK  6 active torsions:
REMARK  status: ('A' for Active; 'I' for Inactive)
REMARK    1  A    between atoms: C_1  and  C_2
REMARK    2  A    between atoms: C_2  and  C_3
REMARK    3  A    between atoms: C_2  and  C_4
REMARK    4  A    between atoms: C_2  and  C_5
REMARK    5  A    between atoms: C_8  and  C_9
REMARK    6  A    between atoms: C_9  and  N_10
REMARK                            x       y       z     vdW  Elec       q    Type
REMARK                         _______ _______ _______ _____ _____    ______ ____
ROOT
ATOM      1  C   UNL     1      48.269   5.505  17.067  0.00  0.00    +0.000 A 
ATOM      2  C   UNL     1      47.509   4.552  16.370  0.00  0.00    +0.000 A 
ATOM      3  C   UNL     1      47.293   4.654  14.990  0.00  0.00    +0.000 A 
ATOM      4  C   UNL     1      47.833   5.713  14.255  0.00  0.00    +0.000 A 
ATOM      5  C   UNL     1      48.622   6.651  14.930  0.00  0.00    +0.000 A 
ATOM      6  C   UNL     1      48.838   6.546  16.309  0.00  0.00    +0.000 A 
ENDROOT
BRANCH   1   8
ATOM      7  C   UNL     1      48.671   4.014  19.135  0.00  0.00    +0.000 C 
ATOM      8  C   UNL     1      48.472   5.447  18.591  0.00  0.00    +0.000 C 
ATOM      9  C   UNL     1      47.233   6.031  19.307  0.00  0.00    +0.000 C 
ATOM     10  C   UNL     1      49.718   6.267  18.984  0.00  0.00    +0.000 C 
ENDBRANCH   1   8
BRANCH   4  11
ATOM     11  C   UNL     1      47.565   5.845  12.779  0.00  0.00    +0.000 C 
BRANCH  11  12
ATOM     12  N   UNL     1      46.155   6.091  12.481  0.00  0.00    +0.000 N 
ATOM     13  C   UNL     1      45.610   7.345  12.322  0.00  0.00    +0.000 A 
ATOM     14  C   UNL     1      44.306   7.197  11.907  0.00  0.00    +0.000 A 
ATOM     15  C   UNL     1      44.043   5.803  11.796  0.00  0.00    +0.000 A 
ATOM     16  C   UNL     1      42.926   5.055  11.401  0.00  0.00    +0.000 A 
ATOM     17  N   UNL     1      42.971   3.701  11.383  0.00  0.00    +0.000 NA
ATOM     18  C   UNL     1      44.110   3.086  11.765  0.00  0.00    +0.000 A 
ATOM     19  C   UNL     1      45.265   3.732  12.178  0.00  0.00    +0.000 A 
ATOM     20  C   UNL     1      45.209   5.130  12.175  0.00  0.00    +0.000 A 
ENDBRANCH  11  12
ENDBRANCH   4  11
TORSDOF 3
ENDMDL
MODEL 7
REMARK VINA RESULT:    -5.019      3.575      6.678
REMARK INTER + INTRA:          -6.703
REMARK INTER:                  -6.074
REMARK INTRA:                  -0.628
REMARK UNBOUND:                -0.803
REMARK  Name = 
REMARK  6 active torsions:
REMARK  status: ('A' for Active; 'I' for Inactive)
REMARK    1  A    between atoms: C_1  and  C_2
REMARK    2  A    between atoms: C_2  and  C_3
REMARK    3  A    between atoms: C_2  and  C_4
REMARK    4  A    between atoms: C_2  and  C_5
REMARK    5  A    between atoms: C_8  and  C_9
REMARK    6  A    between atoms: C_9  and  N_10
REMARK                            x       y       z     vdW  Elec       q    Type
REMARK                         _______ _______ _______ _____ _____    ______ ____
ROOT
ATOM      1  C   UNL     1      50.361   8.667  12.233  0.00  0.00    +0.000 A 
ATOM      2  C   UNL     1      49.685   7.777  11.384  0.00  0.00    +0.000 A 
ATOM      3  C   UNL     1      48.354   7.410  11.618  0.00  0.00    +0.000 A 
ATOM      4  C   UNL     1      47.649   7.922  12.711  0.00  0.00    +0.000 A 
ATOM      5  C   UNL     1      48.300   8.838  13.545  0.00  0.00    +0.000 A 
ATOM      6  C   UNL     1      49.629   9.205  13.307  0.00  0.00    +0.000 A 
ENDROOT
BRANCH   1   8
ATOM      7  C   UNL     1      52.066  10.541  11.740  0.00  0.00    +0.000 C 
ATOM      8  C   UNL     1      51.841   9.040  12.030  0.00  0.00    +0.000 C 
ATOM      9  C   UNL     1      52.418   8.259  10.828  0.00  0.00    +0.000 C 
ATOM     10  C   UNL     1      52.647   8.688  13.297  0.00  0.00    +0.000 C 
ENDBRANCH   1   8
BRANCH   4  11
ATOM     11  C   UNL     1      46.231   7.495  12.986  0.00  0.00    +0.000 C 
BRANCH  11  12
ATOM     12  N   UNL     1      46.059   6.044  12.930  0.00  0.00    +0.000 N 
ATOM     13  C   UNL     1      46.754   5.156  13.719  0.00  0.00    +0.000 A 
ATOM     14  C   UNL     1      46.236   3.899  13.509  0.00  0.00    +0.000 A 
ATOM     15  C   UNL     1      45.179   4.018  12.566  0.00  0.00    +0.000 A 
ATOM     16  C   UNL     1      44.282   3.106  11.993  0.00  0.00    +0.000 A 
ATOM     17  N   UNL     1      43.345   3.522  11.106  0.00  0.00    +0.000 NA
ATOM     18  C   UNL     1      43.302   4.829  10.775  0.00  0.00    +0.000 A 
ATOM     19  C   UNL     1      44.145   5.807  11.278  0.00  0.00    +0.000 A 
ATOM     20  C   UNL     1      45.096   5.367  12.205  0.00  0.00    +0.000 A 
ENDBRANCH  11  12
ENDBRANCH   4  11
TORSDOF 3
ENDMDL
MODEL 8
REMARK VINA RESULT:    -4.980      3.929      6.840
REMARK INTER + INTRA:          -6.657
REMARK INTER:                  -5.955
REMARK INTRA:                  -0.702
REMARK UNBOUND:                -0.803
REMARK  Name = 
REMARK  6 active torsions:
REMARK  status: ('A' for Active; 'I' for Inactive)
REMARK    1  A    between atoms: C_1  and  C_2
REMARK    2  A    between atoms: C_2  and  C_3
REMARK    3  A    between atoms: C_2  and  C_4
REMARK    4  A    between atoms: C_2  and  C_5
REMARK    5  A    between atoms: C_8  and  C_9
REMARK    6  A    between atoms: C_9  and  N_10
REMARK                            x       y       z     vdW  Elec       q    Type
REMARK                         _______ _______ _______ _____ _____    ______ ____
ROOT
ATOM      1  C   UNL     1      51.213   8.217  11.862  0.00  0.00    +0.000 A 
ATOM      2  C   UNL     1      50.980   8.458  13.225  0.00  0.00    +0.000 A 
ATOM      3  C   UNL     1      49.686   8.459  13.759  0.00  0.00    +0.000 A 
ATOM      4  C   UNL     1      48.575   8.215  12.946  0.00  0.00    +0.000 A 
ATOM      5  C   UNL     1      48.794   7.938  11.593  0.00  0.00    +0.000 A 
ATOM      6  C   UNL     1      50.090   7.936  11.063  0.00  0.00    +0.000 A 
ENDROOT
BRANCH   1   8
ATOM      7  C   UNL     1      52.919   7.093  10.284  0.00  0.00    +0.000 C 
ATOM      8  C   UNL     1      52.621   8.269  11.242  0.00  0.00    +0.000 C 
ATOM      9  C   UNL     1      53.687   8.221  12.359  0.00  0.00    +0.000 C 
ATOM     10  C   UNL     1      52.789   9.575  10.436  0.00  0.00    +0.000 C 
ENDBRANCH   1   8
BRANCH   4  11
ATOM     11  C   UNL     1      47.179   8.257  13.512  0.00  0.00    +0.000 C 
BRANCH  11  12
ATOM     12  N   UNL     1      46.291   7.272  12.896  0.00  0.00    +0.000 N 
ATOM     13  C   UNL     1      45.390   7.567  11.898  0.00  0.00    +0.000 A 
ATOM     14  C   UNL     1      44.837   6.386  11.457  0.00  0.00    +0.000 A 
ATOM     15  C   UNL     1      45.427   5.327  12.201  0.00  0.00    +0.000 A 
ATOM     16  C   UNL     1      45.287   3.933  12.181  0.00  0.00    +0.000 A 
ATOM     17  N   UNL     1      46.009   3.154  13.023  0.00  0.00    +0.000 NA
ATOM     18  C   UNL     1      46.856   3.748  13.889  0.00  0.00    +0.000 A 
ATOM     19  C   UNL     1      47.062   5.114  13.992  0.00  0.00    +0.000 A 
ATOM     20  C   UNL     1      46.322   5.906  13.106  0.00  0.00    +0.000 A 
ENDBRANCH  11  12
ENDBRANCH   4  11
TORSDOF 3
ENDMDL
MODEL 9
REMARK VINA RESULT:    -4.849      3.189      6.999
REMARK INTER + INTRA:          -6.503
REMARK INTER:                  -6.014
REMARK INTRA:                  -0.489
REMARK UNBOUND:                -0.803
REMARK  Name = 
REMARK  6 active torsions:
REMARK  status: ('A' for Active; 'I' for Inactive)
REMARK    1  A    between atoms: C_1  and  C_2
REMARK    2  A    between atoms: C_2  and  C_3
REMARK    3  A    between atoms: C_2  and  C_4
REMARK    4  A    between atoms: C_2  and  C_5
REMARK    5  A    between atoms: C_8  and  C_9
REMARK    6  A    between atoms: C_9  and  N_10
REMARK                            x       y       z     vdW  Elec       q    Type
REMARK                         _______ _______ _______ _____ _____    ______ ____
ROOT
ATOM      1  C   UNL     1      50.273   8.018  13.359  0.00  0.00    +0.000 A 
ATOM      2  C   UNL     1      49.842   7.693  14.655  0.00  0.00    +0.000 A 
ATOM      3  C   UNL     1      48.737   6.862  14.873  0.00  0.00    +0.000 A 
ATOM      4  C   UNL     1      48.022   6.323  13.800  0.00  0.00    +0.000 A 
ATOM      5  C   UNL     1      48.461   6.609  12.502  0.00  0.00    +0.000 A 
ATOM      6  C   UNL     1      49.567   7.439  12.288  0.00  0.00    +0.000 A 
ENDROOT
BRANCH   1   8
ATOM      7  C   UNL     1      52.765   8.542  13.776  0.00  0.00    +0.000 C 
ATOM      8  C   UNL     1      51.448   8.976  13.094  0.00  0.00    +0.000 C 
ATOM      9  C   UNL     1      51.107  10.385  13.630  0.00  0.00    +0.000 C 
ATOM     10  C   UNL     1      51.721   9.062  11.578  0.00  0.00    +0.000 C 
ENDBRANCH   1   8
BRANCH   4  11
ATOM     11  C   UNL     1      46.807   5.463  14.034  0.00  0.00    +0.000 C 
BRANCH  11  12
ATOM     12  N   UNL     1      45.737   5.726  13.074  0.00  0.00    +0.000 N 
ATOM     13  C   UNL     1      45.274   6.984  12.763  0.00  0.00    +0.000 A 
ATOM     14  C   UNL     1      44.379   6.868  11.724  0.00  0.00    +0.000 A 
ATOM     15  C   UNL     1      44.297   5.492  11.375  0.00  0.00    +0.000 A 
ATOM     16  C   UNL     1      43.588   4.779  10.399  0.00  0.00    +0.000 A 
ATOM     17  N   UNL     1      43.720   3.435  10.292  0.00  0.00    +0.000 NA
ATOM     18  C   UNL     1      44.537   2.794  11.152  0.00  0.00    +0.000 A 
ATOM     19  C   UNL     1      45.275   3.403  12.155  0.00  0.00    +0.000 A 
ATOM     20  C   UNL     1      45.143   4.794  12.243  0.00  0.00    +0.000 A 
ENDBRANCH  11  12
ENDBRANCH   4  11
TORSDOF 3
ENDMDL
