MODEL 1
REMARK VINA RESULT:    -7.451      0.000      0.000
REMARK INTER + INTRA:          -9.196
REMARK INTER:                  -8.758
REMARK INTRA:                  -0.438
REMARK UNBOUND:                -0.438
REMARK  Name = 
REMARK  5 active torsions:
REMARK  status: ('A' for Active; 'I' for Inactive)
REMARK    1  A    between atoms: C_1  and  O_2
REMARK    2  A    between atoms: O_2  and  C_3
REMARK    3  A    between atoms: C_7  and  C_8
REMARK    4  A    between atoms: C_8  and  N_9
REMARK    5  A    between atoms: C_15  and  C_16
REMARK                            x       y       z     vdW  Elec       q    Type
REMARK                         _______ _______ _______ _____ _____    ______ ____
ROOT
ATOM      1  C   UNL     1      43.905   4.764   9.708  0.00  0.00    +0.000 C 
ENDROOT
BRANCH   1   2
ATOM      2  N   UNL     1      44.221   4.728  11.131  0.00  0.00    +0.000 N 
ATOM      3  C   UNL     1      43.598   3.897  12.032  0.00  0.00    +0.000 A 
ATOM      4  C   UNL     1      44.298   3.949  13.216  0.00  0.00    +0.000 A 
ATOM      5  C   UNL     1      45.389   4.842  13.036  0.00  0.00    +0.000 A 
ATOM      6  C   UNL     1      46.445   5.263  13.853  0.00  0.00    +0.000 A 
ATOM      7  N   UNL     1      47.379   6.126  13.389  0.00  0.00    +0.000 NA
ATOM      8  C   UNL     1      47.277   6.601  12.125  0.00  0.00    +0.000 A 
ATOM      9  C   UNL     1      48.367   7.524  11.663  0.00  0.00    +0.000 C 
ATOM     10  C   UNL     1      46.251   6.253  11.248  0.00  0.00    +0.000 A 
ATOM     11  C   UNL     1      45.308   5.338  11.732  0.00  0.00    +0.000 A 
ENDBRANCH   1   2
BRANCH   1  16
ATOM     12  C   UNL     1      45.951   1.996   8.237  0.00  0.00    +0.000 A 
ATOM     13  N   UNL     1      46.831   2.667   7.463  0.00  0.00    +0.000 NA
ATOM     14  C   UNL     1      46.673   3.996   7.429  0.00  0.00    +0.000 A 
ATOM     15  N   UNL     1      45.749   4.702   8.099  0.00  0.00    +0.000 NA
ATOM     16  C   UNL     1      44.877   3.991   8.862  0.00  0.00    +0.000 A 
ATOM     17  C   UNL     1      44.936   2.612   8.945  0.00  0.00    +0.000 A 
ATOM     18  F   UNL     1      44.093   1.921   9.722  0.00  0.00    +0.000 F 
BRANCH  12  20
ATOM     19  C   UNL     1      46.931   0.041   7.388  0.00  0.00    +0.000 C 
ATOM     20  O   UNL     1      46.082   0.627   8.373  0.00  0.00    +0.000 OA
ENDBRANCH  12  20
ENDBRANCH   1  16
TORSDOF 3
ENDMDL
MODEL 2
REMARK VINA RESULT:    -6.923      2.143      2.671
REMARK INTER + INTRA:          -8.575
REMARK INTER:                  -7.927
REMARK INTRA:                  -0.648
REMARK UNBOUND:                -0.438
REMARK  Name = 
REMARK  5 active torsions:
REMARK  status: ('A' for Active; 'I' for Inactive)
REMARK    1  A    between atoms: C_1  and  O_2
REMARK    2  A    between atoms: O_2  and  C_3
REMARK    3  A    between atoms: C_7  and  C_8
REMARK    4  A    between atoms: C_8  and  N_9
REMARK    5  A    between atoms: C_15  and  C_16
REMARK                            x       y       z     vdW  Elec       q    Type
REMARK                         _______ _______ _______ _____ _____    ______ ____
ROOT
ATOM      1  C   UNL     1      44.034   4.923  11.262  0.00  0.00    +0.000 C 
ENDROOT
BRANCH   1   2
ATOM      2  N   UNL     1      45.058   5.290  12.234  0.00  0.00    +0.000 N 
ATOM      3  C   UNL     1      45.829   4.377  12.914  0.00  0.00    +0.000 A 
ATOM      4  C   UNL     1      46.838   5.061  13.552  0.00  0.00    +0.000 A 
ATOM      5  C   UNL     1      46.683   6.441  13.253  0.00  0.00    +0.000 A 
ATOM      6  C   UNL     1      47.408   7.593  13.579  0.00  0.00    +0.000 A 
ATOM      7  N   UNL     1      47.027   8.807  13.115  0.00  0.00    +0.000 NA
ATOM      8  C   UNL     1      45.920   8.906  12.342  0.00  0.00    +0.000 A 
ATOM      9  C   UNL     1      45.576  10.276  11.832  0.00  0.00    +0.000 C 
ATOM     10  C   UNL     1      45.126   7.818  11.984  0.00  0.00    +0.000 A 
ATOM     11  C   UNL     1      45.548   6.566  12.447  0.00  0.00    +0.000 A 
ENDBRANCH   1   2
BRANCH   1  16
ATOM     12  C   UNL     1      45.671   3.623   8.156  0.00  0.00    +0.000 A 
ATOM     13  N   UNL     1      45.233   2.346   8.112  0.00  0.00    +0.000 NA
ATOM     14  C   UNL     1      44.458   1.966   9.136  0.00  0.00    +0.000 A 
ATOM     15  N   UNL     1      44.073   2.735  10.167  0.00  0.00    +0.000 NA
ATOM     16  C   UNL     1      44.539   4.011  10.180  0.00  0.00    +0.000 A 
ATOM     17  C   UNL     1      45.367   4.496   9.185  0.00  0.00    +0.000 A 
ATOM     18  F   UNL     1      45.798   5.763   9.189  0.00  0.00    +0.000 F 
BRANCH  12  20
ATOM     19  C   UNL     1      46.767   3.115   6.146  0.00  0.00    +0.000 C 
ATOM     20  O   UNL     1      46.427   4.112   7.108  0.00  0.00    +0.000 OA
ENDBRANCH  12  20
ENDBRANCH   1  16
TORSDOF 3
ENDMDL
MODEL 3
REMARK VINA RESULT:    -6.376      2.394      4.118
REMARK INTER + INTRA:          -7.932
REMARK INTER:                  -7.544
REMARK INTRA:                  -0.388
REMARK UNBOUND:                -0.438
REMARK  Name = 
REMARK  5 active torsions:
REMARK  status: ('A' for Active; 'I' for Inactive)
REMARK    1  A    between atoms: C_1  and  O_2
REMARK    2  A    between atoms: O_2  and  C_3
REMARK    3  A    between atoms: C_7  and  C_8
REMARK    4  A    between atoms: C_8  and  N_9
REMARK    5  A    between atoms: C_15  and  C_16
REMARK                            x       y       z     vdW  Elec       q    Type
REMARK                         _______ _______ _______ _____ _____    ______ ____
ROOT
ATOM      1  C   UNL     1      46.315   5.516  12.975  0.00  0.00    +0.000 C 
ENDROOT
BRANCH   1   2
ATOM      2  N   UNL     1      46.261   6.928  12.613  0.00  0.00    +0.000 N 
ATOM      3  C   UNL     1      45.165   7.731  12.827  0.00  0.00    +0.000 A 
ATOM      4  C   UNL     1      45.540   9.035  12.595  0.00  0.00    +0.000 A 
ATOM      5  C   UNL     1      46.912   9.033  12.225  0.00  0.00    +0.000 A 
ATOM      6  C   UNL     1      47.835  10.038  11.912  0.00  0.00    +0.000 A 
ATOM      7  N   UNL     1      49.121   9.731  11.618  0.00  0.00    +0.000 NA
ATOM      8  C   UNL     1      49.510   8.434  11.609  0.00  0.00    +0.000 A 
ATOM      9  C   UNL     1      50.957   8.168  11.311  0.00  0.00    +0.000 C 
ATOM     10  C   UNL     1      48.656   7.368  11.888  0.00  0.00    +0.000 A 
ATOM     11  C   UNL     1      47.338   7.701  12.219  0.00  0.00    +0.000 A 
ENDBRANCH   1   2
BRANCH   1  16
ATOM     12  C   UNL     1      44.240   4.056  10.221  0.00  0.00    +0.000 A 
ATOM     13  N   UNL     1      43.387   3.255  10.896  0.00  0.00    +0.000 NA
ATOM     14  C   UNL     1      43.572   3.203  12.221  0.00  0.00    +0.000 A 
ATOM     15  N   UNL     1      44.498   3.877  12.920  0.00  0.00    +0.000 NA
ATOM     16  C   UNL     1      45.342   4.666  12.206  0.00  0.00    +0.000 A 
ATOM     17  C   UNL     1      45.255   4.772  10.831  0.00  0.00    +0.000 A 
ATOM     18  F   UNL     1      46.071   5.575  10.137  0.00  0.00    +0.000 F 
BRANCH  12  20
ATOM     19  C   UNL     1      44.897   3.329   8.090  0.00  0.00    +0.000 C 
ATOM     20  O   UNL     1      44.081   4.213   8.858  0.00  0.00    +0.000 OA
ENDBRANCH  12  20
ENDBRANCH   1  16
TORSDOF 3
ENDMDL
MODEL 4
REMARK VINA RESULT:    -6.345      3.210      5.945
REMARK INTER + INTRA:          -7.895
REMARK INTER:                  -7.495
REMARK INTRA:                  -0.401
REMARK UNBOUND:                -0.438
REMARK  Name = 
REMARK  5 active torsions:
REMARK  status: ('A' for Active; 'I' for Inactive)
REMARK    1  A    between atoms: C_1  and  O_2
REMARK    2  A    between atoms: O_2  and  C_3
REMARK    3  A    between atoms: C_7  and  C_8
REMARK    4  A    between atoms: C_8  and  N_9
REMARK    5  A    between atoms: C_15  and  C_16
REMARK                            x       y       z     vdW  Elec       q    Type
REMARK                         _______ _______ _______ _____ _____    ______ ____
ROOT
ATOM      1  C   UNL     1      44.125   6.294  11.457  0.00  0.00    +0.000 C 
ENDROOT
BRANCH   1   2
ATOM      2  N   UNL     1      44.101   4.847  11.273  0.00  0.00    +0.000 N 
ATOM      3  C   UNL     1      43.336   3.993  12.032  0.00  0.00    +0.000 A 
ATOM      4  C   UNL     1      43.368   2.751  11.440  0.00  0.00    +0.000 A 
ATOM      5  C   UNL     1      44.180   2.845  10.278  0.00  0.00    +0.000 A 
ATOM      6  C   UNL     1      44.547   1.942   9.273  0.00  0.00    +0.000 A 
ATOM      7  N   UNL     1      45.334   2.334   8.243  0.00  0.00    +0.000 NA
ATOM      8  C   UNL     1      45.785   3.609   8.197  0.00  0.00    +0.000 A 
ATOM      9  C   UNL     1      46.621   3.985   7.008  0.00  0.00    +0.000 C 
ATOM     10  C   UNL     1      45.487   4.570   9.162  0.00  0.00    +0.000 A 
ATOM     11  C   UNL     1      44.650   4.160  10.205  0.00  0.00    +0.000 A 
ENDBRANCH   1   2
BRANCH   1  16
ATOM     12  C   UNL     1      46.887   8.439  12.796  0.00  0.00    +0.000 A 
ATOM     13  N   UNL     1      47.659   7.542  13.447  0.00  0.00    +0.000 NA
ATOM     14  C   UNL     1      47.202   6.284  13.451  0.00  0.00    +0.000 A 
ATOM     15  N   UNL     1      46.080   5.845  12.859  0.00  0.00    +0.000 NA
ATOM     16  C   UNL     1      45.327   6.777  12.220  0.00  0.00    +0.000 A 
ATOM     17  C   UNL     1      45.693   8.110  12.179  0.00  0.00    +0.000 A 
ATOM     18  F   UNL     1      44.961   9.017  11.521  0.00  0.00    +0.000 F 
BRANCH  12  20
ATOM     19  C   UNL     1      48.372   9.924  11.752  0.00  0.00    +0.000 C 
ATOM     20  O   UNL     1      47.315   9.748  12.694  0.00  0.00    +0.000 OA
ENDBRANCH  12  20
ENDBRANCH   1  16
TORSDOF 3
ENDMDL
MODEL 5
REMARK VINA RESULT:    -6.326      2.180      3.797
REMARK INTER + INTRA:          -7.873
REMARK INTER:                  -7.425
REMARK INTRA:                  -0.449
REMARK UNBOUND:                -0.438
REMARK  Name = 
REMARK  5 active torsions:
REMARK  status: ('A' for Active; 'I' for Inactive)
REMARK    1  A    between atoms: C_1  and  O_2
REMARK    2  A    between atoms: O_2  and  C_3
REMARK    3  A    between atoms: C_7  and  C_8
REMARK    4  A    between atoms: C_8  and  N_9
REMARK    5  A    between atoms: C_15  and  C_16
REMARK                            x       y       z     vdW  Elec       q    Type
REMARK                         _______ _______ _______ _____ _____    ______ ____
ROOT
ATOM      1  C   UNL     1      44.512   6.355  12.282  0.00  0.00    +0.000 C 
ENDROOT
BRANCH   1   2
ATOM      2  N   UNL     1      45.901   6.705  12.560  0.00  0.00    +0.000 N 
ATOM      3  C   UNL     1      46.535   7.800  12.023  0.00  0.00    +0.000 A 
ATOM      4  C   UNL     1      47.735   7.962  12.676  0.00  0.00    +0.000 A 
ATOM      5  C   UNL     1      47.843   6.930  13.648  0.00  0.00    +0.000 A 
ATOM      6  C   UNL     1      48.798   6.605  14.617  0.00  0.00    +0.000 A 
ATOM      7  N   UNL     1      48.613   5.550  15.446  0.00  0.00    +0.000 NA
ATOM      8  C   UNL     1      47.498   4.792  15.320  0.00  0.00    +0.000 A 
ATOM      9  C   UNL     1      47.340   3.662  16.295  0.00  0.00    +0.000 C 
ATOM     10  C   UNL     1      46.504   5.030  14.373  0.00  0.00    +0.000 A 
ATOM     11  C   UNL     1      46.694   6.140  13.542  0.00  0.00    +0.000 A 
ENDBRANCH   1   2
BRANCH   1  16
ATOM     12  C   UNL     1      44.586   3.450   9.922  0.00  0.00    +0.000 A 
ATOM     13  N   UNL     1      43.822   2.538  10.561  0.00  0.00    +0.000 NA
ATOM     14  C   UNL     1      43.361   2.912  11.761  0.00  0.00    +0.000 A 
ATOM     15  N   UNL     1      43.572   4.096  12.358  0.00  0.00    +0.000 NA
ATOM     16  C   UNL     1      44.352   4.984  11.687  0.00  0.00    +0.000 A 
ATOM     17  C   UNL     1      44.900   4.687  10.453  0.00  0.00    +0.000 A 
ATOM     18  F   UNL     1      45.642   5.579   9.785  0.00  0.00    +0.000 F 
BRANCH  12  20
ATOM     19  C   UNL     1      45.683   1.889   8.557  0.00  0.00    +0.000 C 
ATOM     20  O   UNL     1      45.053   3.165   8.653  0.00  0.00    +0.000 OA
ENDBRANCH  12  20
ENDBRANCH   1  16
TORSDOF 3
ENDMDL
MODEL 6
REMARK VINA RESULT:    -6.312      2.748      5.543
REMARK INTER + INTRA:          -7.857
REMARK INTER:                  -7.424
REMARK INTRA:                  -0.433
REMARK UNBOUND:                -0.438
REMARK  Name = 
REMARK  5 active torsions:
REMARK  status: ('A' for Active; 'I' for Inactive)
REMARK    1  A    between atoms: C_1  and  O_2
REMARK    2  A    between atoms: O_2  and  C_3
REMARK    3  A    between atoms: C_7  and  C_8
REMARK    4  A    between atoms: C_8  and  N_9
REMARK    5  A    between atoms: C_15  and  C_16
REMARK                            x       y       z     vdW  Elec       q    Type
REMARK                         _______ _______ _______ _____ _____    ______ ____
ROOT
ATOM      1  C   UNL     1      44.553   6.210  12.069  0.00  0.00    +0.000 C 
ENDROOT
BRANCH   1   2
ATOM      2  N   UNL     1      44.306   4.810  11.742  0.00  0.00    +0.000 N 
ATOM      3  C   UNL     1      43.459   3.996  12.457  0.00  0.00    +0.000 A 
ATOM      4  C   UNL     1      43.278   2.834  11.741  0.00  0.00    +0.000 A 
ATOM      5  C   UNL     1      44.040   2.937  10.546  0.00  0.00    +0.000 A 
ATOM      6  C   UNL     1      44.222   2.106   9.435  0.00  0.00    +0.000 A 
ATOM      7  N   UNL     1      45.009   2.491   8.403  0.00  0.00    +0.000 NA
ATOM      8  C   UNL     1      45.642   3.687   8.458  0.00  0.00    +0.000 A 
ATOM      9  C   UNL     1      46.468   4.066   7.263  0.00  0.00    +0.000 C 
ATOM     10  C   UNL     1      45.535   4.569   9.531  0.00  0.00    +0.000 A 
ATOM     11  C   UNL     1      44.696   4.172  10.578  0.00  0.00    +0.000 A 
ENDBRANCH   1   2
BRANCH   1  16
ATOM     12  C   UNL     1      47.922   6.303  13.700  0.00  0.00    +0.000 A 
ATOM     13  N   UNL     1      48.557   7.265  12.996  0.00  0.00    +0.000 NA
ATOM     14  C   UNL     1      47.857   7.799  11.988  0.00  0.00    +0.000 A 
ATOM     15  N   UNL     1      46.600   7.482  11.640  0.00  0.00    +0.000 NA
ATOM     16  C   UNL     1      45.997   6.505  12.367  0.00  0.00    +0.000 A 
ATOM     17  C   UNL     1      46.641   5.869  13.411  0.00  0.00    +0.000 A 
ATOM     18  F   UNL     1      46.029   4.929  14.142  0.00  0.00    +0.000 F 
BRANCH  12  20
ATOM     19  C   UNL     1      48.699   6.646  15.886  0.00  0.00    +0.000 C 
ATOM     20  O   UNL     1      48.553   5.741  14.793  0.00  0.00    +0.000 OA
ENDBRANCH  12  20
ENDBRANCH   1  16
TORSDOF 3
ENDMDL
MODEL 7
REMARK VINA RESULT:    -6.092      2.105      3.290
REMARK INTER + INTRA:          -7.599
REMARK INTER:                  -7.271
REMARK INTRA:                  -0.328
REMARK UNBOUND:                -0.438
REMARK  Name = 
REMARK  5 active torsions:
REMARK  status: ('A' for Active; 'I' for Inactive)
REMARK    1  A    between atoms: C_1  and  O_2
REMARK    2  A    between atoms: O_2  and  C_3
REMARK    3  A    between atoms: C_7  and  C_8
REMARK    4  A    between atoms: C_8  and  N_9
REMARK    5  A    between atoms: C_15  and  C_16
REMARK                            x       y       z     vdW  Elec       q    Type
REMARK                         _______ _______ _______ _____ _____    ______ ____
ROOT
ATOM      1  C   UNL     1      44.757   6.180  12.011  0.00  0.00    +0.000 C 
ENDROOT
BRANCH   1   2
ATOM      2  N   UNL     1      45.923   6.205  12.887  0.00  0.00    +0.000 N 
ATOM      3  C   UNL     1      46.252   5.188  13.752  0.00  0.00    +0.000 A 
ATOM      4  C   UNL     1      47.518   5.430  14.234  0.00  0.00    +0.000 A 
ATOM      5  C   UNL     1      47.984   6.637  13.645  0.00  0.00    +0.000 A 
ATOM      6  C   UNL     1      49.183   7.355  13.720  0.00  0.00    +0.000 A 
ATOM      7  N   UNL     1      49.357   8.490  13.003  0.00  0.00    +0.000 NA
ATOM      8  C   UNL     1      48.349   8.944  12.220  0.00  0.00    +0.000 A 
ATOM      9  C   UNL     1      48.623  10.188  11.425  0.00  0.00    +0.000 C 
ATOM     10  C   UNL     1      47.116   8.306  12.100  0.00  0.00    +0.000 A 
ATOM     11  C   UNL     1      46.960   7.119  12.824  0.00  0.00    +0.000 A 
ENDBRANCH   1   2
BRANCH   1  16
ATOM     12  C   UNL     1      44.440   3.213   9.749  0.00  0.00    +0.000 A 
ATOM     13  N   UNL     1      43.646   2.388  10.465  0.00  0.00    +0.000 NA
ATOM     14  C   UNL     1      43.295   2.834  11.677  0.00  0.00    +0.000 A 
ATOM     15  N   UNL     1      43.641   4.011  12.220  0.00  0.00    +0.000 NA
ATOM     16  C   UNL     1      44.447   4.811  11.473  0.00  0.00    +0.000 A 
ATOM     17  C   UNL     1      44.888   4.435  10.218  0.00  0.00    +0.000 A 
ATOM     18  F   UNL     1      45.657   5.241   9.476  0.00  0.00    +0.000 F 
BRANCH  12  20
ATOM     19  C   UNL     1      45.891   1.937   8.420  0.00  0.00    +0.000 C 
ATOM     20  O   UNL     1      44.800   2.855   8.464  0.00  0.00    +0.000 OA
ENDBRANCH  12  20
ENDBRANCH   1  16
TORSDOF 3
ENDMDL
MODEL 8
REMARK VINA RESULT:    -5.819      3.440      6.508
REMARK INTER + INTRA:          -7.277
REMARK INTER:                  -6.836
REMARK INTRA:                  -0.442
REMARK UNBOUND:                -0.438
REMARK  Name = 
REMARK  5 active torsions:
REMARK  status: ('A' for Active; 'I' for Inactive)
REMARK    1  A    between atoms: C_1  and  O_2
REMARK    2  A    between atoms: O_2  and  C_3
REMARK    3  A    between atoms: C_7  and  C_8
REMARK    4  A    between atoms: C_8  and  N_9
REMARK    5  A    between atoms: C_15  and  C_16
REMARK                            x       y       z     vdW  Elec       q    Type
REMARK                         _______ _______ _______ _____ _____    ______ ____
ROOT
ATOM      1  C   UNL     1      47.762   6.081  12.965  0.00  0.00    +0.000 C 
ENDROOT
BRANCH   1   2
ATOM      2  N   UNL     1      46.423   6.593  12.696  0.00  0.00    +0.000 N 
ATOM      3  C   UNL     1      46.054   7.904  12.882  0.00  0.00    +0.000 A 
ATOM      4  C   UNL     1      44.816   8.085  12.308  0.00  0.00    +0.000 A 
ATOM      5  C   UNL     1      44.411   6.843  11.750  0.00  0.00    +0.000 A 
ATOM      6  C   UNL     1      43.290   6.424  11.024  0.00  0.00    +0.000 A 
ATOM      7  N   UNL     1      43.186   5.147  10.585  0.00  0.00    +0.000 NA
ATOM      8  C   UNL     1      44.171   4.263  10.871  0.00  0.00    +0.000 A 
ATOM      9  C   UNL     1      44.009   2.875  10.322  0.00  0.00    +0.000 C 
ATOM     10  C   UNL     1      45.312   4.586  11.603  0.00  0.00    +0.000 A 
ATOM     11  C   UNL     1      45.420   5.916  12.025  0.00  0.00    +0.000 A 
ENDBRANCH   1   2
BRANCH   1  16
ATOM     12  C   UNL     1      47.465   4.560  16.373  0.00  0.00    +0.000 A 
ATOM     13  N   UNL     1      48.287   5.338  17.110  0.00  0.00    +0.000 NA
ATOM     14  C   UNL     1      48.934   6.296  16.433  0.00  0.00    +0.000 A 
ATOM     15  N   UNL     1      48.821   6.554  15.121  0.00  0.00    +0.000 NA
ATOM     16  C   UNL     1      47.990   5.744  14.412  0.00  0.00    +0.000 A 
ATOM     17  C   UNL     1      47.296   4.709  15.009  0.00  0.00    +0.000 A 
ATOM     18  F   UNL     1      46.456   3.935  14.310  0.00  0.00    +0.000 F 
BRANCH  12  20
ATOM     19  C   UNL     1      47.495   2.727  17.838  0.00  0.00    +0.000 C 
ATOM     20  O   UNL     1      46.716   3.585  17.005  0.00  0.00    +0.000 OA
ENDBRANCH  12  20
ENDBRANCH   1  16
TORSDOF 3
ENDMDL
MODEL 9
REMARK VINA RESULT:    -5.783      2.980      5.904
REMARK INTER + INTRA:          -7.235
REMARK INTER:                  -6.630
REMARK INTRA:                  -0.605
REMARK UNBOUND:                -0.438
REMARK  Name = 
REMARK  5 active torsions:
REMARK  status: ('A' for Active; 'I' for Inactive)
REMARK    1  A    between atoms: C_1  and  O_2
REMARK    2  A    between atoms: O_2  and  C_3
REMARK    3  A    between atoms: C_7  and  C_8
REMARK    4  A    between atoms: C_8  and  N_9
REMARK    5  A    between atoms: C_15  and  C_16
REMARK                            x       y       z     vdW  Elec       q    Type
REMARK                         _______ _______ _______ _____ _____    ______ ____
ROOT
ATOM      1  C   UNL     1      45.173   7.433  11.440  0.00  0.00    +0.000 C 
ENDROOT
BRANCH   1   2
ATOM      2  N   UNL     1      44.782   6.052  11.697  0.00  0.00    +0.000 N 
ATOM      3  C   UNL     1      44.094   5.648  12.818  0.00  0.00    +0.000 A 
ATOM      4  C   UNL     1      43.685   4.349  12.622  0.00  0.00    +0.000 A 
ATOM      5  C   UNL     1      44.136   3.940  11.338  0.00  0.00    +0.000 A 
ATOM      6  C   UNL     1      43.998   2.767  10.588  0.00  0.00    +0.000 A 
ATOM      7  N   UNL     1      44.527   2.672   9.345  0.00  0.00    +0.000 NA
ATOM      8  C   UNL     1      45.214   3.720   8.833  0.00  0.00    +0.000 A 
ATOM      9  C   UNL     1      45.742   3.560   7.436  0.00  0.00    +0.000 C 
ATOM     10  C   UNL     1      45.419   4.918   9.514  0.00  0.00    +0.000 A 
ATOM     11  C   UNL     1      44.842   5.013  10.786  0.00  0.00    +0.000 A 
ENDBRANCH   1   2
BRANCH   1  16
ATOM     12  C   UNL     1      48.687   7.805  12.676  0.00  0.00    +0.000 A 
ATOM     13  N   UNL     1      48.518   8.496  13.824  0.00  0.00    +0.000 NA
ATOM     14  C   UNL     1      47.257   8.844  14.106  0.00  0.00    +0.000 A 
ATOM     15  N   UNL     1      46.171   8.555  13.373  0.00  0.00    +0.000 NA
ATOM     16  C   UNL     1      46.382   7.865  12.221  0.00  0.00    +0.000 A 
ATOM     17  C   UNL     1      47.648   7.480  11.823  0.00  0.00    +0.000 A 
ATOM     18  F   UNL     1      47.845   6.775  10.702  0.00  0.00    +0.000 F 
BRANCH  12  20
ATOM     19  C   UNL     1      50.956   8.362  12.460  0.00  0.00    +0.000 C 
ATOM     20  O   UNL     1      49.950   7.357  12.340  0.00  0.00    +0.000 OA
ENDBRANCH  12  20
ENDBRANCH   1  16
TORSDOF 3
ENDMDL
