MODEL 1
REMARK VINA RESULT:    -8.563      0.000      0.000
REMARK INTER + INTRA:         -13.333
REMARK INTER:                 -12.068
REMARK INTRA:                  -1.266
REMARK UNBOUND:                -1.266
REMARK  Name = 
REMARK  9 active torsions:
REMARK  status: ('A' for Active; 'I' for Inactive)
REMARK    1  A    between atoms: C_1  and  C_2
REMARK    2  A    between atoms: N_4  and  C_5
REMARK    3  A    between atoms: C_7  and  C_8
REMARK    4  A    between atoms: C_8  and  C_9
REMARK    5  A    between atoms: C_9  and  N_10
REMARK    6  A    between atoms: N_10  and  C_11
REMARK    7  A    between atoms: C_14  and  C_15
REMARK    8  A    between atoms: C_21  and  C_22
REMARK    9  A    between atoms: C_28  and  C_29
REMARK                            x       y       z     vdW  Elec       q    Type
REMARK                         _______ _______ _______ _____ _____    ______ ____
ROOT
ATOM      1  C   UNL     1      47.565   5.327  15.079  0.00  0.00    +0.000 A 
ATOM      2  C   UNL     1      46.679   4.444  14.438  0.00  0.00    +0.000 A 
ATOM      3  C   UNL     1      46.269   4.618  13.105  0.00  0.00    +0.000 A 
ATOM      4  C   UNL     1      46.755   5.714  12.389  0.00  0.00    +0.000 A 
ATOM      5  C   UNL     1      47.649   6.611  12.985  0.00  0.00    +0.000 A 
ATOM      6  C   UNL     1      48.056   6.393  14.313  0.00  0.00    +0.000 A 
ENDROOT
BRANCH   1  10
ATOM      7  C   UNL     1      49.033   2.157  16.481  0.00  0.00    +0.000 C 
ATOM      8  C   UNL     1      48.567   3.061  17.621  0.00  0.00    +0.000 C 
ATOM      9  C   UNL     1      47.420   4.011  17.217  0.00  0.00    +0.000 C 
ATOM     10  N   UNL     1      47.910   5.133  16.401  0.00  0.00    +0.000 N 
ATOM     11  C   UNL     1      49.065   5.835  16.987  0.00  0.00    +0.000 C 
ATOM     12  C   UNL     1      50.173   4.826  17.365  0.00  0.00    +0.000 C 
ATOM     13  C   UNL     1      51.295   5.528  18.119  0.00  0.00    +0.000 C 
ATOM     14  O   UNL     1      49.671   3.775  18.211  0.00  0.00    +0.000 OA
ENDBRANCH   1  10
BRANCH   5  15
ATOM     15  C   UNL     1      48.139   7.833  12.247  0.00  0.00    +0.000 C 
ATOM     16  F   UNL     1      49.054   8.563  12.945  0.00  0.00    +0.000 F 
ATOM     17  F   UNL     1      48.740   7.518  11.066  0.00  0.00    +0.000 F 
ATOM     18  F   UNL     1      47.133   8.695  11.935  0.00  0.00    +0.000 F 
ENDBRANCH   5  15
BRANCH   3  19
ATOM     19  C   UNL     1      45.246   3.690  12.492  0.00  0.00    +0.000 C 
BRANCH  19  20
ATOM     20  C   UNL     1      44.224   4.497  11.685  0.00  0.00    +0.000 C 
BRANCH  20  21
ATOM     21  N   UNL     1      43.691   3.728  10.554  0.00  0.00    +0.000 N 
ATOM     22  H   UNL     1      42.821   4.114  10.194  0.00  0.00    +0.000 HD
BRANCH  21  23
ATOM     23  C   UNL     1      44.596   3.431   9.519  0.00  0.00    +0.000 A 
ATOM     24  C   UNL     1      45.289   4.420   8.810  0.00  0.00    +0.000 A 
ATOM     25  C   UNL     1      46.220   4.081   7.832  0.00  0.00    +0.000 A 
ATOM     26  C   UNL     1      46.469   2.739   7.602  0.00  0.00    +0.000 A 
ATOM     27  N   UNL     1      45.862   1.730   8.283  0.00  0.00    +0.000 NA
ATOM     28  C   UNL     1      44.962   2.111   9.229  0.00  0.00    +0.000 A 
BRANCH  26  29
ATOM     29  C   UNL     1      47.473   2.357   6.558  0.00  0.00    +0.000 C 
ATOM     30  N   UNL     1      47.355   3.013   5.363  0.00  0.00    +0.000 N 
ATOM     31  O   UNL     1      48.345   1.516   6.749  0.00  0.00    +0.000 OA
ATOM     32  H   UNL     1      46.604   3.682   5.232  0.00  0.00    +0.000 HD
ATOM     33  H   UNL     1      47.979   2.777   4.606  0.00  0.00    +0.000 HD
ENDBRANCH  26  29
ENDBRANCH  21  23
ENDBRANCH  20  21
ENDBRANCH  19  20
ENDBRANCH   3  19
TORSDOF 7
ENDMDL
MODEL 2
REMARK VINA RESULT:    -8.180      1.863      2.959
REMARK INTER + INTRA:         -12.793
REMARK INTER:                 -11.705
REMARK INTRA:                  -1.088
REMARK UNBOUND:                -1.266
REMARK  Name = 
REMARK  9 active torsions:
REMARK  status: ('A' for Active; 'I' for Inactive)
REMARK    1  A    between atoms: C_1  and  C_2
REMARK    2  A    between atoms: N_4  and  C_5
REMARK    3  A    between atoms: C_7  and  C_8
REMARK    4  A    between atoms: C_8  and  C_9
REMARK    5  A    between atoms: C_9  and  N_10
REMARK    6  A    between atoms: N_10  and  C_11
REMARK    7  A    between atoms: C_14  and  C_15
REMARK    8  A    between atoms: C_21  and  C_22
REMARK    9  A    between atoms: C_28  and  C_29
REMARK                            x       y       z     vdW  Elec       q    Type
REMARK                         _______ _______ _______ _____ _____    ______ ____
ROOT
ATOM      1  C   UNL     1      46.516   6.299  13.209  0.00  0.00    +0.000 A 
ATOM      2  C   UNL     1      45.402   5.452  13.086  0.00  0.00    +0.000 A 
ATOM      3  C   UNL     1      44.194   5.870  12.502  0.00  0.00    +0.000 A 
ATOM      4  C   UNL     1      44.093   7.180  12.029  0.00  0.00    +0.000 A 
ATOM      5  C   UNL     1      45.184   8.053  12.119  0.00  0.00    +0.000 A 
ATOM      6  C   UNL     1      46.385   7.594  12.689  0.00  0.00    +0.000 A 
ENDROOT
BRANCH   1  10
ATOM      7  C   UNL     1      48.492   8.243  15.756  0.00  0.00    +0.000 C 
ATOM      8  C   UNL     1      49.316   7.057  15.257  0.00  0.00    +0.000 C 
ATOM      9  C   UNL     1      48.934   6.606  13.831  0.00  0.00    +0.000 C 
ATOM     10  N   UNL     1      47.669   5.853  13.823  0.00  0.00    +0.000 N 
ATOM     11  C   UNL     1      47.621   4.760  14.811  0.00  0.00    +0.000 C 
ATOM     12  C   UNL     1      48.011   5.283  16.211  0.00  0.00    +0.000 C 
ATOM     13  C   UNL     1      48.121   4.127  17.196  0.00  0.00    +0.000 C 
ATOM     14  O   UNL     1      49.280   5.962  16.193  0.00  0.00    +0.000 OA
ENDBRANCH   1  10
BRANCH   5  15
ATOM     15  C   UNL     1      45.075   9.489  11.668  0.00  0.00    +0.000 C 
ATOM     16  F   UNL     1      44.398  10.287  12.541  0.00  0.00    +0.000 F 
ATOM     17  F   UNL     1      46.294  10.074  11.503  0.00  0.00    +0.000 F 
ATOM     18  F   UNL     1      44.436   9.615  10.473  0.00  0.00    +0.000 F 
ENDBRANCH   5  15
BRANCH   3  19
ATOM     19  C   UNL     1      42.997   4.948  12.475  0.00  0.00    +0.000 C 
BRANCH  19  20
ATOM     20  C   UNL     1      43.139   3.939  11.333  0.00  0.00    +0.000 C 
BRANCH  20  21
ATOM     21  N   UNL     1      43.628   4.573  10.102  0.00  0.00    +0.000 N 
ATOM     22  H   UNL     1      43.920   5.537  10.248  0.00  0.00    +0.000 HD
BRANCH  21  23
ATOM     23  C   UNL     1      44.580   3.848   9.362  0.00  0.00    +0.000 A 
ATOM     24  C   UNL     1      44.721   2.458   9.461  0.00  0.00    +0.000 A 
ATOM     25  C   UNL     1      45.636   1.774   8.666  0.00  0.00    +0.000 A 
ATOM     26  C   UNL     1      46.380   2.497   7.751  0.00  0.00    +0.000 A 
ATOM     27  N   UNL     1      46.262   3.841   7.575  0.00  0.00    +0.000 NA
ATOM     28  C   UNL     1      45.355   4.466   8.372  0.00  0.00    +0.000 A 
BRANCH  26  29
ATOM     29  C   UNL     1      47.364   1.774   6.883  0.00  0.00    +0.000 C 
ATOM     30  N   UNL     1      48.442   2.513   6.478  0.00  0.00    +0.000 N 
ATOM     31  O   UNL     1      47.224   0.602   6.551  0.00  0.00    +0.000 OA
ATOM     32  H   UNL     1      48.510   3.489   6.749  0.00  0.00    +0.000 HD
ATOM     33  H   UNL     1      49.124   2.096   5.863  0.00  0.00    +0.000 HD
ENDBRANCH  26  29
ENDBRANCH  21  23
ENDBRANCH  20  21
ENDBRANCH  19  20
ENDBRANCH   3  19
TORSDOF 7
ENDMDL
MODEL 3
REMARK VINA RESULT:    -8.123      2.988      4.135
REMARK INTER + INTRA:         -12.712
REMARK INTER:                 -11.604
REMARK INTRA:                  -1.108
REMARK UNBOUND:                -1.266
REMARK  Name = 
REMARK  9 active torsions:
REMARK  status: ('A' for Active; 'I' for Inactive)
REMARK    1  A    between atoms: C_1  and  C_2
REMARK    2  A    between atoms: N_4  and  C_5
REMARK    3  A    between atoms: C_7  and  C_8
REMARK    4  A    between atoms: C_8  and  C_9
REMARK    5  A    between atoms: C_9  and  N_10
REMARK    6  A    between atoms: N_10  and  C_11
REMARK    7  A    between atoms: C_14  and  C_15
REMARK    8  A    between atoms: C_21  and  C_22
REMARK    9  A    between atoms: C_28  and  C_29
REMARK                            x       y       z     vdW  Elec       q    Type
REMARK                         _______ _______ _______ _____ _____    ______ ____
ROOT
ATOM      1  C   UNL     1      47.523   6.706  13.580  0.00  0.00    +0.000 A 
ATOM      2  C   UNL     1      46.369   6.333  12.870  0.00  0.00    +0.000 A 
ATOM      3  C   UNL     1      45.624   5.184  13.186  0.00  0.00    +0.000 A 
ATOM      4  C   UNL     1      46.048   4.377  14.243  0.00  0.00    +0.000 A 
ATOM      5  C   UNL     1      47.185   4.718  14.985  0.00  0.00    +0.000 A 
ATOM      6  C   UNL     1      47.893   5.888  14.656  0.00  0.00    +0.000 A 
ENDROOT
BRANCH   1  10
ATOM      7  C   UNL     1      48.500   9.507  15.898  0.00  0.00    +0.000 C 
ATOM      8  C   UNL     1      48.712   9.937  14.447  0.00  0.00    +0.000 C 
ATOM      9  C   UNL     1      47.788   9.204  13.452  0.00  0.00    +0.000 C 
ATOM     10  N   UNL     1      48.241   7.824  13.209  0.00  0.00    +0.000 N 
ATOM     11  C   UNL     1      49.669   7.720  12.861  0.00  0.00    +0.000 C 
ATOM     12  C   UNL     1      50.532   8.472  13.898  0.00  0.00    +0.000 C 
ATOM     13  C   UNL     1      51.988   8.505  13.451  0.00  0.00    +0.000 C 
ATOM     14  O   UNL     1      50.098   9.834  14.067  0.00  0.00    +0.000 OA
ENDBRANCH   1  10
BRANCH   5  15
ATOM     15  C   UNL     1      47.692   3.827  16.092  0.00  0.00    +0.000 C 
ATOM     16  F   UNL     1      48.085   2.594  15.665  0.00  0.00    +0.000 F 
ATOM     17  F   UNL     1      48.772   4.359  16.731  0.00  0.00    +0.000 F 
ATOM     18  F   UNL     1      46.758   3.608  17.058  0.00  0.00    +0.000 F 
ENDBRANCH   5  15
BRANCH   3  19
ATOM     19  C   UNL     1      44.443   4.780  12.334  0.00  0.00    +0.000 C 
BRANCH  19  20
ATOM     20  C   UNL     1      44.438   5.584  11.031  0.00  0.00    +0.000 C 
BRANCH  20  21
ATOM     21  N   UNL     1      43.805   4.842   9.934  0.00  0.00    +0.000 N 
ATOM     22  H   UNL     1      43.240   5.438   9.332  0.00  0.00    +0.000 HD
BRANCH  21  23
ATOM     23  C   UNL     1      44.645   3.997   9.186  0.00  0.00    +0.000 A 
ATOM     24  C   UNL     1      45.602   4.482   8.285  0.00  0.00    +0.000 A 
ATOM     25  C   UNL     1      46.453   3.612   7.609  0.00  0.00    +0.000 A 
ATOM     26  C   UNL     1      46.354   2.258   7.874  0.00  0.00    +0.000 A 
ATOM     27  N   UNL     1      45.476   1.726   8.768  0.00  0.00    +0.000 NA
ATOM     28  C   UNL     1      44.667   2.614   9.405  0.00  0.00    +0.000 A 
BRANCH  26  29
ATOM     29  C   UNL     1      47.267   1.310   7.161  0.00  0.00    +0.000 C 
ATOM     30  N   UNL     1      48.357   1.884   6.564  0.00  0.00    +0.000 N 
ATOM     31  O   UNL     1      47.064   0.102   7.107  0.00  0.00    +0.000 OA
ATOM     32  H   UNL     1      48.478   2.890   6.605  0.00  0.00    +0.000 HD
ATOM     33  H   UNL     1      48.994   1.305   6.037  0.00  0.00    +0.000 HD
ENDBRANCH  26  29
ENDBRANCH  21  23
ENDBRANCH  20  21
ENDBRANCH  19  20
ENDBRANCH   3  19
TORSDOF 7
ENDMDL
MODEL 4
REMARK VINA RESULT:    -7.599      3.131      4.199
REMARK INTER + INTRA:         -11.975
REMARK INTER:                 -10.919
REMARK INTRA:                  -1.056
REMARK UNBOUND:                -1.266
REMARK  Name = 
REMARK  9 active torsions:
REMARK  status: ('A' for Active; 'I' for Inactive)
REMARK    1  A    between atoms: C_1  and  C_2
REMARK    2  A    between atoms: N_4  and  C_5
REMARK    3  A    between atoms: C_7  and  C_8
REMARK    4  A    between atoms: C_8  and  C_9
REMARK    5  A    between atoms: C_9  and  N_10
REMARK    6  A    between atoms: N_10  and  C_11
REMARK    7  A    between atoms: C_14  and  C_15
REMARK    8  A    between atoms: C_21  and  C_22
REMARK    9  A    between atoms: C_28  and  C_29
REMARK                            x       y       z     vdW  Elec       q    Type
REMARK                         _______ _______ _______ _____ _____    ______ ____
ROOT
ATOM      1  C   UNL     1      46.513   8.456  12.203  0.00  0.00    +0.000 A 
ATOM      2  C   UNL     1      46.201   7.087  12.247  0.00  0.00    +0.000 A 
ATOM      3  C   UNL     1      44.971   6.576  11.798  0.00  0.00    +0.000 A 
ATOM      4  C   UNL     1      44.019   7.462  11.292  0.00  0.00    +0.000 A 
ATOM      5  C   UNL     1      44.294   8.833  11.218  0.00  0.00    +0.000 A 
ATOM      6  C   UNL     1      45.544   9.307  11.655  0.00  0.00    +0.000 A 
ENDROOT
BRANCH   1  10
ATOM      7  C   UNL     1      48.644   6.650  14.726  0.00  0.00    +0.000 C 
ATOM      8  C   UNL     1      49.129   8.091  14.575  0.00  0.00    +0.000 C 
ATOM      9  C   UNL     1      48.020   9.064  14.123  0.00  0.00    +0.000 C 
ATOM     10  N   UNL     1      47.721   8.914  12.690  0.00  0.00    +0.000 N 
ATOM     11  C   UNL     1      48.915   8.952  11.826  0.00  0.00    +0.000 C 
ATOM     12  C   UNL     1      49.979   7.954  12.335  0.00  0.00    +0.000 C 
ATOM     13  C   UNL     1      51.272   8.110  11.545  0.00  0.00    +0.000 C 
ATOM     14  O   UNL     1      50.290   8.168  13.724  0.00  0.00    +0.000 OA
ENDBRANCH   1  10
BRANCH   5  15
ATOM     15  C   UNL     1      43.255   9.813  10.730  0.00  0.00    +0.000 C 
ATOM     16  F   UNL     1      42.000   9.288  10.656  0.00  0.00    +0.000 F 
ATOM     17  F   UNL     1      43.152  10.904  11.539  0.00  0.00    +0.000 F 
ATOM     18  F   UNL     1      43.532  10.295   9.487  0.00  0.00    +0.000 F 
ENDBRANCH   5  15
BRANCH   3  19
ATOM     19  C   UNL     1      44.652   5.107  11.950  0.00  0.00    +0.000 C 
BRANCH  19  20
ATOM     20  C   UNL     1      43.535   4.711  10.981  0.00  0.00    +0.000 C 
BRANCH  20  21
ATOM     21  N   UNL     1      43.681   3.326  10.516  0.00  0.00    +0.000 N 
ATOM     22  H   UNL     1      42.785   2.874  10.344  0.00  0.00    +0.000 HD
BRANCH  21  23
ATOM     23  C   UNL     1      44.581   3.115   9.455  0.00  0.00    +0.000 A 
ATOM     24  C   UNL     1      45.079   4.157   8.663  0.00  0.00    +0.000 A 
ATOM     25  C   UNL     1      46.013   3.911   7.661  0.00  0.00    +0.000 A 
ATOM     26  C   UNL     1      46.465   2.614   7.490  0.00  0.00    +0.000 A 
ATOM     27  N   UNL     1      46.054   1.564   8.252  0.00  0.00    +0.000 NA
ATOM     28  C   UNL     1      45.143   1.854   9.219  0.00  0.00    +0.000 A 
BRANCH  26  29
ATOM     29  C   UNL     1      47.476   2.334   6.421  0.00  0.00    +0.000 C 
ATOM     30  N   UNL     1      47.475   3.209   5.370  0.00  0.00    +0.000 N 
ATOM     31  O   UNL     1      48.255   1.388   6.473  0.00  0.00    +0.000 OA
ATOM     32  H   UNL     1      46.797   3.964   5.347  0.00  0.00    +0.000 HD
ATOM     33  H   UNL     1      48.109   3.057   4.600  0.00  0.00    +0.000 HD
ENDBRANCH  26  29
ENDBRANCH  21  23
ENDBRANCH  20  21
ENDBRANCH  19  20
ENDBRANCH   3  19
TORSDOF 7
ENDMDL
MODEL 5
REMARK VINA RESULT:    -6.827      2.973      8.290
REMARK INTER + INTRA:         -10.886
REMARK INTER:                 -10.051
REMARK INTRA:                  -0.835
REMARK UNBOUND:                -1.266
REMARK  Name = 
REMARK  9 active torsions:
REMARK  status: ('A' for Active; 'I' for Inactive)
REMARK    1  A    between atoms: C_1  and  C_2
REMARK    2  A    between atoms: N_4  and  C_5
REMARK    3  A    between atoms: C_7  and  C_8
REMARK    4  A    between atoms: C_8  and  C_9
REMARK    5  A    between atoms: C_9  and  N_10
REMARK    6  A    between atoms: N_10  and  C_11
REMARK    7  A    between atoms: C_14  and  C_15
REMARK    8  A    between atoms: C_21  and  C_22
REMARK    9  A    between atoms: C_28  and  C_29
REMARK                            x       y       z     vdW  Elec       q    Type
REMARK                         _______ _______ _______ _____ _____    ______ ____
ROOT
ATOM      1  C   UNL     1      45.979   4.859  13.348  0.00  0.00    +0.000 A 
ATOM      2  C   UNL     1      46.463   4.579  14.637  0.00  0.00    +0.000 A 
ATOM      3  C   UNL     1      47.520   5.298  15.222  0.00  0.00    +0.000 A 
ATOM      4  C   UNL     1      48.117   6.328  14.492  0.00  0.00    +0.000 A 
ATOM      5  C   UNL     1      47.656   6.649  13.210  0.00  0.00    +0.000 A 
ATOM      6  C   UNL     1      46.582   5.924  12.665  0.00  0.00    +0.000 A 
ENDROOT
BRANCH   1  10
ATOM      7  C   UNL     1      43.132   6.225  11.299  0.00  0.00    +0.000 C 
ATOM      8  C   UNL     1      42.824   4.789  11.720  0.00  0.00    +0.000 C 
ATOM      9  C   UNL     1      43.532   4.372  13.026  0.00  0.00    +0.000 C 
ATOM     10  N   UNL     1      44.962   4.101  12.804  0.00  0.00    +0.000 N 
ATOM     11  C   UNL     1      45.226   3.184  11.681  0.00  0.00    +0.000 C 
ATOM     12  C   UNL     1      44.490   3.663  10.410  0.00  0.00    +0.000 C 
ATOM     13  C   UNL     1      44.628   2.632   9.298  0.00  0.00    +0.000 C 
ATOM     14  O   UNL     1      43.085   3.861  10.649  0.00  0.00    +0.000 OA
ENDBRANCH   1  10
BRANCH   5  15
ATOM     15  C   UNL     1      48.327   7.719  12.384  0.00  0.00    +0.000 C 
ATOM     16  F   UNL     1      49.149   7.227  11.414  0.00  0.00    +0.000 F 
ATOM     17  F   UNL     1      47.429   8.514  11.737  0.00  0.00    +0.000 F 
ATOM     18  F   UNL     1      49.094   8.557  13.134  0.00  0.00    +0.000 F 
ENDBRANCH   5  15
BRANCH   3  19
ATOM     19  C   UNL     1      48.062   4.898  16.574  0.00  0.00    +0.000 C 
BRANCH  19  20
ATOM     20  C   UNL     1      49.491   5.423  16.742  0.00  0.00    +0.000 C 
BRANCH  20  21
ATOM     21  N   UNL     1      50.096   4.964  17.998  0.00  0.00    +0.000 N 
ATOM     22  H   UNL     1      49.427   4.926  18.764  0.00  0.00    +0.000 HD
BRANCH  21  23
ATOM     23  C   UNL     1      50.871   3.793  17.927  0.00  0.00    +0.000 A 
ATOM     24  C   UNL     1      50.388   2.594  17.388  0.00  0.00    +0.000 A 
ATOM     25  C   UNL     1      51.208   1.474  17.283  0.00  0.00    +0.000 A 
ATOM     26  C   UNL     1      52.525   1.585  17.693  0.00  0.00    +0.000 A 
ATOM     27  N   UNL     1      53.069   2.731  18.185  0.00  0.00    +0.000 NA
ATOM     28  C   UNL     1      52.230   3.798  18.268  0.00  0.00    +0.000 A 
BRANCH  26  29
ATOM     29  C   UNL     1      53.422   0.391  17.579  0.00  0.00    +0.000 C 
ATOM     30  N   UNL     1      53.183  -0.610  18.481  0.00  0.00    +0.000 N 
ATOM     31  O   UNL     1      54.314   0.305  16.742  0.00  0.00    +0.000 OA
ATOM     32  H   UNL     1      52.455  -0.492  19.178  0.00  0.00    +0.000 HD
ATOM     33  H   UNL     1      53.774  -1.427  18.481  0.00  0.00    +0.000 HD
ENDBRANCH  26  29
ENDBRANCH  21  23
ENDBRANCH  20  21
ENDBRANCH  19  20
ENDBRANCH   3  19
TORSDOF 7
ENDMDL
MODEL 6
REMARK VINA RESULT:    -6.651      4.204      7.301
REMARK INTER + INTRA:         -10.638
REMARK INTER:                  -9.471
REMARK INTRA:                  -1.167
REMARK UNBOUND:                -1.266
REMARK  Name = 
REMARK  9 active torsions:
REMARK  status: ('A' for Active; 'I' for Inactive)
REMARK    1  A    between atoms: C_1  and  C_2
REMARK    2  A    between atoms: N_4  and  C_5
REMARK    3  A    between atoms: C_7  and  C_8
REMARK    4  A    between atoms: C_8  and  C_9
REMARK    5  A    between atoms: C_9  and  N_10
REMARK    6  A    between atoms: N_10  and  C_11
REMARK    7  A    between atoms: C_14  and  C_15
REMARK    8  A    between atoms: C_21  and  C_22
REMARK    9  A    between atoms: C_28  and  C_29
REMARK                            x       y       z     vdW  Elec       q    Type
REMARK                         _______ _______ _______ _____ _____    ______ ____
ROOT
ATOM      1  C   UNL     1      46.068   4.712  13.293  0.00  0.00    +0.000 A 
ATOM      2  C   UNL     1      46.559   5.808  12.564  0.00  0.00    +0.000 A 
ATOM      3  C   UNL     1      47.574   6.649  13.052  0.00  0.00    +0.000 A 
ATOM      4  C   UNL     1      48.113   6.390  14.313  0.00  0.00    +0.000 A 
ATOM      5  C   UNL     1      47.662   5.301  15.068  0.00  0.00    +0.000 A 
ATOM      6  C   UNL     1      46.661   4.467  14.539  0.00  0.00    +0.000 A 
ENDROOT
BRANCH   1  10
ATOM      7  C   UNL     1      43.182   6.014  11.256  0.00  0.00    +0.000 C 
ATOM      8  C   UNL     1      42.888   4.588  11.720  0.00  0.00    +0.000 C 
ATOM      9  C   UNL     1      43.619   4.208  13.025  0.00  0.00    +0.000 C 
ATOM     10  N   UNL     1      45.045   3.936  12.786  0.00  0.00    +0.000 N 
ATOM     11  C   UNL     1      45.294   2.990  11.684  0.00  0.00    +0.000 C 
ATOM     12  C   UNL     1      44.535   3.433  10.413  0.00  0.00    +0.000 C 
ATOM     13  C   UNL     1      44.658   2.373   9.326  0.00  0.00    +0.000 C 
ATOM     14  O   UNL     1      43.134   3.633  10.670  0.00  0.00    +0.000 OA
ENDBRANCH   1  10
BRANCH   5  15
ATOM     15  C   UNL     1      48.190   5.041  16.458  0.00  0.00    +0.000 C 
ATOM     16  F   UNL     1      49.185   5.893  16.833  0.00  0.00    +0.000 F 
ATOM     17  F   UNL     1      47.223   5.159  17.410  0.00  0.00    +0.000 F 
ATOM     18  F   UNL     1      48.700   3.786  16.598  0.00  0.00    +0.000 F 
ENDBRANCH   5  15
BRANCH   3  19
ATOM     19  C   UNL     1      48.003   7.866  12.266  0.00  0.00    +0.000 C 
BRANCH  19  20
ATOM     20  C   UNL     1      48.373   9.003  13.222  0.00  0.00    +0.000 C 
BRANCH  20  21
ATOM     21  N   UNL     1      47.727  10.266  12.845  0.00  0.00    +0.000 N 
ATOM     22  H   UNL     1      48.347  10.882  12.322  0.00  0.00    +0.000 HD
BRANCH  21  23
ATOM     23  C   UNL     1      46.463  10.164  12.236  0.00  0.00    +0.000 A 
ATOM     24  C   UNL     1      45.432   9.371  12.755  0.00  0.00    +0.000 A 
ATOM     25  C   UNL     1      44.177   9.346  12.154  0.00  0.00    +0.000 A 
ATOM     26  C   UNL     1      43.962  10.150  11.049  0.00  0.00    +0.000 A 
ATOM     27  N   UNL     1      44.907  10.975  10.520  0.00  0.00    +0.000 NA
ATOM     28  C   UNL     1      46.116  10.967  11.142  0.00  0.00    +0.000 A 
BRANCH  26  29
ATOM     29  C   UNL     1      42.615  10.139  10.395  0.00  0.00    +0.000 C 
ATOM     30  N   UNL     1      41.660   9.395  11.033  0.00  0.00    +0.000 N 
ATOM     31  O   UNL     1      42.372  10.750   9.360  0.00  0.00    +0.000 OA
ATOM     32  H   UNL     1      41.905   8.880  11.872  0.00  0.00    +0.000 HD
ATOM     33  H   UNL     1      40.740   9.318  10.626  0.00  0.00    +0.000 HD
ENDBRANCH  26  29
ENDBRANCH  21  23
ENDBRANCH  20  21
ENDBRANCH  19  20
ENDBRANCH   3  19
TORSDOF 7
ENDMDL
MODEL 7
REMARK VINA RESULT:    -6.600      2.865      7.665
REMARK INTER + INTRA:         -10.566
REMARK INTER:                  -9.572
REMARK INTRA:                  -0.994
REMARK UNBOUND:                -1.266
REMARK  Name = 
REMARK  9 active torsions:
REMARK  status: ('A' for Active; 'I' for Inactive)
REMARK    1  A    between atoms: C_1  and  C_2
REMARK    2  A    between atoms: N_4  and  C_5
REMARK    3  A    between atoms: C_7  and  C_8
REMARK    4  A    between atoms: C_8  and  C_9
REMARK    5  A    between atoms: C_9  and  N_10
REMARK    6  A    between atoms: N_10  and  C_11
REMARK    7  A    between atoms: C_14  and  C_15
REMARK    8  A    between atoms: C_21  and  C_22
REMARK    9  A    between atoms: C_28  and  C_29
REMARK                            x       y       z     vdW  Elec       q    Type
REMARK                         _______ _______ _______ _____ _____    ______ ____
ROOT
ATOM      1  C   UNL     1      46.724   6.608  11.789  0.00  0.00    +0.000 A 
ATOM      2  C   UNL     1      46.780   6.059  13.081  0.00  0.00    +0.000 A 
ATOM      3  C   UNL     1      47.879   6.250  13.938  0.00  0.00    +0.000 A 
ATOM      4  C   UNL     1      48.959   7.010  13.487  0.00  0.00    +0.000 A 
ATOM      5  C   UNL     1      48.938   7.586  12.211  0.00  0.00    +0.000 A 
ATOM      6  C   UNL     1      47.813   7.394  11.390  0.00  0.00    +0.000 A 
ENDROOT
BRANCH   1  10
ATOM      7  C   UNL     1      45.346   3.194  11.004  0.00  0.00    +0.000 C 
ATOM      8  C   UNL     1      44.758   4.224  10.041  0.00  0.00    +0.000 C 
ATOM      9  C   UNL     1      45.674   5.446   9.821  0.00  0.00    +0.000 C 
ATOM     10  N   UNL     1      45.639   6.363  10.972  0.00  0.00    +0.000 N 
ATOM     11  C   UNL     1      44.276   6.727  11.401  0.00  0.00    +0.000 C 
ATOM     12  C   UNL     1      43.419   5.458  11.604  0.00  0.00    +0.000 C 
ATOM     13  C   UNL     1      41.970   5.838  11.885  0.00  0.00    +0.000 C 
ATOM     14  O   UNL     1      43.428   4.615  10.438  0.00  0.00    +0.000 OA
ENDBRANCH   1  10
BRANCH   5  15
ATOM     15  C   UNL     1      50.121   8.361  11.684  0.00  0.00    +0.000 C 
ATOM     16  F   UNL     1      50.964   8.803  12.660  0.00  0.00    +0.000 F 
ATOM     17  F   UNL     1      50.890   7.621  10.838  0.00  0.00    +0.000 F 
ATOM     18  F   UNL     1      49.752   9.467  10.981  0.00  0.00    +0.000 F 
ENDBRANCH   5  15
BRANCH   3  19
ATOM     19  C   UNL     1      47.928   5.563  15.283  0.00  0.00    +0.000 C 
BRANCH  19  20
ATOM     20  C   UNL     1      46.877   4.452  15.342  0.00  0.00    +0.000 C 
BRANCH  20  21
ATOM     21  N   UNL     1      47.029   3.620  16.542  0.00  0.00    +0.000 N 
ATOM     22  H   UNL     1      46.355   2.857  16.577  0.00  0.00    +0.000 HD
BRANCH  21  23
ATOM     23  C   UNL     1      48.331   3.176  16.833  0.00  0.00    +0.000 A 
ATOM     24  C   UNL     1      49.080   3.673  17.907  0.00  0.00    +0.000 A 
ATOM     25  C   UNL     1      50.343   3.164  18.196  0.00  0.00    +0.000 A 
ATOM     26  C   UNL     1      50.827   2.129  17.415  0.00  0.00    +0.000 A 
ATOM     27  N   UNL     1      50.134   1.572  16.385  0.00  0.00    +0.000 NA
ATOM     28  C   UNL     1      48.905   2.101  16.142  0.00  0.00    +0.000 A 
BRANCH  26  29
ATOM     29  C   UNL     1      52.181   1.564  17.717  0.00  0.00    +0.000 C 
ATOM     30  N   UNL     1      52.854   2.172  18.741  0.00  0.00    +0.000 N 
ATOM     31  O   UNL     1      52.664   0.624  17.096  0.00  0.00    +0.000 OA
ATOM     32  H   UNL     1      52.434   2.966  19.214  0.00  0.00    +0.000 HD
ATOM     33  H   UNL     1      53.786   1.863  18.974  0.00  0.00    +0.000 HD
ENDBRANCH  26  29
ENDBRANCH  21  23
ENDBRANCH  20  21
ENDBRANCH  19  20
ENDBRANCH   3  19
TORSDOF 7
ENDMDL
MODEL 8
REMARK VINA RESULT:    -6.224      3.422      4.777
REMARK INTER + INTRA:         -10.036
REMARK INTER:                  -8.897
REMARK INTRA:                  -1.140
REMARK UNBOUND:                -1.266
REMARK  Name = 
REMARK  9 active torsions:
REMARK  status: ('A' for Active; 'I' for Inactive)
REMARK    1  A    between atoms: C_1  and  C_2
REMARK    2  A    between atoms: N_4  and  C_5
REMARK    3  A    between atoms: C_7  and  C_8
REMARK    4  A    between atoms: C_8  and  C_9
REMARK    5  A    between atoms: C_9  and  N_10
REMARK    6  A    between atoms: N_10  and  C_11
REMARK    7  A    between atoms: C_14  and  C_15
REMARK    8  A    between atoms: C_21  and  C_22
REMARK    9  A    between atoms: C_28  and  C_29
REMARK                            x       y       z     vdW  Elec       q    Type
REMARK                         _______ _______ _______ _____ _____    ______ ____
ROOT
ATOM      1  C   UNL     1      50.119   6.237  16.616  0.00  0.00    +0.000 A 
ATOM      2  C   UNL     1      49.026   6.915  16.051  0.00  0.00    +0.000 A 
ATOM      3  C   UNL     1      49.181   7.992  15.161  0.00  0.00    +0.000 A 
ATOM      4  C   UNL     1      50.471   8.410  14.828  0.00  0.00    +0.000 A 
ATOM      5  C   UNL     1      51.588   7.754  15.359  0.00  0.00    +0.000 A 
ATOM      6  C   UNL     1      51.396   6.665  16.228  0.00  0.00    +0.000 A 
ENDROOT
BRANCH   1  10
ATOM      7  C   UNL     1      47.397   3.652  16.348  0.00  0.00    +0.000 C 
ATOM      8  C   UNL     1      48.021   3.604  17.742  0.00  0.00    +0.000 C 
ATOM      9  C   UNL     1      48.631   4.951  18.183  0.00  0.00    +0.000 C 
ATOM     10  N   UNL     1      49.916   5.208  17.513  0.00  0.00    +0.000 N 
ATOM     11  C   UNL     1      50.866   4.085  17.597  0.00  0.00    +0.000 C 
ATOM     12  C   UNL     1      50.190   2.773  17.139  0.00  0.00    +0.000 C 
ATOM     13  C   UNL     1      51.116   1.588  17.381  0.00  0.00    +0.000 C 
ATOM     14  O   UNL     1      48.968   2.524  17.857  0.00  0.00    +0.000 OA
ENDBRANCH   1  10
BRANCH   5  15
ATOM     15  C   UNL     1      52.989   8.228  15.057  0.00  0.00    +0.000 C 
ATOM     16  F   UNL     1      53.033   9.310  14.230  0.00  0.00    +0.000 F 
ATOM     17  F   UNL     1      53.664   8.595  16.182  0.00  0.00    +0.000 F 
ATOM     18  F   UNL     1      53.750   7.270  14.461  0.00  0.00    +0.000 F 
ENDBRANCH   5  15
BRANCH   3  19
ATOM     19  C   UNL     1      47.973   8.744  14.652  0.00  0.00    +0.000 C 
BRANCH  19  20
ATOM     20  C   UNL     1      47.499   8.138  13.328  0.00  0.00    +0.000 C 
BRANCH  20  21
ATOM     21  N   UNL     1      46.034   8.119  13.230  0.00  0.00    +0.000 N 
ATOM     22  H   UNL     1      45.665   8.918  12.720  0.00  0.00    +0.000 HD
BRANCH  21  23
ATOM     23  C   UNL     1      45.453   6.913  12.797  0.00  0.00    +0.000 A 
ATOM     24  C   UNL     1      44.516   6.852  11.758  0.00  0.00    +0.000 A 
ATOM     25  C   UNL     1      44.010   5.631  11.321  0.00  0.00    +0.000 A 
ATOM     26  C   UNL     1      44.482   4.475  11.917  0.00  0.00    +0.000 A 
ATOM     27  N   UNL     1      45.422   4.461  12.901  0.00  0.00    +0.000 NA
ATOM     28  C   UNL     1      45.887   5.677  13.293  0.00  0.00    +0.000 A 
BRANCH  26  29
ATOM     29  C   UNL     1      43.953   3.152  11.453  0.00  0.00    +0.000 C 
ATOM     30  N   UNL     1      43.745   2.227  12.438  0.00  0.00    +0.000 N 
ATOM     31  O   UNL     1      43.721   2.904  10.275  0.00  0.00    +0.000 OA
ATOM     32  H   UNL     1      43.975   2.458  13.399  0.00  0.00    +0.000 HD
ATOM     33  H   UNL     1      43.422   1.304  12.190  0.00  0.00    +0.000 HD
ENDBRANCH  26  29
ENDBRANCH  21  23
ENDBRANCH  20  21
ENDBRANCH  19  20
ENDBRANCH   3  19
TORSDOF 7
ENDMDL
MODEL 9
REMARK VINA RESULT:    -6.120      3.357      8.718
REMARK INTER + INTRA:          -9.890
REMARK INTER:                  -8.226
REMARK INTRA:                  -1.664
REMARK UNBOUND:                -1.266
REMARK  Name = 
REMARK  9 active torsions:
REMARK  status: ('A' for Active; 'I' for Inactive)
REMARK    1  A    between atoms: C_1  and  C_2
REMARK    2  A    between atoms: N_4  and  C_5
REMARK    3  A    between atoms: C_7  and  C_8
REMARK    4  A    between atoms: C_8  and  C_9
REMARK    5  A    between atoms: C_9  and  N_10
REMARK    6  A    between atoms: N_10  and  C_11
REMARK    7  A    between atoms: C_14  and  C_15
REMARK    8  A    between atoms: C_21  and  C_22
REMARK    9  A    between atoms: C_28  and  C_29
REMARK                            x       y       z     vdW  Elec       q    Type
REMARK                         _______ _______ _______ _____ _____    ______ ____
ROOT
ATOM      1  C   UNL     1      45.919   4.683  13.201  0.00  0.00    +0.000 A 
ATOM      2  C   UNL     1      46.515   5.844  12.680  0.00  0.00    +0.000 A 
ATOM      3  C   UNL     1      47.542   6.533  13.348  0.00  0.00    +0.000 A 
ATOM      4  C   UNL     1      47.986   6.049  14.580  0.00  0.00    +0.000 A 
ATOM      5  C   UNL     1      47.429   4.888  15.129  0.00  0.00    +0.000 A 
ATOM      6  C   UNL     1      46.419   4.211  14.422  0.00  0.00    +0.000 A 
ENDROOT
BRANCH   1  10
ATOM      7  C   UNL     1      43.158   6.469  11.370  0.00  0.00    +0.000 C 
ATOM      8  C   UNL     1      42.796   4.995  11.542  0.00  0.00    +0.000 C 
ATOM      9  C   UNL     1      43.465   4.342  12.770  0.00  0.00    +0.000 C 
ATOM     10  N   UNL     1      44.889   4.062  12.524  0.00  0.00    +0.000 N 
ATOM     11  C   UNL     1      45.144   3.334  11.268  0.00  0.00    +0.000 C 
ATOM     12  C   UNL     1      44.449   4.044  10.085  0.00  0.00    +0.000 C 
ATOM     13  C   UNL     1      44.573   3.207   8.818  0.00  0.00    +0.000 C 
ATOM     14  O   UNL     1      43.046   4.249  10.335  0.00  0.00    +0.000 OA
ENDBRANCH   1  10
BRANCH   5  15
ATOM     15  C   UNL     1      47.854   4.383  16.486  0.00  0.00    +0.000 C 
ATOM     16  F   UNL     1      48.856   5.114  17.051  0.00  0.00    +0.000 F 
ATOM     17  F   UNL     1      46.833   4.397  17.387  0.00  0.00    +0.000 F 
ATOM     18  F   UNL     1      48.303   3.098  16.450  0.00  0.00    +0.000 F 
ENDBRANCH   5  15
BRANCH   3  19
ATOM     19  C   UNL     1      48.085   7.827  12.787  0.00  0.00    +0.000 C 
BRANCH  19  20
ATOM     20  C   UNL     1      47.418   9.018  13.479  0.00  0.00    +0.000 C 
BRANCH  20  21
ATOM     21  N   UNL     1      48.394   9.856  14.186  0.00  0.00    +0.000 N 
ATOM     22  H   UNL     1      48.119  10.836  14.217  0.00  0.00    +0.000 HD
BRANCH  21  23
ATOM     23  C   UNL     1      48.816   9.395  15.447  0.00  0.00    +0.000 A 
ATOM     24  C   UNL     1      47.944   9.245  16.532  0.00  0.00    +0.000 A 
ATOM     25  C   UNL     1      48.392   8.729  17.744  0.00  0.00    +0.000 A 
ATOM     26  C   UNL     1      49.715   8.337  17.841  0.00  0.00    +0.000 A 
ATOM     27  N   UNL     1      50.604   8.416  16.814  0.00  0.00    +0.000 NA
ATOM     28  C   UNL     1      50.120   8.925  15.649  0.00  0.00    +0.000 A 
BRANCH  26  29
ATOM     29  C   UNL     1      50.211   7.773  19.137  0.00  0.00    +0.000 C 
ATOM     30  N   UNL     1      50.201   8.640  20.195  0.00  0.00    +0.000 N 
ATOM     31  O   UNL     1      50.604   6.617  19.254  0.00  0.00    +0.000 OA
ATOM     32  H   UNL     1      49.896   9.598  20.055  0.00  0.00    +0.000 HD
ATOM     33  H   UNL     1      50.555   8.333  21.089  0.00  0.00    +0.000 HD
ENDBRANCH  26  29
ENDBRANCH  21  23
ENDBRANCH  20  21
ENDBRANCH  19  20
ENDBRANCH   3  19
TORSDOF 7
ENDMDL
