MODEL 1
REMARK VINA RESULT:    -7.532      0.000      0.000
REMARK INTER + INTRA:          -9.654
REMARK INTER:                  -9.293
REMARK INTRA:                  -0.361
REMARK UNBOUND:                -0.361
REMARK  Name = 
REMARK  4 active torsions:
REMARK  status: ('A' for Active; 'I' for Inactive)
REMARK    1  A    between atoms: C_2  and  C_3
REMARK    2  A    between atoms: C_6  and  N_7
REMARK    3  A    between atoms: N_7  and  C_8
REMARK    4  A    between atoms: C_8  and  C_9
REMARK                            x       y       z     vdW  Elec       q    Type
REMARK                         _______ _______ _______ _____ _____    ______ ____
ROOT
ATOM      1  N   UNL     1      43.800   4.537  10.198  0.00  0.00    +0.000 N 
ATOM      2  H   UNL     1      42.841   4.290   9.967  0.00  0.00    +0.000 HD
ENDROOT
BRANCH   1   6
ATOM      3  C   UNL     1      46.570   2.638   7.600  0.00  0.00    +0.000 A 
ATOM      4  C   UNL     1      45.773   1.883   8.465  0.00  0.00    +0.000 A 
ATOM      5  C   UNL     1      44.846   2.521   9.309  0.00  0.00    +0.000 A 
ATOM      6  C   UNL     1      44.726   3.915   9.318  0.00  0.00    +0.000 A 
ATOM      7  C   UNL     1      45.487   4.648   8.395  0.00  0.00    +0.000 A 
ATOM      8  C   UNL     1      46.415   4.020   7.555  0.00  0.00    +0.000 A 
BRANCH   3  10
ATOM      9  N   UNL     1      48.337   1.484   6.093  0.00  0.00    +0.000 NA
ATOM     10  C   UNL     1      47.545   1.995   6.763  0.00  0.00    +0.000 C 
ENDBRANCH   3  10
ENDBRANCH   1   6
BRANCH   1  11
ATOM     11  C   UNL     1      44.104   4.584  11.657  0.00  0.00    +0.000 C 
ATOM     12  C   UNL     1      43.418   3.529  12.519  0.00  0.00    +0.000 C 
ATOM     13  C   UNL     1      43.040   4.958  12.691  0.00  0.00    +0.000 C 
BRANCH  11  14
ATOM     14  C   UNL     1      45.474   5.159  12.045  0.00  0.00    +0.000 A 
ATOM     15  C   UNL     1      45.844   6.421  11.564  0.00  0.00    +0.000 A 
ATOM     16  C   UNL     1      46.880   7.117  12.179  0.00  0.00    +0.000 A 
ATOM     17  C   UNL     1      47.565   6.516  13.224  0.00  0.00    +0.000 A 
ATOM     18  C   UNL     1      47.218   5.224  13.576  0.00  0.00    +0.000 A 
ATOM     19  N   UNL     1      46.196   4.540  13.018  0.00  0.00    +0.000 NA
ENDBRANCH  11  14
ENDBRANCH   1  11
TORSDOF 4
ENDMDL
MODEL 2
REMARK VINA RESULT:    -7.014      1.387      1.937
REMARK INTER + INTRA:          -9.015
REMARK INTER:                  -8.499
REMARK INTRA:                  -0.516
REMARK UNBOUND:                -0.361
REMARK  Name = 
REMARK  4 active torsions:
REMARK  status: ('A' for Active; 'I' for Inactive)
REMARK    1  A    between atoms: C_2  and  C_3
REMARK    2  A    between atoms: C_6  and  N_7
REMARK    3  A    between atoms: N_7  and  C_8
REMARK    4  A    between atoms: C_8  and  C_9
REMARK                            x       y       z     vdW  Elec       q    Type
REMARK                         _______ _______ _______ _____ _____    ______ ____
ROOT
ATOM      1  N   UNL     1      43.784   3.589  10.301  0.00  0.00    +0.000 N 
ATOM      2  H   UNL     1      43.016   2.925  10.337  0.00  0.00    +0.000 HD
ENDROOT
BRANCH   1   6
ATOM      3  C   UNL     1      46.677   2.439   7.413  0.00  0.00    +0.000 A 
ATOM      4  C   UNL     1      46.015   1.476   8.181  0.00  0.00    +0.000 A 
ATOM      5  C   UNL     1      45.046   1.867   9.122  0.00  0.00    +0.000 A 
ATOM      6  C   UNL     1      44.749   3.219   9.326  0.00  0.00    +0.000 A 
ATOM      7  C   UNL     1      45.376   4.163   8.499  0.00  0.00    +0.000 A 
ATOM      8  C   UNL     1      46.345   3.782   7.563  0.00  0.00    +0.000 A 
BRANCH   3  10
ATOM      9  N   UNL     1      48.516   1.726   5.729  0.00  0.00    +0.000 NA
ATOM     10  C   UNL     1      47.695   2.049   6.477  0.00  0.00    +0.000 C 
ENDBRANCH   3  10
ENDBRANCH   1   6
BRANCH   1  11
ATOM     11  C   UNL     1      44.247   4.090  11.626  0.00  0.00    +0.000 C 
ATOM     12  C   UNL     1      45.172   3.162  12.408  0.00  0.00    +0.000 C 
ATOM     13  C   UNL     1      43.807   3.432  12.936  0.00  0.00    +0.000 C 
BRANCH  11  14
ATOM     14  C   UNL     1      44.337   5.615  11.781  0.00  0.00    +0.000 A 
ATOM     15  C   UNL     1      45.556   6.191  12.156  0.00  0.00    +0.000 A 
ATOM     16  C   UNL     1      45.771   7.550  11.944  0.00  0.00    +0.000 A 
ATOM     17  C   UNL     1      44.745   8.317  11.417  0.00  0.00    +0.000 A 
ATOM     18  C   UNL     1      43.530   7.704  11.171  0.00  0.00    +0.000 A 
ATOM     19  N   UNL     1      43.306   6.384  11.336  0.00  0.00    +0.000 NA
ENDBRANCH  11  14
ENDBRANCH   1  11
TORSDOF 4
ENDMDL
MODEL 3
REMARK VINA RESULT:    -5.970      1.832      5.799
REMARK INTER + INTRA:          -7.727
REMARK INTER:                  -8.067
REMARK INTRA:                   0.340
REMARK UNBOUND:                -0.361
REMARK  Name = 
REMARK  4 active torsions:
REMARK  status: ('A' for Active; 'I' for Inactive)
REMARK    1  A    between atoms: C_2  and  C_3
REMARK    2  A    between atoms: C_6  and  N_7
REMARK    3  A    between atoms: N_7  and  C_8
REMARK    4  A    between atoms: C_8  and  C_9
REMARK                            x       y       z     vdW  Elec       q    Type
REMARK                         _______ _______ _______ _____ _____    ______ ____
ROOT
ATOM      1  N   UNL     1      44.249   5.434  10.321  0.00  0.00    +0.000 N 
ATOM      2  H   UNL     1      44.140   5.808   9.382  0.00  0.00    +0.000 HD
ENDROOT
BRANCH   1   6
ATOM      3  C   UNL     1      46.746   7.897  12.714  0.00  0.00    +0.000 A 
ATOM      4  C   UNL     1      47.299   7.026  11.771  0.00  0.00    +0.000 A 
ATOM      5  C   UNL     1      46.461   6.227  10.971  0.00  0.00    +0.000 A 
ATOM      6  C   UNL     1      45.071   6.270  11.123  0.00  0.00    +0.000 A 
ATOM      7  C   UNL     1      44.536   7.199  12.027  0.00  0.00    +0.000 A 
ATOM      8  C   UNL     1      45.363   7.994  12.830  0.00  0.00    +0.000 A 
BRANCH   3  10
ATOM      9  N   UNL     1      48.282   9.315  14.247  0.00  0.00    +0.000 NA
ATOM     10  C   UNL     1      47.597   8.688  13.560  0.00  0.00    +0.000 C 
ENDBRANCH   3  10
ENDBRANCH   1   6
BRANCH   1  11
ATOM     11  C   UNL     1      44.425   3.956  10.394  0.00  0.00    +0.000 C 
ATOM     12  C   UNL     1      43.438   3.206  11.283  0.00  0.00    +0.000 C 
ATOM     13  C   UNL     1      44.870   3.259  11.682  0.00  0.00    +0.000 C 
BRANCH  11  14
ATOM     14  C   UNL     1      45.052   3.287   9.162  0.00  0.00    +0.000 A 
ATOM     15  C   UNL     1      45.640   4.089   8.177  0.00  0.00    +0.000 A 
ATOM     16  C   UNL     1      46.524   3.522   7.263  0.00  0.00    +0.000 A 
ATOM     17  C   UNL     1      46.758   2.157   7.314  0.00  0.00    +0.000 A 
ATOM     18  C   UNL     1      46.059   1.408   8.244  0.00  0.00    +0.000 A 
ATOM     19  N   UNL     1      45.223   1.937   9.161  0.00  0.00    +0.000 NA
ENDBRANCH  11  14
ENDBRANCH   1  11
TORSDOF 4
ENDMDL
MODEL 4
REMARK VINA RESULT:    -5.776      1.810      5.595
REMARK INTER + INTRA:          -7.487
REMARK INTER:                  -7.413
REMARK INTRA:                  -0.074
REMARK UNBOUND:                -0.361
REMARK  Name = 
REMARK  4 active torsions:
REMARK  status: ('A' for Active; 'I' for Inactive)
REMARK    1  A    between atoms: C_2  and  C_3
REMARK    2  A    between atoms: C_6  and  N_7
REMARK    3  A    between atoms: N_7  and  C_8
REMARK    4  A    between atoms: C_8  and  C_9
REMARK                            x       y       z     vdW  Elec       q    Type
REMARK                         _______ _______ _______ _____ _____    ______ ____
ROOT
ATOM      1  N   UNL     1      44.985   4.538  12.614  0.00  0.00    +0.000 N 
ATOM      2  H   UNL     1      44.476   4.351  13.474  0.00  0.00    +0.000 HD
ENDROOT
BRANCH   1   6
ATOM      3  C   UNL     1      48.442   6.881  13.385  0.00  0.00    +0.000 A 
ATOM      4  C   UNL     1      47.969   5.974  14.339  0.00  0.00    +0.000 A 
ATOM      5  C   UNL     1      46.833   5.190  14.066  0.00  0.00    +0.000 A 
ATOM      6  C   UNL     1      46.145   5.323  12.855  0.00  0.00    +0.000 A 
ATOM      7  C   UNL     1      46.675   6.190  11.887  0.00  0.00    +0.000 A 
ATOM      8  C   UNL     1      47.802   6.976  12.153  0.00  0.00    +0.000 A 
BRANCH   3  10
ATOM      9  N   UNL     1      50.499   8.370  13.905  0.00  0.00    +0.000 NA
ATOM     10  C   UNL     1      49.579   7.711  13.673  0.00  0.00    +0.000 C 
ENDBRANCH   3  10
ENDBRANCH   1   6
BRANCH   1  11
ATOM     11  C   UNL     1      44.133   4.846  11.430  0.00  0.00    +0.000 C 
ATOM     12  C   UNL     1      43.545   6.253  11.375  0.00  0.00    +0.000 C 
ATOM     13  C   UNL     1      42.629   5.096  11.562  0.00  0.00    +0.000 C 
BRANCH  11  14
ATOM     14  C   UNL     1      44.450   4.066  10.146  0.00  0.00    +0.000 A 
ATOM     15  C   UNL     1      45.139   4.710   9.111  0.00  0.00    +0.000 A 
ATOM     16  C   UNL     1      45.758   3.954   8.121  0.00  0.00    +0.000 A 
ATOM     17  C   UNL     1      45.628   2.574   8.149  0.00  0.00    +0.000 A 
ATOM     18  C   UNL     1      44.841   2.012   9.139  0.00  0.00    +0.000 A 
ATOM     19  N   UNL     1      44.259   2.719  10.130  0.00  0.00    +0.000 NA
ENDBRANCH  11  14
ENDBRANCH   1  11
TORSDOF 4
ENDMDL
MODEL 5
REMARK VINA RESULT:    -5.755      2.170      5.910
REMARK INTER + INTRA:          -7.461
REMARK INTER:                  -7.459
REMARK INTRA:                  -0.002
REMARK UNBOUND:                -0.361
REMARK  Name = 
REMARK  4 active torsions:
REMARK  status: ('A' for Active; 'I' for Inactive)
REMARK    1  A    between atoms: C_2  and  C_3
REMARK    2  A    between atoms: C_6  and  N_7
REMARK    3  A    between atoms: N_7  and  C_8
REMARK    4  A    between atoms: C_8  and  C_9
REMARK                            x       y       z     vdW  Elec       q    Type
REMARK                         _______ _______ _______ _____ _____    ______ ____
ROOT
ATOM      1  N   UNL     1      45.436   5.010  12.115  0.00  0.00    +0.000 N 
ATOM      2  H   UNL     1      45.280   4.614  13.039  0.00  0.00    +0.000 HD
ENDROOT
BRANCH   1   6
ATOM      3  C   UNL     1      47.072   8.921  12.350  0.00  0.00    +0.000 A 
ATOM      4  C   UNL     1      45.812   8.643  12.889  0.00  0.00    +0.000 A 
ATOM      5  C   UNL     1      45.287   7.339  12.821  0.00  0.00    +0.000 A 
ATOM      6  C   UNL     1      46.000   6.311  12.193  0.00  0.00    +0.000 A 
ATOM      7  C   UNL     1      47.288   6.597  11.718  0.00  0.00    +0.000 A 
ATOM      8  C   UNL     1      47.815   7.893  11.778  0.00  0.00    +0.000 A 
BRANCH   3  10
ATOM      9  N   UNL     1      48.019  11.334  12.398  0.00  0.00    +0.000 NA
ATOM     10  C   UNL     1      47.597  10.259  12.382  0.00  0.00    +0.000 C 
ENDBRANCH   3  10
ENDBRANCH   1   6
BRANCH   1  11
ATOM     11  C   UNL     1      44.354   4.745  11.125  0.00  0.00    +0.000 C 
ATOM     12  C   UNL     1      43.202   5.745  11.106  0.00  0.00    +0.000 C 
ATOM     13  C   UNL     1      42.940   4.353  11.561  0.00  0.00    +0.000 C 
BRANCH  11  14
ATOM     14  C   UNL     1      44.768   3.986   9.856  0.00  0.00    +0.000 A 
ATOM     15  C   UNL     1      45.451   4.672   8.845  0.00  0.00    +0.000 A 
ATOM     16  C   UNL     1      46.154   3.957   7.879  0.00  0.00    +0.000 A 
ATOM     17  C   UNL     1      46.112   2.572   7.908  0.00  0.00    +0.000 A 
ATOM     18  C   UNL     1      45.329   1.960   8.870  0.00  0.00    +0.000 A 
ATOM     19  N   UNL     1      44.666   2.629   9.837  0.00  0.00    +0.000 NA
ENDBRANCH  11  14
ENDBRANCH   1  11
TORSDOF 4
ENDMDL
MODEL 6
REMARK VINA RESULT:    -4.979      2.553      4.826
REMARK INTER + INTRA:          -6.504
REMARK INTER:                  -6.514
REMARK INTRA:                   0.009
REMARK UNBOUND:                -0.361
REMARK  Name = 
REMARK  4 active torsions:
REMARK  status: ('A' for Active; 'I' for Inactive)
REMARK    1  A    between atoms: C_2  and  C_3
REMARK    2  A    between atoms: C_6  and  N_7
REMARK    3  A    between atoms: N_7  and  C_8
REMARK    4  A    between atoms: C_8  and  C_9
REMARK                            x       y       z     vdW  Elec       q    Type
REMARK                         _______ _______ _______ _____ _____    ______ ____
ROOT
ATOM      1  N   UNL     1      46.523   7.023  13.589  0.00  0.00    +0.000 N 
ATOM      2  H   UNL     1      45.970   7.101  14.438  0.00  0.00    +0.000 HD
ENDROOT
BRANCH   1   6
ATOM      3  C   UNL     1      45.002   4.000  11.024  0.00  0.00    +0.000 A 
ATOM      4  C   UNL     1      45.227   3.737  12.379  0.00  0.00    +0.000 A 
ATOM      5  C   UNL     1      45.714   4.752  13.223  0.00  0.00    +0.000 A 
ATOM      6  C   UNL     1      46.007   6.024  12.720  0.00  0.00    +0.000 A 
ATOM      7  C   UNL     1      45.711   6.285  11.374  0.00  0.00    +0.000 A 
ATOM      8  C   UNL     1      45.230   5.279  10.526  0.00  0.00    +0.000 A 
BRANCH   3  10
ATOM      9  N   UNL     1      44.166   2.127   9.437  0.00  0.00    +0.000 NA
ATOM     10  C   UNL     1      44.540   2.958  10.149  0.00  0.00    +0.000 C 
ENDBRANCH   3  10
ENDBRANCH   1   6
BRANCH   1  11
ATOM     11  C   UNL     1      47.997   7.125  13.784  0.00  0.00    +0.000 C 
ATOM     12  C   UNL     1      48.698   8.249  13.028  0.00  0.00    +0.000 C 
ATOM     13  C   UNL     1      48.983   6.839  12.649  0.00  0.00    +0.000 C 
BRANCH  11  14
ATOM     14  C   UNL     1      48.540   6.612  15.126  0.00  0.00    +0.000 A 
ATOM     15  C   UNL     1      49.110   7.523  16.023  0.00  0.00    +0.000 A 
ATOM     16  C   UNL     1      49.262   7.170  17.361  0.00  0.00    +0.000 A 
ATOM     17  C   UNL     1      48.898   5.895  17.764  0.00  0.00    +0.000 A 
ATOM     18  C   UNL     1      48.443   5.010  16.803  0.00  0.00    +0.000 A 
ATOM     19  N   UNL     1      48.254   5.337  15.507  0.00  0.00    +0.000 NA
ENDBRANCH  11  14
ENDBRANCH   1  11
TORSDOF 4
ENDMDL
MODEL 7
REMARK VINA RESULT:    -4.814      2.387      6.665
REMARK INTER + INTRA:          -6.300
REMARK INTER:                  -6.447
REMARK INTRA:                   0.147
REMARK UNBOUND:                -0.361
REMARK  Name = 
REMARK  4 active torsions:
REMARK  status: ('A' for Active; 'I' for Inactive)
REMARK    1  A    between atoms: C_2  and  C_3
REMARK    2  A    between atoms: C_6  and  N_7
REMARK    3  A    between atoms: N_7  and  C_8
REMARK    4  A    between atoms: C_8  and  C_9
REMARK                            x       y       z     vdW  Elec       q    Type
REMARK                         _______ _______ _______ _____ _____    ______ ____
ROOT
ATOM      1  N   UNL     1      47.170   5.757  12.375  0.00  0.00    +0.000 N 
ATOM      2  H   UNL     1      47.693   5.140  11.760  0.00  0.00    +0.000 HD
ENDROOT
BRANCH   1   6
ATOM      3  C   UNL     1      47.959   4.916  16.461  0.00  0.00    +0.000 A 
ATOM      4  C   UNL     1      48.428   6.095  15.874  0.00  0.00    +0.000 A 
ATOM      5  C   UNL     1      48.146   6.372  14.523  0.00  0.00    +0.000 A 
ATOM      6  C   UNL     1      47.419   5.466  13.743  0.00  0.00    +0.000 A 
ATOM      7  C   UNL     1      46.902   4.322  14.370  0.00  0.00    +0.000 A 
ATOM      8  C   UNL     1      47.183   4.037  15.711  0.00  0.00    +0.000 A 
BRANCH   3  10
ATOM      9  N   UNL     1      48.524   4.368  18.932  0.00  0.00    +0.000 NA
ATOM     10  C   UNL     1      48.277   4.609  17.829  0.00  0.00    +0.000 C 
ENDBRANCH   3  10
ENDBRANCH   1   6
BRANCH   1  11
ATOM     11  C   UNL     1      45.775   6.048  11.937  0.00  0.00    +0.000 C 
ATOM     12  C   UNL     1      45.382   7.521  11.883  0.00  0.00    +0.000 C 
ATOM     13  C   UNL     1      44.736   6.640  12.893  0.00  0.00    +0.000 C 
BRANCH  11  14
ATOM     14  C   UNL     1      45.132   5.019  10.996  0.00  0.00    +0.000 A 
ATOM     15  C   UNL     1      45.337   5.138   9.616  0.00  0.00    +0.000 A 
ATOM     16  C   UNL     1      45.096   4.047   8.786  0.00  0.00    +0.000 A 
ATOM     17  C   UNL     1      44.599   2.878   9.342  0.00  0.00    +0.000 A 
ATOM     18  C   UNL     1      44.317   2.867  10.696  0.00  0.00    +0.000 A 
ATOM     19  N   UNL     1      44.573   3.898  11.527  0.00  0.00    +0.000 NA
ENDBRANCH  11  14
ENDBRANCH   1  11
TORSDOF 4
ENDMDL
MODEL 8
REMARK VINA RESULT:    -4.792      2.732      4.876
REMARK INTER + INTRA:          -6.274
REMARK INTER:                  -5.944
REMARK INTRA:                  -0.330
REMARK UNBOUND:                -0.361
REMARK  Name = 
REMARK  4 active torsions:
REMARK  status: ('A' for Active; 'I' for Inactive)
REMARK    1  A    between atoms: C_2  and  C_3
REMARK    2  A    between atoms: C_6  and  N_7
REMARK    3  A    between atoms: N_7  and  C_8
REMARK    4  A    between atoms: C_8  and  C_9
REMARK                            x       y       z     vdW  Elec       q    Type
REMARK                         _______ _______ _______ _____ _____    ______ ____
ROOT
ATOM      1  N   UNL     1      46.025   7.465  13.305  0.00  0.00    +0.000 N 
ATOM      2  H   UNL     1      45.667   7.387  14.254  0.00  0.00    +0.000 HD
ENDROOT
BRANCH   1   6
ATOM      3  C   UNL     1      44.796   4.162  10.936  0.00  0.00    +0.000 A 
ATOM      4  C   UNL     1      44.764   4.088  12.332  0.00  0.00    +0.000 A 
ATOM      5  C   UNL     1      45.157   5.194  13.107  0.00  0.00    +0.000 A 
ATOM      6  C   UNL     1      45.610   6.371  12.500  0.00  0.00    +0.000 A 
ATOM      7  C   UNL     1      45.570   6.447  11.100  0.00  0.00    +0.000 A 
ATOM      8  C   UNL     1      45.185   5.348  10.321  0.00  0.00    +0.000 A 
BRANCH   3  10
ATOM      9  N   UNL     1      44.138   2.113   9.491  0.00  0.00    +0.000 NA
ATOM     10  C   UNL     1      44.433   3.023  10.139  0.00  0.00    +0.000 C 
ENDBRANCH   3  10
ENDBRANCH   1   6
BRANCH   1  11
ATOM     11  C   UNL     1      47.429   7.952  13.200  0.00  0.00    +0.000 C 
ATOM     12  C   UNL     1      48.519   6.937  13.530  0.00  0.00    +0.000 C 
ATOM     13  C   UNL     1      48.326   8.105  14.432  0.00  0.00    +0.000 C 
BRANCH  11  14
ATOM     14  C   UNL     1      47.679   9.087  12.196  0.00  0.00    +0.000 A 
ATOM     15  C   UNL     1      46.725  10.103  12.065  0.00  0.00    +0.000 A 
ATOM     16  C   UNL     1      47.077  11.307  11.463  0.00  0.00    +0.000 A 
ATOM     17  C   UNL     1      48.357  11.452  10.951  0.00  0.00    +0.000 A 
ATOM     18  C   UNL     1      49.215  10.368  11.018  0.00  0.00    +0.000 A 
ATOM     19  N   UNL     1      48.909   9.203  11.625  0.00  0.00    +0.000 NA
ENDBRANCH  11  14
ENDBRANCH   1  11
TORSDOF 4
ENDMDL
MODEL 9
REMARK VINA RESULT:    -4.763      3.346      6.879
REMARK INTER + INTRA:          -6.237
REMARK INTER:                  -6.244
REMARK INTRA:                   0.007
REMARK UNBOUND:                -0.361
REMARK  Name = 
REMARK  4 active torsions:
REMARK  status: ('A' for Active; 'I' for Inactive)
REMARK    1  A    between atoms: C_2  and  C_3
REMARK    2  A    between atoms: C_6  and  N_7
REMARK    3  A    between atoms: N_7  and  C_8
REMARK    4  A    between atoms: C_8  and  C_9
REMARK                            x       y       z     vdW  Elec       q    Type
REMARK                         _______ _______ _______ _____ _____    ______ ____
ROOT
ATOM      1  N   UNL     1      47.422   6.159  12.765  0.00  0.00    +0.000 N 
ATOM      2  H   UNL     1      47.577   5.380  12.131  0.00  0.00    +0.000 HD
ENDROOT
BRANCH   1   6
ATOM      3  C   UNL     1      48.133   5.036  16.798  0.00  0.00    +0.000 A 
ATOM      4  C   UNL     1      47.313   4.257  15.976  0.00  0.00    +0.000 A 
ATOM      5  C   UNL     1      47.098   4.629  14.636  0.00  0.00    +0.000 A 
ATOM      6  C   UNL     1      47.675   5.792  14.114  0.00  0.00    +0.000 A 
ATOM      7  C   UNL     1      48.546   6.522  14.936  0.00  0.00    +0.000 A 
ATOM      8  C   UNL     1      48.761   6.161  16.272  0.00  0.00    +0.000 A 
BRANCH   3  10
ATOM      9  N   UNL     1      48.478   4.408  19.290  0.00  0.00    +0.000 NA
ATOM     10  C   UNL     1      48.325   4.682  18.178  0.00  0.00    +0.000 C 
ENDBRANCH   3  10
ENDBRANCH   1   6
BRANCH   1  11
ATOM     11  C   UNL     1      46.231   6.999  12.453  0.00  0.00    +0.000 C 
ATOM     12  C   UNL     1      46.516   8.363  11.833  0.00  0.00    +0.000 C 
ATOM     13  C   UNL     1      45.941   8.301  13.204  0.00  0.00    +0.000 C 
BRANCH  11  14
ATOM     14  C   UNL     1      44.931   6.242  12.143  0.00  0.00    +0.000 A 
ATOM     15  C   UNL     1      44.725   5.741  10.853  0.00  0.00    +0.000 A 
ATOM     16  C   UNL     1      43.766   4.755  10.640  0.00  0.00    +0.000 A 
ATOM     17  C   UNL     1      42.991   4.332  11.708  0.00  0.00    +0.000 A 
ATOM     18  C   UNL     1      43.173   4.948  12.933  0.00  0.00    +0.000 A 
ATOM     19  N   UNL     1      44.118   5.882  13.173  0.00  0.00    +0.000 NA
ENDBRANCH  11  14
ENDBRANCH   1  11
TORSDOF 4
ENDMDL
