MODEL 1
REMARK VINA RESULT:    -7.356      0.000      0.000
REMARK INTER + INTRA:         -11.444
REMARK INTER:                 -10.367
REMARK INTRA:                  -1.078
REMARK UNBOUND:                -1.078
REMARK  Name = 
REMARK  7 active torsions:
REMARK  status: ('A' for Active; 'I' for Inactive)
REMARK    1  A    between atoms: C_2  and  C_3
REMARK    2  A    between atoms: C_7  and  C_8
REMARK    3  A    between atoms: N_10  and  C_11
REMARK    4  A    between atoms: C_11  and  C_12
REMARK    5  A    between atoms: C_15  and  C_16
REMARK    6  A    between atoms: C_16  and  N_17
REMARK    7  A    between atoms: C_18  and  C_20
REMARK                            x       y       z     vdW  Elec       q    Type
REMARK                         _______ _______ _______ _____ _____    ______ ____
ROOT
ATOM      1  C   UNL     1      51.284   3.841  18.039  0.00  0.00    +0.000 A 
ATOM      2  C   UNL     1      50.836   2.676  17.403  0.00  0.00    +0.000 A 
ATOM      3  C   UNL     1      49.487   2.525  17.051  0.00  0.00    +0.000 A 
ATOM      4  C   UNL     1      48.559   3.544  17.308  0.00  0.00    +0.000 A 
ATOM      5  C   UNL     1      49.004   4.697  17.969  0.00  0.00    +0.000 A 
ATOM      6  C   UNL     1      50.352   4.850  18.316  0.00  0.00    +0.000 A 
ENDROOT
BRANCH   1   7
ATOM      7  C   UNL     1      52.731   4.003  18.435  0.00  0.00    +0.000 C 
BRANCH   7  10
ATOM      8  C   UNL     1      54.228   2.058  18.635  0.00  0.00    +0.000 C 
ATOM      9  O   UNL     1      54.137   2.041  19.859  0.00  0.00    +0.000 OA
ATOM     10  N   UNL     1      53.596   2.996  17.853  0.00  0.00    +0.000 N 
ATOM     11  H   UNL     1      53.802   3.057  16.864  0.00  0.00    +0.000 HD
BRANCH   8  16
ATOM     12  C   UNL     1      54.189  -0.195  17.485  0.00  0.00    +0.000 C 
ATOM     13  C   UNL     1      54.931  -0.825  16.307  0.00  0.00    +0.000 C 
ATOM     14  C   UNL     1      55.775   0.288  15.689  0.00  0.00    +0.000 C 
ATOM     15  C   UNL     1      55.516   1.540  16.517  0.00  0.00    +0.000 C 
ATOM     16  C   UNL     1      55.043   1.025  17.872  0.00  0.00    +0.000 C 
BRANCH  12  18
ATOM     17  N   UNL     1      53.991  -1.951  19.632  0.00  0.00    +0.000 NA
ATOM     18  C   UNL     1      54.081  -1.154  18.658  0.00  0.00    +0.000 C 
ENDBRANCH  12  18
ENDBRANCH   8  16
ENDBRANCH   7  10
ENDBRANCH   1   7
BRANCH   4  19
ATOM     19  C   UNL     1      47.113   3.416  16.888  0.00  0.00    +0.000 C 
BRANCH  19  20
ATOM     20  N   UNL     1      46.755   4.391  15.891  0.00  0.00    +0.000 N 
ATOM     21  C   UNL     1      46.901   4.138  14.549  0.00  0.00    +0.000 C 
ATOM     22  O   UNL     1      47.299   3.060  14.119  0.00  0.00    +0.000 OA
ATOM     23  H   UNL     1      46.703   5.354  16.203  0.00  0.00    +0.000 HD
BRANCH  21  24
ATOM     24  C   UNL     1      46.495   5.224  13.641  0.00  0.00    +0.000 A 
ATOM     25  C   UNL     1      47.365   6.269  13.367  0.00  0.00    +0.000 A 
ATOM     26  S   UNL     1      46.743   7.401  12.249  0.00  0.00    +0.000 S 
ATOM     27  C   UNL     1      45.268   6.557  12.135  0.00  0.00    +0.000 A 
ATOM     28  N   UNL     1      44.260   7.014  11.344  0.00  0.00    +0.000 NA
ATOM     29  C   UNL     1      43.192   6.290  11.373  0.00  0.00    +0.000 A 
ATOM     30  N   UNL     1      43.045   5.146  12.115  0.00  0.00    +0.000 N 
ATOM     31  C   UNL     1      44.043   4.633  12.903  0.00  0.00    +0.000 A 
ATOM     32  O   UNL     1      43.893   3.581  13.508  0.00  0.00    +0.000 OA
ATOM     33  C   UNL     1      45.260   5.419  12.920  0.00  0.00    +0.000 A 
ATOM     34  H   UNL     1      42.186   4.614  12.083  0.00  0.00    +0.000 HD
ENDBRANCH  21  24
ENDBRANCH  19  20
ENDBRANCH   4  19
TORSDOF 7
ENDMDL
MODEL 2
REMARK VINA RESULT:    -7.176      3.303      5.112
REMARK INTER + INTRA:         -11.190
REMARK INTER:                  -9.909
REMARK INTRA:                  -1.281
REMARK UNBOUND:                -1.078
REMARK  Name = 
REMARK  7 active torsions:
REMARK  status: ('A' for Active; 'I' for Inactive)
REMARK    1  A    between atoms: C_2  and  C_3
REMARK    2  A    between atoms: C_7  and  C_8
REMARK    3  A    between atoms: N_10  and  C_11
REMARK    4  A    between atoms: C_11  and  C_12
REMARK    5  A    between atoms: C_15  and  C_16
REMARK    6  A    between atoms: C_16  and  N_17
REMARK    7  A    between atoms: C_18  and  C_20
REMARK                            x       y       z     vdW  Elec       q    Type
REMARK                         _______ _______ _______ _____ _____    ______ ____
ROOT
ATOM      1  C   UNL     1      50.304   7.361  15.146  0.00  0.00    +0.000 A 
ATOM      2  C   UNL     1      49.037   6.773  15.247  0.00  0.00    +0.000 A 
ATOM      3  C   UNL     1      48.090   6.925  14.223  0.00  0.00    +0.000 A 
ATOM      4  C   UNL     1      48.398   7.653  13.065  0.00  0.00    +0.000 A 
ATOM      5  C   UNL     1      49.656   8.263  12.977  0.00  0.00    +0.000 A 
ATOM      6  C   UNL     1      50.602   8.107  13.997  0.00  0.00    +0.000 A 
ENDROOT
BRANCH   1   7
ATOM      7  C   UNL     1      51.320   7.214  16.251  0.00  0.00    +0.000 C 
BRANCH   7  10
ATOM      8  C   UNL     1      50.888   5.446  17.910  0.00  0.00    +0.000 C 
ATOM      9  O   UNL     1      50.283   6.212  18.654  0.00  0.00    +0.000 OA
ATOM     10  N   UNL     1      51.454   5.851  16.723  0.00  0.00    +0.000 N 
ATOM     11  H   UNL     1      52.055   5.223  16.206  0.00  0.00    +0.000 HD
BRANCH   8  16
ATOM     12  C   UNL     1      50.376   3.080  17.176  0.00  0.00    +0.000 C 
ATOM     13  C   UNL     1      51.077   1.728  17.306  0.00  0.00    +0.000 C 
ATOM     14  C   UNL     1      52.440   2.012  17.933  0.00  0.00    +0.000 C 
ATOM     15  C   UNL     1      52.508   3.516  18.163  0.00  0.00    +0.000 C 
ATOM     16  C   UNL     1      51.053   3.969  18.234  0.00  0.00    +0.000 C 
BRANCH  12  18
ATOM     17  N   UNL     1      47.652   2.876  17.694  0.00  0.00    +0.000 NA
ATOM     18  C   UNL     1      48.887   2.969  17.460  0.00  0.00    +0.000 C 
ENDBRANCH  12  18
ENDBRANCH   8  16
ENDBRANCH   7  10
ENDBRANCH   1   7
BRANCH   4  19
ATOM     19  C   UNL     1      47.407   7.781  11.931  0.00  0.00    +0.000 C 
BRANCH  19  20
ATOM     20  N   UNL     1      46.726   6.540  11.668  0.00  0.00    +0.000 N 
ATOM     21  C   UNL     1      45.356   6.455  11.667  0.00  0.00    +0.000 C 
ATOM     22  O   UNL     1      44.632   7.430  11.844  0.00  0.00    +0.000 OA
ATOM     23  H   UNL     1      47.268   5.694  11.802  0.00  0.00    +0.000 HD
BRANCH  21  24
ATOM     24  C   UNL     1      44.794   5.125  11.382  0.00  0.00    +0.000 A 
ATOM     25  C   UNL     1      44.019   4.474  12.333  0.00  0.00    +0.000 A 
ATOM     26  S   UNL     1      43.407   2.970  11.802  0.00  0.00    +0.000 S 
ATOM     27  C   UNL     1      44.201   3.116  10.302  0.00  0.00    +0.000 A 
ATOM     28  N   UNL     1      44.110   2.135   9.364  0.00  0.00    +0.000 NA
ATOM     29  C   UNL     1      44.781   2.367   8.286  0.00  0.00    +0.000 A 
ATOM     30  N   UNL     1      45.528   3.494   8.060  0.00  0.00    +0.000 N 
ATOM     31  C   UNL     1      45.625   4.521   8.963  0.00  0.00    +0.000 A 
ATOM     32  O   UNL     1      46.257   5.535   8.704  0.00  0.00    +0.000 OA
ATOM     33  C   UNL     1      44.902   4.303  10.201  0.00  0.00    +0.000 A 
ATOM     34  H   UNL     1      46.020   3.623   7.186  0.00  0.00    +0.000 HD
ENDBRANCH  21  24
ENDBRANCH  19  20
ENDBRANCH   4  19
TORSDOF 7
ENDMDL
MODEL 3
REMARK VINA RESULT:    -6.917      3.207      4.985
REMARK INTER + INTRA:         -10.826
REMARK INTER:                  -9.614
REMARK INTRA:                  -1.212
REMARK UNBOUND:                -1.078
REMARK  Name = 
REMARK  7 active torsions:
REMARK  status: ('A' for Active; 'I' for Inactive)
REMARK    1  A    between atoms: C_2  and  C_3
REMARK    2  A    between atoms: C_7  and  C_8
REMARK    3  A    between atoms: N_10  and  C_11
REMARK    4  A    between atoms: C_11  and  C_12
REMARK    5  A    between atoms: C_15  and  C_16
REMARK    6  A    between atoms: C_16  and  N_17
REMARK    7  A    between atoms: C_18  and  C_20
REMARK                            x       y       z     vdW  Elec       q    Type
REMARK                         _______ _______ _______ _____ _____    ______ ____
ROOT
ATOM      1  C   UNL     1      50.304   7.447  15.412  0.00  0.00    +0.000 A 
ATOM      2  C   UNL     1      49.043   6.871  15.211  0.00  0.00    +0.000 A 
ATOM      3  C   UNL     1      48.289   7.175  14.068  0.00  0.00    +0.000 A 
ATOM      4  C   UNL     1      48.789   8.047  13.090  0.00  0.00    +0.000 A 
ATOM      5  C   UNL     1      50.038   8.643  13.307  0.00  0.00    +0.000 A 
ATOM      6  C   UNL     1      50.793   8.335  14.445  0.00  0.00    +0.000 A 
ENDROOT
BRANCH   1   7
ATOM      7  C   UNL     1      51.112   7.136  16.648  0.00  0.00    +0.000 C 
BRANCH   7  10
ATOM      8  C   UNL     1      50.397   5.191  17.978  0.00  0.00    +0.000 C 
ATOM      9  O   UNL     1      49.685   5.878  18.705  0.00  0.00    +0.000 OA
ATOM     10  N   UNL     1      51.154   5.722  16.959  0.00  0.00    +0.000 N 
ATOM     11  H   UNL     1      51.826   5.145  16.471  0.00  0.00    +0.000 HD
BRANCH   8  16
ATOM     12  C   UNL     1      49.760   2.948  16.999  0.00  0.00    +0.000 C 
ATOM     13  C   UNL     1      50.394   1.558  16.968  0.00  0.00    +0.000 C 
ATOM     14  C   UNL     1      51.778   1.705  17.598  0.00  0.00    +0.000 C 
ATOM     15  C   UNL     1      51.923   3.170  17.990  0.00  0.00    +0.000 C 
ATOM     16  C   UNL     1      50.493   3.681  18.136  0.00  0.00    +0.000 C 
BRANCH  12  18
ATOM     17  N   UNL     1      47.036   2.820  17.540  0.00  0.00    +0.000 NA
ATOM     18  C   UNL     1      48.271   2.878  17.295  0.00  0.00    +0.000 C 
ENDBRANCH  12  18
ENDBRANCH   8  16
ENDBRANCH   7  10
ENDBRANCH   1   7
BRANCH   4  19
ATOM     19  C   UNL     1      48.011   8.343  11.829  0.00  0.00    +0.000 C 
BRANCH  19  20
ATOM     20  N   UNL     1      47.371   7.166  11.303  0.00  0.00    +0.000 N 
ATOM     21  C   UNL     1      46.004   7.029  11.295  0.00  0.00    +0.000 C 
ATOM     22  O   UNL     1      45.249   7.912  11.690  0.00  0.00    +0.000 OA
ATOM     23  H   UNL     1      47.945   6.332  11.242  0.00  0.00    +0.000 HD
BRANCH  21  24
ATOM     24  C   UNL     1      45.486   5.774  10.726  0.00  0.00    +0.000 A 
ATOM     25  C   UNL     1      45.690   5.476   9.386  0.00  0.00    +0.000 A 
ATOM     26  S   UNL     1      45.068   3.954   8.923  0.00  0.00    +0.000 S 
ATOM     27  C   UNL     1      44.460   3.667  10.488  0.00  0.00    +0.000 A 
ATOM     28  N   UNL     1      43.779   2.525  10.776  0.00  0.00    +0.000 NA
ATOM     29  C   UNL     1      43.354   2.451  11.992  0.00  0.00    +0.000 A 
ATOM     30  N   UNL     1      43.556   3.413  12.948  0.00  0.00    +0.000 N 
ATOM     31  C   UNL     1      44.261   4.565  12.713  0.00  0.00    +0.000 A 
ATOM     32  O   UNL     1      44.467   5.374  13.605  0.00  0.00    +0.000 OA
ATOM     33  C   UNL     1      44.746   4.705  11.354  0.00  0.00    +0.000 A 
ATOM     34  H   UNL     1      43.211   3.288  13.890  0.00  0.00    +0.000 HD
ENDBRANCH  21  24
ENDBRANCH  19  20
ENDBRANCH   4  19
TORSDOF 7
ENDMDL
MODEL 4
REMARK VINA RESULT:    -6.816      4.634      9.924
REMARK INTER + INTRA:         -10.683
REMARK INTER:                  -9.760
REMARK INTRA:                  -0.923
REMARK UNBOUND:                -1.078
REMARK  Name = 
REMARK  7 active torsions:
REMARK  status: ('A' for Active; 'I' for Inactive)
REMARK    1  A    between atoms: C_2  and  C_3
REMARK    2  A    between atoms: C_7  and  C_8
REMARK    3  A    between atoms: N_10  and  C_11
REMARK    4  A    between atoms: C_11  and  C_12
REMARK    5  A    between atoms: C_15  and  C_16
REMARK    6  A    between atoms: C_16  and  N_17
REMARK    7  A    between atoms: C_18  and  C_20
REMARK                            x       y       z     vdW  Elec       q    Type
REMARK                         _______ _______ _______ _____ _____    ______ ____
ROOT
ATOM      1  C   UNL     1      45.241   4.700  11.621  0.00  0.00    +0.000 A 
ATOM      2  C   UNL     1      45.765   5.864  11.044  0.00  0.00    +0.000 A 
ATOM      3  C   UNL     1      46.775   6.593  11.688  0.00  0.00    +0.000 A 
ATOM      4  C   UNL     1      47.299   6.162  12.915  0.00  0.00    +0.000 A 
ATOM      5  C   UNL     1      46.755   5.013  13.504  0.00  0.00    +0.000 A 
ATOM      6  C   UNL     1      45.750   4.282  12.858  0.00  0.00    +0.000 A 
ENDROOT
BRANCH   1   7
ATOM      7  C   UNL     1      44.143   3.921  10.940  0.00  0.00    +0.000 C 
BRANCH   7  10
ATOM      8  C   UNL     1      44.778   3.276   8.650  0.00  0.00    +0.000 C 
ATOM      9  O   UNL     1      44.452   4.366   8.191  0.00  0.00    +0.000 OA
ATOM     10  N   UNL     1      44.640   2.956   9.981  0.00  0.00    +0.000 N 
ATOM     11  H   UNL     1      44.795   2.007  10.295  0.00  0.00    +0.000 HD
BRANCH   8  16
ATOM     12  C   UNL     1      46.831   2.510   7.386  0.00  0.00    +0.000 C 
ATOM     13  C   UNL     1      47.449   1.156   7.039  0.00  0.00    +0.000 C 
ATOM     14  C   UNL     1      46.620   0.106   7.775  0.00  0.00    +0.000 C 
ATOM     15  C   UNL     1      45.533   0.862   8.530  0.00  0.00    +0.000 C 
ATOM     16  C   UNL     1      45.380   2.182   7.782  0.00  0.00    +0.000 C 
BRANCH  12  18
ATOM     17  N   UNL     1      46.865   4.240   5.210  0.00  0.00    +0.000 NA
ATOM     18  C   UNL     1      46.849   3.456   6.197  0.00  0.00    +0.000 C 
ENDBRANCH  12  18
ENDBRANCH   8  16
ENDBRANCH   7  10
ENDBRANCH   1   7
BRANCH   4  19
ATOM     19  C   UNL     1      48.424   6.908  13.595  0.00  0.00    +0.000 C 
BRANCH  19  20
ATOM     20  N   UNL     1      48.261   6.939  15.025  0.00  0.00    +0.000 N 
ATOM     21  C   UNL     1      49.336   6.849  15.876  0.00  0.00    +0.000 C 
ATOM     22  O   UNL     1      50.494   6.784  15.474  0.00  0.00    +0.000 OA
ATOM     23  H   UNL     1      47.340   6.706  15.377  0.00  0.00    +0.000 HD
BRANCH  21  24
ATOM     24  C   UNL     1      49.025   6.895  17.314  0.00  0.00    +0.000 A 
ATOM     25  C   UNL     1      48.742   8.105  17.931  0.00  0.00    +0.000 A 
ATOM     26  S   UNL     1      48.348   7.953  19.586  0.00  0.00    +0.000 S 
ATOM     27  C   UNL     1      48.594   6.268  19.544  0.00  0.00    +0.000 A 
ATOM     28  N   UNL     1      48.442   5.510  20.664  0.00  0.00    +0.000 NA
ATOM     29  C   UNL     1      48.684   4.254  20.492  0.00  0.00    +0.000 A 
ATOM     30  N   UNL     1      49.056   3.687  19.300  0.00  0.00    +0.000 N 
ATOM     31  C   UNL     1      49.192   4.406  18.141  0.00  0.00    +0.000 A 
ATOM     32  O   UNL     1      49.473   3.856  17.085  0.00  0.00    +0.000 OA
ATOM     33  C   UNL     1      48.948   5.827  18.283  0.00  0.00    +0.000 A 
ATOM     34  H   UNL     1      49.217   2.691  19.227  0.00  0.00    +0.000 HD
ENDBRANCH  21  24
ENDBRANCH  19  20
ENDBRANCH   4  19
TORSDOF 7
ENDMDL
MODEL 5
REMARK VINA RESULT:    -6.665      3.451      9.904
REMARK INTER + INTRA:         -10.470
REMARK INTER:                  -9.372
REMARK INTRA:                  -1.098
REMARK UNBOUND:                -1.078
REMARK  Name = 
REMARK  7 active torsions:
REMARK  status: ('A' for Active; 'I' for Inactive)
REMARK    1  A    between atoms: C_2  and  C_3
REMARK    2  A    between atoms: C_7  and  C_8
REMARK    3  A    between atoms: N_10  and  C_11
REMARK    4  A    between atoms: C_11  and  C_12
REMARK    5  A    between atoms: C_15  and  C_16
REMARK    6  A    between atoms: C_16  and  N_17
REMARK    7  A    between atoms: C_18  and  C_20
REMARK                            x       y       z     vdW  Elec       q    Type
REMARK                         _______ _______ _______ _____ _____    ______ ____
ROOT
ATOM      1  C   UNL     1      48.534   7.160  12.951  0.00  0.00    +0.000 A 
ATOM      2  C   UNL     1      48.152   6.524  14.139  0.00  0.00    +0.000 A 
ATOM      3  C   UNL     1      48.921   6.658  15.305  0.00  0.00    +0.000 A 
ATOM      4  C   UNL     1      50.078   7.450  15.313  0.00  0.00    +0.000 A 
ATOM      5  C   UNL     1      50.474   8.063  14.117  0.00  0.00    +0.000 A 
ATOM      6  C   UNL     1      49.703   7.932  12.955  0.00  0.00    +0.000 A 
ENDROOT
BRANCH   1   7
ATOM      7  C   UNL     1      47.721   7.005  11.690  0.00  0.00    +0.000 C 
BRANCH   7  10
ATOM      8  C   UNL     1      45.757   5.769  10.864  0.00  0.00    +0.000 C 
ATOM      9  O   UNL     1      46.127   5.848   9.696  0.00  0.00    +0.000 OA
ATOM     10  N   UNL     1      46.459   6.326  11.907  0.00  0.00    +0.000 N 
ATOM     11  H   UNL     1      46.055   6.354  12.834  0.00  0.00    +0.000 HD
BRANCH   8  16
ATOM     12  C   UNL     1      44.748   3.524  11.449  0.00  0.00    +0.000 C 
ATOM     13  C   UNL     1      43.609   3.048  12.348  0.00  0.00    +0.000 C 
ATOM     14  C   UNL     1      43.119   4.281  13.106  0.00  0.00    +0.000 C 
ATOM     15  C   UNL     1      43.974   5.450  12.633  0.00  0.00    +0.000 C 
ATOM     16  C   UNL     1      44.489   5.029  11.260  0.00  0.00    +0.000 C 
BRANCH  12  18
ATOM     17  N   UNL     1      44.722   2.230   8.988  0.00  0.00    +0.000 NA
ATOM     18  C   UNL     1      44.734   2.817  10.104  0.00  0.00    +0.000 C 
ENDBRANCH  12  18
ENDBRANCH   8  16
ENDBRANCH   7  10
ENDBRANCH   1   7
BRANCH   4  19
ATOM     19  C   UNL     1      50.887   7.646  16.575  0.00  0.00    +0.000 C 
BRANCH  19  20
ATOM     20  N   UNL     1      51.600   6.453  16.948  0.00  0.00    +0.000 N 
ATOM     21  C   UNL     1      51.623   6.002  18.245  0.00  0.00    +0.000 C 
ATOM     22  O   UNL     1      51.008   6.558  19.150  0.00  0.00    +0.000 OA
ATOM     23  H   UNL     1      52.327   6.147  16.312  0.00  0.00    +0.000 HD
BRANCH  21  24
ATOM     24  C   UNL     1      52.390   4.769  18.485  0.00  0.00    +0.000 A 
ATOM     25  C   UNL     1      53.602   4.819  19.160  0.00  0.00    +0.000 A 
ATOM     26  S   UNL     1      54.316   3.285  19.395  0.00  0.00    +0.000 S 
ATOM     27  C   UNL     1      53.054   2.509  18.555  0.00  0.00    +0.000 A 
ATOM     28  N   UNL     1      53.061   1.162  18.369  0.00  0.00    +0.000 NA
ATOM     29  C   UNL     1      52.056   0.713  17.695  0.00  0.00    +0.000 A 
ATOM     30  N   UNL     1      51.042   1.489  17.197  0.00  0.00    +0.000 N 
ATOM     31  C   UNL     1      50.977   2.846  17.385  0.00  0.00    +0.000 A 
ATOM     32  O   UNL     1      50.028   3.497  16.973  0.00  0.00    +0.000 OA
ATOM     33  C   UNL     1      52.093   3.404  18.123  0.00  0.00    +0.000 A 
ATOM     34  H   UNL     1      50.272   1.074  16.689  0.00  0.00    +0.000 HD
ENDBRANCH  21  24
ENDBRANCH  19  20
ENDBRANCH   4  19
TORSDOF 7
ENDMDL
MODEL 6
REMARK VINA RESULT:    -6.662      2.397      3.367
REMARK INTER + INTRA:         -10.466
REMARK INTER:                  -9.405
REMARK INTRA:                  -1.061
REMARK UNBOUND:                -1.078
REMARK  Name = 
REMARK  7 active torsions:
REMARK  status: ('A' for Active; 'I' for Inactive)
REMARK    1  A    between atoms: C_2  and  C_3
REMARK    2  A    between atoms: C_7  and  C_8
REMARK    3  A    between atoms: N_10  and  C_11
REMARK    4  A    between atoms: C_11  and  C_12
REMARK    5  A    between atoms: C_15  and  C_16
REMARK    6  A    between atoms: C_16  and  N_17
REMARK    7  A    between atoms: C_18  and  C_20
REMARK                            x       y       z     vdW  Elec       q    Type
REMARK                         _______ _______ _______ _____ _____    ______ ____
ROOT
ATOM      1  C   UNL     1      48.973   4.731  17.371  0.00  0.00    +0.000 A 
ATOM      2  C   UNL     1      47.936   4.248  16.561  0.00  0.00    +0.000 A 
ATOM      3  C   UNL     1      47.558   4.930  15.396  0.00  0.00    +0.000 A 
ATOM      4  C   UNL     1      48.224   6.100  15.002  0.00  0.00    +0.000 A 
ATOM      5  C   UNL     1      49.242   6.596  15.826  0.00  0.00    +0.000 A 
ATOM      6  C   UNL     1      49.622   5.912  16.988  0.00  0.00    +0.000 A 
ENDROOT
BRANCH   1   7
ATOM      7  C   UNL     1      49.372   4.010  18.635  0.00  0.00    +0.000 C 
BRANCH   7  10
ATOM      8  C   UNL     1      51.504   2.923  18.053  0.00  0.00    +0.000 C 
ATOM      9  O   UNL     1      50.958   2.134  17.287  0.00  0.00    +0.000 OA
ATOM     10  N   UNL     1      50.806   3.862  18.776  0.00  0.00    +0.000 N 
ATOM     11  H   UNL     1      51.274   4.403  19.492  0.00  0.00    +0.000 HD
BRANCH   8  16
ATOM     12  C   UNL     1      53.704   1.847  17.423  0.00  0.00    +0.000 C 
ATOM     13  C   UNL     1      55.148   2.329  17.285  0.00  0.00    +0.000 C 
ATOM     14  C   UNL     1      55.113   3.843  17.478  0.00  0.00    +0.000 C 
ATOM     15  C   UNL     1      53.657   4.216  17.731  0.00  0.00    +0.000 C 
ATOM     16  C   UNL     1      53.011   2.938  18.257  0.00  0.00    +0.000 C 
BRANCH  12  18
ATOM     17  N   UNL     1      53.563  -0.600  18.737  0.00  0.00    +0.000 NA
ATOM     18  C   UNL     1      53.626   0.509  18.141  0.00  0.00    +0.000 C 
ENDBRANCH  12  18
ENDBRANCH   8  16
ENDBRANCH   7  10
ENDBRANCH   1   7
BRANCH   4  19
ATOM     19  C   UNL     1      47.863   6.816  13.721  0.00  0.00    +0.000 C 
BRANCH  19  20
ATOM     20  N   UNL     1      47.195   5.947  12.788  0.00  0.00    +0.000 N 
ATOM     21  C   UNL     1      46.283   6.426  11.880  0.00  0.00    +0.000 C 
ATOM     22  O   UNL     1      46.016   7.620  11.778  0.00  0.00    +0.000 OA
ATOM     23  H   UNL     1      47.173   4.962  13.028  0.00  0.00    +0.000 HD
BRANCH  21  24
ATOM     24  C   UNL     1      45.677   5.426  10.986  0.00  0.00    +0.000 A 
ATOM     25  C   UNL     1      45.816   5.542   9.610  0.00  0.00    +0.000 A 
ATOM     26  S   UNL     1      45.097   4.260   8.740  0.00  0.00    +0.000 S 
ATOM     27  C   UNL     1      44.531   3.535  10.173  0.00  0.00    +0.000 A 
ATOM     28  N   UNL     1      43.801   2.387  10.136  0.00  0.00    +0.000 NA
ATOM     29  C   UNL     1      43.418   1.963  11.293  0.00  0.00    +0.000 A 
ATOM     30  N   UNL     1      43.706   2.579  12.484  0.00  0.00    +0.000 N 
ATOM     31  C   UNL     1      44.463   3.719  12.572  0.00  0.00    +0.000 A 
ATOM     32  O   UNL     1      44.744   4.209  13.656  0.00  0.00    +0.000 OA
ATOM     33  C   UNL     1      44.905   4.247  11.297  0.00  0.00    +0.000 A 
ATOM     34  H   UNL     1      43.388   2.187  13.360  0.00  0.00    +0.000 HD
ENDBRANCH  21  24
ENDBRANCH  19  20
ENDBRANCH   4  19
TORSDOF 7
ENDMDL
MODEL 7
REMARK VINA RESULT:    -6.655      3.125     10.430
REMARK INTER + INTRA:         -10.456
REMARK INTER:                  -9.352
REMARK INTRA:                  -1.104
REMARK UNBOUND:                -1.078
REMARK  Name = 
REMARK  7 active torsions:
REMARK  status: ('A' for Active; 'I' for Inactive)
REMARK    1  A    between atoms: C_2  and  C_3
REMARK    2  A    between atoms: C_7  and  C_8
REMARK    3  A    between atoms: N_10  and  C_11
REMARK    4  A    between atoms: C_11  and  C_12
REMARK    5  A    between atoms: C_15  and  C_16
REMARK    6  A    between atoms: C_16  and  N_17
REMARK    7  A    between atoms: C_18  and  C_20
REMARK                            x       y       z     vdW  Elec       q    Type
REMARK                         _______ _______ _______ _____ _____    ______ ____
ROOT
ATOM      1  C   UNL     1      48.850   3.756  17.226  0.00  0.00    +0.000 A 
ATOM      2  C   UNL     1      49.343   2.449  17.118  0.00  0.00    +0.000 A 
ATOM      3  C   UNL     1      50.699   2.172  17.343  0.00  0.00    +0.000 A 
ATOM      4  C   UNL     1      51.589   3.194  17.702  0.00  0.00    +0.000 A 
ATOM      5  C   UNL     1      51.101   4.504  17.783  0.00  0.00    +0.000 A 
ATOM      6  C   UNL     1      49.745   4.780  17.563  0.00  0.00    +0.000 A 
ENDROOT
BRANCH   1   7
ATOM      7  C   UNL     1      47.395   4.063  16.969  0.00  0.00    +0.000 C 
BRANCH   7  10
ATOM      8  C   UNL     1      47.134   4.239  14.526  0.00  0.00    +0.000 C 
ATOM      9  O   UNL     1      47.311   3.036  14.363  0.00  0.00    +0.000 OA
ATOM     10  N   UNL     1      47.182   4.838  15.763  0.00  0.00    +0.000 N 
ATOM     11  H   UNL     1      47.164   5.847  15.841  0.00  0.00    +0.000 HD
BRANCH   8  16
ATOM     12  C   UNL     1      45.336   5.529  13.302  0.00  0.00    +0.000 C 
ATOM     13  C   UNL     1      45.284   6.837  12.514  0.00  0.00    +0.000 C 
ATOM     14  C   UNL     1      46.659   7.484  12.668  0.00  0.00    +0.000 C 
ATOM     15  C   UNL     1      47.487   6.542  13.534  0.00  0.00    +0.000 C 
ATOM     16  C   UNL     1      46.832   5.175  13.366  0.00  0.00    +0.000 C 
BRANCH  12  18
ATOM     17  N   UNL     1      43.923   3.504  12.023  0.00  0.00    +0.000 NA
ATOM     18  C   UNL     1      44.564   4.423  12.603  0.00  0.00    +0.000 C 
ENDBRANCH  12  18
ENDBRANCH   8  16
ENDBRANCH   7  10
ENDBRANCH   1   7
BRANCH   4  19
ATOM     19  C   UNL     1      53.042   2.902  17.999  0.00  0.00    +0.000 C 
BRANCH  19  20
ATOM     20  N   UNL     1      53.361   1.511  17.808  0.00  0.00    +0.000 N 
ATOM     21  C   UNL     1      54.140   0.820  18.703  0.00  0.00    +0.000 C 
ATOM     22  O   UNL     1      54.572   1.326  19.734  0.00  0.00    +0.000 OA
ATOM     23  H   UNL     1      53.272   1.156  16.862  0.00  0.00    +0.000 HD
BRANCH  21  24
ATOM     24  C   UNL     1      54.387  -0.596  18.383  0.00  0.00    +0.000 A 
ATOM     25  C   UNL     1      54.128  -1.582  19.325  0.00  0.00    +0.000 A 
ATOM     26  S   UNL     1      54.419  -3.165  18.755  0.00  0.00    +0.000 S 
ATOM     27  C   UNL     1      54.950  -2.581  17.246  0.00  0.00    +0.000 A 
ATOM     28  N   UNL     1      55.377  -3.435  16.276  0.00  0.00    +0.000 NA
ATOM     29  C   UNL     1      55.774  -2.854  15.194  0.00  0.00    +0.000 A 
ATOM     30  N   UNL     1      55.775  -1.498  14.992  0.00  0.00    +0.000 N 
ATOM     31  C   UNL     1      55.327  -0.602  15.929  0.00  0.00    +0.000 A 
ATOM     32  O   UNL     1      55.293   0.597  15.692  0.00  0.00    +0.000 OA
ATOM     33  C   UNL     1      54.885  -1.203  17.172  0.00  0.00    +0.000 A 
ATOM     34  H   UNL     1      56.085  -1.105  14.114  0.00  0.00    +0.000 HD
ENDBRANCH  21  24
ENDBRANCH  19  20
ENDBRANCH   4  19
TORSDOF 7
ENDMDL
MODEL 8
REMARK VINA RESULT:    -6.548      5.596      9.849
REMARK INTER + INTRA:         -10.305
REMARK INTER:                  -9.428
REMARK INTRA:                  -0.877
REMARK UNBOUND:                -1.078
REMARK  Name = 
REMARK  7 active torsions:
REMARK  status: ('A' for Active; 'I' for Inactive)
REMARK    1  A    between atoms: C_2  and  C_3
REMARK    2  A    between atoms: C_7  and  C_8
REMARK    3  A    between atoms: N_10  and  C_11
REMARK    4  A    between atoms: C_11  and  C_12
REMARK    5  A    between atoms: C_15  and  C_16
REMARK    6  A    between atoms: C_16  and  N_17
REMARK    7  A    between atoms: C_18  and  C_20
REMARK                            x       y       z     vdW  Elec       q    Type
REMARK                         _______ _______ _______ _____ _____    ______ ____
ROOT
ATOM      1  C   UNL     1      45.201   4.863  11.762  0.00  0.00    +0.000 A 
ATOM      2  C   UNL     1      45.792   4.150  12.812  0.00  0.00    +0.000 A 
ATOM      3  C   UNL     1      46.876   4.686  13.523  0.00  0.00    +0.000 A 
ATOM      4  C   UNL     1      47.379   5.957  13.213  0.00  0.00    +0.000 A 
ATOM      5  C   UNL     1      46.804   6.657  12.144  0.00  0.00    +0.000 A 
ATOM      6  C   UNL     1      45.719   6.124  11.438  0.00  0.00    +0.000 A 
ENDROOT
BRANCH   1   7
ATOM      7  C   UNL     1      44.046   4.284  10.983  0.00  0.00    +0.000 C 
BRANCH   7  10
ATOM      8  C   UNL     1      44.971   3.622   8.798  0.00  0.00    +0.000 C 
ATOM      9  O   UNL     1      45.075   4.787   8.425  0.00  0.00    +0.000 OA
ATOM     10  N   UNL     1      44.454   3.276  10.025  0.00  0.00    +0.000 N 
ATOM     11  H   UNL     1      44.261   2.306  10.241  0.00  0.00    +0.000 HD
BRANCH   8  16
ATOM     12  C   UNL     1      46.853   2.656   7.413  0.00  0.00    +0.000 C 
ATOM     13  C   UNL     1      47.342   1.248   7.077  0.00  0.00    +0.000 C 
ATOM     14  C   UNL     1      46.501   0.292   7.920  0.00  0.00    +0.000 C 
ATOM     15  C   UNL     1      45.537   1.155   8.724  0.00  0.00    +0.000 C 
ATOM     16  C   UNL     1      45.420   2.454   7.934  0.00  0.00    +0.000 C 
BRANCH  12  18
ATOM     17  N   UNL     1      46.836   4.298   5.168  0.00  0.00    +0.000 NA
ATOM     18  C   UNL     1      46.844   3.553   6.186  0.00  0.00    +0.000 C 
ENDBRANCH  12  18
ENDBRANCH   8  16
ENDBRANCH   7  10
ENDBRANCH   1   7
BRANCH   4  19
ATOM     19  C   UNL     1      48.512   6.569  14.004  0.00  0.00    +0.000 C 
BRANCH  19  20
ATOM     20  N   UNL     1      48.150   6.789  15.380  0.00  0.00    +0.000 N 
ATOM     21  C   UNL     1      48.890   6.269  16.413  0.00  0.00    +0.000 C 
ATOM     22  O   UNL     1      49.921   5.629  16.231  0.00  0.00    +0.000 OA
ATOM     23  H   UNL     1      47.186   7.052  15.554  0.00  0.00    +0.000 HD
BRANCH  21  24
ATOM     24  C   UNL     1      48.405   6.572  17.769  0.00  0.00    +0.000 A 
ATOM     25  C   UNL     1      48.226   5.552  18.693  0.00  0.00    +0.000 A 
ATOM     26  S   UNL     1      47.715   6.102  20.227  0.00  0.00    +0.000 S 
ATOM     27  C   UNL     1      47.667   7.718  19.691  0.00  0.00    +0.000 A 
ATOM     28  N   UNL     1      47.278   8.720  20.525  0.00  0.00    +0.000 NA
ATOM     29  C   UNL     1      47.265   9.890  19.979  0.00  0.00    +0.000 A 
ATOM     30  N   UNL     1      47.613  10.148  18.679  0.00  0.00    +0.000 N 
ATOM     31  C   UNL     1      48.039   9.175  17.812  0.00  0.00    +0.000 A 
ATOM     32  O   UNL     1      48.393   9.451  16.675  0.00  0.00    +0.000 OA
ATOM     33  C   UNL     1      48.056   7.837  18.371  0.00  0.00    +0.000 A 
ATOM     34  H   UNL     1      47.596  11.091  18.314  0.00  0.00    +0.000 HD
ENDBRANCH  21  24
ENDBRANCH  19  20
ENDBRANCH   4  19
TORSDOF 7
ENDMDL
MODEL 9
REMARK VINA RESULT:    -6.147      2.420      4.239
REMARK INTER + INTRA:          -9.741
REMARK INTER:                  -8.706
REMARK INTRA:                  -1.035
REMARK UNBOUND:                -1.078
REMARK  Name = 
REMARK  7 active torsions:
REMARK  status: ('A' for Active; 'I' for Inactive)
REMARK    1  A    between atoms: C_2  and  C_3
REMARK    2  A    between atoms: C_7  and  C_8
REMARK    3  A    between atoms: N_10  and  C_11
REMARK    4  A    between atoms: C_11  and  C_12
REMARK    5  A    between atoms: C_15  and  C_16
REMARK    6  A    between atoms: C_16  and  N_17
REMARK    7  A    between atoms: C_18  and  C_20
REMARK                            x       y       z     vdW  Elec       q    Type
REMARK                         _______ _______ _______ _____ _____    ______ ____
ROOT
ATOM      1  C   UNL     1      51.355   3.368  17.904  0.00  0.00    +0.000 A 
ATOM      2  C   UNL     1      50.786   2.244  17.290  0.00  0.00    +0.000 A 
ATOM      3  C   UNL     1      49.418   2.208  16.985  0.00  0.00    +0.000 A 
ATOM      4  C   UNL     1      48.591   3.304  17.268  0.00  0.00    +0.000 A 
ATOM      5  C   UNL     1      49.155   4.416  17.907  0.00  0.00    +0.000 A 
ATOM      6  C   UNL     1      50.523   4.454  18.207  0.00  0.00    +0.000 A 
ENDROOT
BRANCH   1   7
ATOM      7  C   UNL     1      52.823   3.406  18.250  0.00  0.00    +0.000 C 
BRANCH   7  10
ATOM      8  C   UNL     1      53.778   5.631  18.698  0.00  0.00    +0.000 C 
ATOM      9  O   UNL     1      53.472   5.586  19.886  0.00  0.00    +0.000 OA
ATOM     10  N   UNL     1      53.479   4.622  17.813  0.00  0.00    +0.000 N 
ATOM     11  H   UNL     1      53.628   4.754  16.821  0.00  0.00    +0.000 HD
BRANCH   8  16
ATOM     12  C   UNL     1      53.596   8.006  17.848  0.00  0.00    +0.000 C 
ATOM     13  C   UNL     1      54.525   9.218  17.807  0.00  0.00    +0.000 C 
ATOM     14  C   UNL     1      55.775   8.825  18.591  0.00  0.00    +0.000 C 
ATOM     15  C   UNL     1      55.556   7.395  19.069  0.00  0.00    +0.000 C 
ATOM     16  C   UNL     1      54.531   6.811  18.103  0.00  0.00    +0.000 C 
BRANCH  12  18
ATOM     17  N   UNL     1      52.243   7.670  15.442  0.00  0.00    +0.000 NA
ATOM     18  C   UNL     1      52.856   7.822  16.533  0.00  0.00    +0.000 C 
ENDBRANCH  12  18
ENDBRANCH   8  16
ENDBRANCH   7  10
ENDBRANCH   1   7
BRANCH   4  19
ATOM     19  C   UNL     1      47.126   3.300  16.898  0.00  0.00    +0.000 C 
BRANCH  19  20
ATOM     20  N   UNL     1      46.816   4.307  15.916  0.00  0.00    +0.000 N 
ATOM     21  C   UNL     1      46.898   4.051  14.569  0.00  0.00    +0.000 C 
ATOM     22  O   UNL     1      47.194   2.947  14.123  0.00  0.00    +0.000 OA
ATOM     23  H   UNL     1      46.852   5.269  16.233  0.00  0.00    +0.000 HD
BRANCH  21  24
ATOM     24  C   UNL     1      46.553   5.171  13.679  0.00  0.00    +0.000 A 
ATOM     25  C   UNL     1      47.476   6.178  13.431  0.00  0.00    +0.000 A 
ATOM     26  S   UNL     1      46.919   7.359  12.330  0.00  0.00    +0.000 S 
ATOM     27  C   UNL     1      45.406   6.590  12.188  0.00  0.00    +0.000 A 
ATOM     28  N   UNL     1      44.428   7.109  11.397  0.00  0.00    +0.000 NA
ATOM     29  C   UNL     1      43.326   6.437  11.404  0.00  0.00    +0.000 A 
ATOM     30  N   UNL     1      43.118   5.289  12.123  0.00  0.00    +0.000 N 
ATOM     31  C   UNL     1      44.082   4.713  12.910  0.00  0.00    +0.000 A 
ATOM     32  O   UNL     1      43.877   3.659  13.494  0.00  0.00    +0.000 OA
ATOM     33  C   UNL     1      45.336   5.439  12.951  0.00  0.00    +0.000 A 
ATOM     34  H   UNL     1      42.234   4.799  12.074  0.00  0.00    +0.000 HD
ENDBRANCH  21  24
ENDBRANCH  19  20
ENDBRANCH   4  19
TORSDOF 7
ENDMDL
