MODEL 1
REMARK VINA RESULT:    -8.122      0.000      0.000
REMARK INTER + INTRA:         -10.694
REMARK INTER:                 -10.497
REMARK INTRA:                  -0.197
REMARK UNBOUND:                -0.197
REMARK  Name = 
REMARK  6 active torsions:
REMARK  status: ('A' for Active; 'I' for Inactive)
REMARK    1  A    between atoms: C_1  and  C_2
REMARK    2  A    between atoms: C_2  and  N_3
REMARK    3  A    between atoms: C_2  and  C_16
REMARK    4  A    between atoms: C_4  and  C_6
REMARK    5  A    between atoms: C_19  and  O_20
REMARK    6  A    between atoms: O_20  and  C_21
REMARK                            x       y       z     vdW  Elec       q    Type
REMARK                         _______ _______ _______ _____ _____    ______ ____
ROOT
ATOM      1  C   UNL     1      46.059   8.101  12.174  0.00  0.00    +0.000 C 
ATOM      2  C   UNL     1      45.240   6.856  12.534  0.00  0.00    +0.000 C 
ENDROOT
BRANCH   2   3
ATOM      3  C   UNL     1      45.067   5.895  11.370  0.00  0.00    +0.000 A 
ATOM      4  C   UNL     1      44.126   4.857  11.472  0.00  0.00    +0.000 A 
ATOM      5  C   UNL     1      43.957   3.941  10.430  0.00  0.00    +0.000 A 
ATOM      6  C   UNL     1      44.692   4.081   9.252  0.00  0.00    +0.000 A 
ATOM      7  C   UNL     1      45.672   5.067   9.165  0.00  0.00    +0.000 A 
ATOM      8  C   UNL     1      45.866   5.962  10.219  0.00  0.00    +0.000 A 
BRANCH   6   9
ATOM      9  O   UNL     1      44.590   3.246   8.166  0.00  0.00    +0.000 OA
BRANCH   9  10
ATOM     10  C   UNL     1      45.718   2.726   7.575  0.00  0.00    +0.000 A 
ATOM     11  C   UNL     1      46.440   3.327   6.548  0.00  0.00    +0.000 A 
ATOM     12  C   UNL     1      47.545   2.657   6.053  0.00  0.00    +0.000 A 
ATOM     13  N   UNL     1      47.992   1.480   6.539  0.00  0.00    +0.000 NA
ATOM     14  C   UNL     1      47.306   0.951   7.575  0.00  0.00    +0.000 A 
ATOM     15  C   UNL     1      46.176   1.531   8.121  0.00  0.00    +0.000 A 
ENDBRANCH   9  10
ENDBRANCH   6   9
ENDBRANCH   2   3
BRANCH   2  16
ATOM     16  N   UNL     1      45.836   6.140  13.645  0.00  0.00    +0.000 N 
ATOM     17  C   UNL     1      47.180   5.903  13.752  0.00  0.00    +0.000 C 
ATOM     18  O   UNL     1      47.975   6.315  12.910  0.00  0.00    +0.000 OA
ATOM     19  H   UNL     1      45.196   5.790  14.351  0.00  0.00    +0.000 HD
BRANCH  17  20
ATOM     20  C   UNL     1      47.636   5.126  14.917  0.00  0.00    +0.000 A 
ATOM     21  C   UNL     1      47.365   3.764  14.971  0.00  0.00    +0.000 A 
ATOM     22  S   UNL     1      47.910   3.004  16.395  0.00  0.00    +0.000 S 
ATOM     23  C   UNL     1      48.529   4.466  17.002  0.00  0.00    +0.000 A 
ATOM     24  N   UNL     1      49.115   4.512  18.230  0.00  0.00    +0.000 NA
ATOM     25  C   UNL     1      49.542   5.681  18.574  0.00  0.00    +0.000 A 
ATOM     26  N   UNL     1      49.453   6.803  17.793  0.00  0.00    +0.000 N 
ATOM     27  C   UNL     1      48.880   6.803  16.544  0.00  0.00    +0.000 A 
ATOM     28  O   UNL     1      48.848   7.823  15.866  0.00  0.00    +0.000 OA
ATOM     29  C   UNL     1      48.348   5.516  16.117  0.00  0.00    +0.000 A 
ATOM     30  H   UNL     1      49.820   7.687  18.115  0.00  0.00    +0.000 HD
ENDBRANCH  17  20
ENDBRANCH   2  16
TORSDOF 5
ENDMDL
MODEL 2
REMARK VINA RESULT:    -7.923      1.467      2.232
REMARK INTER + INTRA:         -10.436
REMARK INTER:                 -10.392
REMARK INTRA:                  -0.045
REMARK UNBOUND:                -0.197
REMARK  Name = 
REMARK  6 active torsions:
REMARK  status: ('A' for Active; 'I' for Inactive)
REMARK    1  A    between atoms: C_1  and  C_2
REMARK    2  A    between atoms: C_2  and  N_3
REMARK    3  A    between atoms: C_2  and  C_16
REMARK    4  A    between atoms: C_4  and  C_6
REMARK    5  A    between atoms: C_19  and  O_20
REMARK    6  A    between atoms: O_20  and  C_21
REMARK                            x       y       z     vdW  Elec       q    Type
REMARK                         _______ _______ _______ _____ _____    ______ ____
ROOT
ATOM      1  C   UNL     1      47.227   8.579  12.082  0.00  0.00    +0.000 C 
ATOM      2  C   UNL     1      46.297   7.578  12.777  0.00  0.00    +0.000 C 
ENDROOT
BRANCH   2   3
ATOM      3  C   UNL     1      45.880   6.424  11.880  0.00  0.00    +0.000 A 
ATOM      4  C   UNL     1      46.240   6.446  10.523  0.00  0.00    +0.000 A 
ATOM      5  C   UNL     1      45.853   5.413   9.664  0.00  0.00    +0.000 A 
ATOM      6  C   UNL     1      45.142   4.321  10.163  0.00  0.00    +0.000 A 
ATOM      7  C   UNL     1      44.725   4.320  11.492  0.00  0.00    +0.000 A 
ATOM      8  C   UNL     1      45.082   5.367  12.342  0.00  0.00    +0.000 A 
BRANCH   6   9
ATOM      9  O   UNL     1      44.729   3.250   9.408  0.00  0.00    +0.000 OA
BRANCH   9  10
ATOM     10  C   UNL     1      45.522   2.758   8.398  0.00  0.00    +0.000 A 
ATOM     11  C   UNL     1      45.955   3.479   7.289  0.00  0.00    +0.000 A 
ATOM     12  C   UNL     1      46.736   2.825   6.353  0.00  0.00    +0.000 A 
ATOM     13  N   UNL     1      47.142   1.543   6.476  0.00  0.00    +0.000 NA
ATOM     14  C   UNL     1      46.757   0.888   7.592  0.00  0.00    +0.000 A 
ATOM     15  C   UNL     1      45.956   1.447   8.570  0.00  0.00    +0.000 A 
ENDBRANCH   9  10
ENDBRANCH   6   9
ENDBRANCH   2   3
BRANCH   2  16
ATOM     16  N   UNL     1      46.908   7.038  13.975  0.00  0.00    +0.000 N 
ATOM     17  C   UNL     1      48.240   6.738  14.069  0.00  0.00    +0.000 C 
ATOM     18  O   UNL     1      49.012   6.936  13.133  0.00  0.00    +0.000 OA
ATOM     19  H   UNL     1      46.287   6.867  14.760  0.00  0.00    +0.000 HD
BRANCH  17  20
ATOM     20  C   UNL     1      48.712   6.158  15.339  0.00  0.00    +0.000 A 
ATOM     21  C   UNL     1      49.801   6.734  15.982  0.00  0.00    +0.000 A 
ATOM     22  S   UNL     1      50.264   5.933  17.413  0.00  0.00    +0.000 S 
ATOM     23  C   UNL     1      49.029   4.780  17.231  0.00  0.00    +0.000 A 
ATOM     24  N   UNL     1      48.890   3.767  18.129  0.00  0.00    +0.000 NA
ATOM     25  C   UNL     1      47.915   2.960  17.877  0.00  0.00    +0.000 A 
ATOM     26  N   UNL     1      47.055   3.085  16.819  0.00  0.00    +0.000 N 
ATOM     27  C   UNL     1      47.148   4.097  15.893  0.00  0.00    +0.000 A 
ATOM     28  O   UNL     1      46.338   4.189  14.978  0.00  0.00    +0.000 OA
ATOM     29  C   UNL     1      48.253   5.019  16.108  0.00  0.00    +0.000 A 
ATOM     30  H   UNL     1      46.301   2.426  16.685  0.00  0.00    +0.000 HD
ENDBRANCH  17  20
ENDBRANCH   2  16
TORSDOF 5
ENDMDL
MODEL 3
REMARK VINA RESULT:    -7.842      2.016      3.146
REMARK INTER + INTRA:         -10.331
REMARK INTER:                  -9.128
REMARK INTRA:                  -1.203
REMARK UNBOUND:                -0.197
REMARK  Name = 
REMARK  6 active torsions:
REMARK  status: ('A' for Active; 'I' for Inactive)
REMARK    1  A    between atoms: C_1  and  C_2
REMARK    2  A    between atoms: C_2  and  N_3
REMARK    3  A    between atoms: C_2  and  C_16
REMARK    4  A    between atoms: C_4  and  C_6
REMARK    5  A    between atoms: C_19  and  O_20
REMARK    6  A    between atoms: O_20  and  C_21
REMARK                            x       y       z     vdW  Elec       q    Type
REMARK                         _______ _______ _______ _____ _____    ______ ____
ROOT
ATOM      1  C   UNL     1      48.082   9.150  12.935  0.00  0.00    +0.000 C 
ATOM      2  C   UNL     1      47.256   8.149  13.750  0.00  0.00    +0.000 C 
ENDROOT
BRANCH   2   3
ATOM      3  C   UNL     1      46.393   7.242  12.889  0.00  0.00    +0.000 A 
ATOM      4  C   UNL     1      45.335   7.799  12.152  0.00  0.00    +0.000 A 
ATOM      5  C   UNL     1      44.506   6.991  11.369  0.00  0.00    +0.000 A 
ATOM      6  C   UNL     1      44.756   5.621  11.274  0.00  0.00    +0.000 A 
ATOM      7  C   UNL     1      45.761   5.049  12.050  0.00  0.00    +0.000 A 
ATOM      8  C   UNL     1      46.568   5.850  12.860  0.00  0.00    +0.000 A 
BRANCH   6   9
ATOM      9  O   UNL     1      44.013   4.743  10.522  0.00  0.00    +0.000 OA
BRANCH   9  10
ATOM     10  C   UNL     1      44.629   3.864   9.662  0.00  0.00    +0.000 A 
ATOM     11  C   UNL     1      44.519   2.477   9.711  0.00  0.00    +0.000 A 
ATOM     12  C   UNL     1      45.223   1.736   8.778  0.00  0.00    +0.000 A 
ATOM     13  N   UNL     1      45.971   2.280   7.795  0.00  0.00    +0.000 NA
ATOM     14  C   UNL     1      46.010   3.628   7.736  0.00  0.00    +0.000 A 
ATOM     15  C   UNL     1      45.363   4.453   8.637  0.00  0.00    +0.000 A 
ENDBRANCH   9  10
ENDBRANCH   6   9
ENDBRANCH   2   3
BRANCH   2  16
ATOM     16  N   UNL     1      48.106   7.326  14.588  0.00  0.00    +0.000 N 
ATOM     17  C   UNL     1      48.576   7.729  15.808  0.00  0.00    +0.000 C 
ATOM     18  O   UNL     1      48.277   8.822  16.283  0.00  0.00    +0.000 OA
ATOM     19  H   UNL     1      48.365   6.419  14.213  0.00  0.00    +0.000 HD
BRANCH  17  20
ATOM     20  C   UNL     1      49.463   6.799  16.529  0.00  0.00    +0.000 A 
ATOM     21  C   UNL     1      50.679   7.265  17.016  0.00  0.00    +0.000 A 
ATOM     22  S   UNL     1      51.620   6.071  17.785  0.00  0.00    +0.000 S 
ATOM     23  C   UNL     1      50.442   4.880  17.497  0.00  0.00    +0.000 A 
ATOM     24  N   UNL     1      50.649   3.593  17.889  0.00  0.00    +0.000 NA
ATOM     25  C   UNL     1      49.679   2.788  17.610  0.00  0.00    +0.000 A 
ATOM     26  N   UNL     1      48.514   3.157  16.993  0.00  0.00    +0.000 N 
ATOM     27  C   UNL     1      48.255   4.445  16.590  0.00  0.00    +0.000 A 
ATOM     28  O   UNL     1      47.186   4.739  16.068  0.00  0.00    +0.000 OA
ATOM     29  C   UNL     1      49.331   5.392  16.847  0.00  0.00    +0.000 A 
ATOM     30  H   UNL     1      47.786   2.480  16.816  0.00  0.00    +0.000 HD
ENDBRANCH  17  20
ENDBRANCH   2  16
TORSDOF 5
ENDMDL
MODEL 4
REMARK VINA RESULT:    -7.656      4.027      8.700
REMARK INTER + INTRA:         -10.091
REMARK INTER:                  -9.488
REMARK INTRA:                  -0.604
REMARK UNBOUND:                -0.197
REMARK  Name = 
REMARK  6 active torsions:
REMARK  status: ('A' for Active; 'I' for Inactive)
REMARK    1  A    between atoms: C_1  and  C_2
REMARK    2  A    between atoms: C_2  and  N_3
REMARK    3  A    between atoms: C_2  and  C_16
REMARK    4  A    between atoms: C_4  and  C_6
REMARK    5  A    between atoms: C_19  and  O_20
REMARK    6  A    between atoms: O_20  and  C_21
REMARK                            x       y       z     vdW  Elec       q    Type
REMARK                         _______ _______ _______ _____ _____    ______ ____
ROOT
ATOM      1  C   UNL     1      48.154   6.555  18.221  0.00  0.00    +0.000 C 
ATOM      2  C   UNL     1      48.860   6.091  16.942  0.00  0.00    +0.000 C 
ENDROOT
BRANCH   2   3
ATOM      3  C   UNL     1      49.571   4.757  17.100  0.00  0.00    +0.000 A 
ATOM      4  C   UNL     1      48.822   3.570  17.041  0.00  0.00    +0.000 A 
ATOM      5  C   UNL     1      49.439   2.327  17.205  0.00  0.00    +0.000 A 
ATOM      6  C   UNL     1      50.821   2.252  17.383  0.00  0.00    +0.000 A 
ATOM      7  C   UNL     1      51.564   3.424  17.507  0.00  0.00    +0.000 A 
ATOM      8  C   UNL     1      50.943   4.667  17.377  0.00  0.00    +0.000 A 
BRANCH   6   9
ATOM      9  O   UNL     1      51.525   1.083  17.538  0.00  0.00    +0.000 OA
BRANCH   9  10
ATOM     10  C   UNL     1      52.886   1.106  17.733  0.00  0.00    +0.000 A 
ATOM     11  C   UNL     1      53.540   1.746  18.782  0.00  0.00    +0.000 A 
ATOM     12  C   UNL     1      54.922   1.687  18.819  0.00  0.00    +0.000 A 
ATOM     13  N   UNL     1      55.670   1.004  17.927  0.00  0.00    +0.000 NA
ATOM     14  C   UNL     1      55.004   0.343  16.956  0.00  0.00    +0.000 A 
ATOM     15  C   UNL     1      53.628   0.364  16.820  0.00  0.00    +0.000 A 
ENDBRANCH   9  10
ENDBRANCH   6   9
ENDBRANCH   2   3
BRANCH   2  16
ATOM     16  N   UNL     1      47.931   5.995  15.834  0.00  0.00    +0.000 N 
ATOM     17  C   UNL     1      48.244   6.372  14.556  0.00  0.00    +0.000 C 
ATOM     18  O   UNL     1      49.360   6.796  14.266  0.00  0.00    +0.000 OA
ATOM     19  H   UNL     1      47.003   5.648  16.053  0.00  0.00    +0.000 HD
BRANCH  17  20
ATOM     20  C   UNL     1      47.183   6.254  13.540  0.00  0.00    +0.000 A 
ATOM     21  C   UNL     1      46.747   7.397  12.881  0.00  0.00    +0.000 A 
ATOM     22  S   UNL     1      45.487   7.118  11.769  0.00  0.00    +0.000 S 
ATOM     23  C   UNL     1      45.469   5.456  12.125  0.00  0.00    +0.000 A 
ATOM     24  N   UNL     1      44.574   4.629  11.519  0.00  0.00    +0.000 NA
ATOM     25  C   UNL     1      44.664   3.392  11.876  0.00  0.00    +0.000 A 
ATOM     26  N   UNL     1      45.580   2.904  12.770  0.00  0.00    +0.000 N 
ATOM     27  C   UNL     1      46.509   3.698  13.398  0.00  0.00    +0.000 A 
ATOM     28  O   UNL     1      47.331   3.216  14.169  0.00  0.00    +0.000 OA
ATOM     29  C   UNL     1      46.432   5.112  13.059  0.00  0.00    +0.000 A 
ATOM     30  H   UNL     1      45.608   1.921  12.997  0.00  0.00    +0.000 HD
ENDBRANCH  17  20
ENDBRANCH   2  16
TORSDOF 5
ENDMDL
MODEL 5
REMARK VINA RESULT:    -7.554      3.509      5.876
REMARK INTER + INTRA:          -9.959
REMARK INTER:                  -8.839
REMARK INTRA:                  -1.120
REMARK UNBOUND:                -0.197
REMARK  Name = 
REMARK  6 active torsions:
REMARK  status: ('A' for Active; 'I' for Inactive)
REMARK    1  A    between atoms: C_1  and  C_2
REMARK    2  A    between atoms: C_2  and  N_3
REMARK    3  A    between atoms: C_2  and  C_16
REMARK    4  A    between atoms: C_4  and  C_6
REMARK    5  A    between atoms: C_19  and  O_20
REMARK    6  A    between atoms: O_20  and  C_21
REMARK                            x       y       z     vdW  Elec       q    Type
REMARK                         _______ _______ _______ _____ _____    ______ ____
ROOT
ATOM      1  C   UNL     1      50.306   7.698  15.190  0.00  0.00    +0.000 C 
ATOM      2  C   UNL     1      49.608   6.693  16.114  0.00  0.00    +0.000 C 
ENDROOT
BRANCH   2   3
ATOM      3  C   UNL     1      48.508   5.906  15.421  0.00  0.00    +0.000 A 
ATOM      4  C   UNL     1      48.081   6.302  14.143  0.00  0.00    +0.000 A 
ATOM      5  C   UNL     1      47.056   5.615  13.487  0.00  0.00    +0.000 A 
ATOM      6  C   UNL     1      46.477   4.493  14.081  0.00  0.00    +0.000 A 
ATOM      7  C   UNL     1      46.847   4.130  15.374  0.00  0.00    +0.000 A 
ATOM      8  C   UNL     1      47.847   4.836  16.044  0.00  0.00    +0.000 A 
BRANCH   6   9
ATOM      9  O   UNL     1      45.476   3.741  13.516  0.00  0.00    +0.000 OA
BRANCH   9  10
ATOM     10  C   UNL     1      44.589   4.308  12.630  0.00  0.00    +0.000 A 
ATOM     11  C   UNL     1      43.537   5.152  12.972  0.00  0.00    +0.000 A 
ATOM     12  C   UNL     1      42.726   5.622  11.955  0.00  0.00    +0.000 A 
ATOM     13  N   UNL     1      42.923   5.350  10.647  0.00  0.00    +0.000 NA
ATOM     14  C   UNL     1      43.987   4.578  10.342  0.00  0.00    +0.000 A 
ATOM     15  C   UNL     1      44.840   4.040  11.288  0.00  0.00    +0.000 A 
ENDBRANCH   9  10
ENDBRANCH   6   9
ENDBRANCH   2   3
BRANCH   2  16
ATOM     16  N   UNL     1      50.558   5.760  16.687  0.00  0.00    +0.000 N 
ATOM     17  C   UNL     1      50.669   5.533  18.032  0.00  0.00    +0.000 C 
ATOM     18  O   UNL     1      49.938   6.098  18.843  0.00  0.00    +0.000 OA
ATOM     19  H   UNL     1      51.171   5.283  16.034  0.00  0.00    +0.000 HD
BRANCH  17  20
ATOM     20  C   UNL     1      51.708   4.584  18.471  0.00  0.00    +0.000 A 
ATOM     21  C   UNL     1      52.708   5.026  19.329  0.00  0.00    +0.000 A 
ATOM     22  S   UNL     1      53.865   3.836  19.715  0.00  0.00    +0.000 S 
ATOM     23  C   UNL     1      53.078   2.681  18.748  0.00  0.00    +0.000 A 
ATOM     24  N   UNL     1      53.588   1.426  18.617  0.00  0.00    +0.000 NA
ATOM     25  C   UNL     1      52.898   0.646  17.855  0.00  0.00    +0.000 A 
ATOM     26  N   UNL     1      51.733   1.001  17.228  0.00  0.00    +0.000 N 
ATOM     27  C   UNL     1      51.174   2.252  17.339  0.00  0.00    +0.000 A 
ATOM     28  O   UNL     1      50.114   2.519  16.785  0.00  0.00    +0.000 OA
ATOM     29  C   UNL     1      51.930   3.187  18.160  0.00  0.00    +0.000 A 
ATOM     30  H   UNL     1      51.231   0.339  16.655  0.00  0.00    +0.000 HD
ENDBRANCH  17  20
ENDBRANCH   2  16
TORSDOF 5
ENDMDL
MODEL 6
REMARK VINA RESULT:    -7.422      2.292      3.642
REMARK INTER + INTRA:          -9.789
REMARK INTER:                  -8.653
REMARK INTRA:                  -1.135
REMARK UNBOUND:                -0.197
REMARK  Name = 
REMARK  6 active torsions:
REMARK  status: ('A' for Active; 'I' for Inactive)
REMARK    1  A    between atoms: C_1  and  C_2
REMARK    2  A    between atoms: C_2  and  N_3
REMARK    3  A    between atoms: C_2  and  C_16
REMARK    4  A    between atoms: C_4  and  C_6
REMARK    5  A    between atoms: C_19  and  O_20
REMARK    6  A    between atoms: O_20  and  C_21
REMARK                            x       y       z     vdW  Elec       q    Type
REMARK                         _______ _______ _______ _____ _____    ______ ____
ROOT
ATOM      1  C   UNL     1      49.751   7.717  13.433  0.00  0.00    +0.000 C 
ATOM      2  C   UNL     1      48.321   7.969  13.925  0.00  0.00    +0.000 C 
ENDROOT
BRANCH   2   3
ATOM      3  C   UNL     1      47.270   7.220  13.121  0.00  0.00    +0.000 A 
ATOM      4  C   UNL     1      46.435   7.936  12.249  0.00  0.00    +0.000 A 
ATOM      5  C   UNL     1      45.442   7.283  11.513  0.00  0.00    +0.000 A 
ATOM      6  C   UNL     1      45.305   5.897  11.603  0.00  0.00    +0.000 A 
ATOM      7  C   UNL     1      46.085   5.186  12.512  0.00  0.00    +0.000 A 
ATOM      8  C   UNL     1      47.053   5.842  13.273  0.00  0.00    +0.000 A 
BRANCH   6   9
ATOM      9  O   UNL     1      44.374   5.159  10.912  0.00  0.00    +0.000 OA
BRANCH   9  10
ATOM     10  C   UNL     1      44.772   4.209  10.001  0.00  0.00    +0.000 A 
ATOM     11  C   UNL     1      44.485   2.849  10.076  0.00  0.00    +0.000 A 
ATOM     12  C   UNL     1      44.980   2.025   9.081  0.00  0.00    +0.000 A 
ATOM     13  N   UNL     1      45.683   2.468   8.017  0.00  0.00    +0.000 NA
ATOM     14  C   UNL     1      45.893   3.799   7.940  0.00  0.00    +0.000 A 
ATOM     15  C   UNL     1      45.462   4.700   8.897  0.00  0.00    +0.000 A 
ENDBRANCH   9  10
ENDBRANCH   6   9
ENDBRANCH   2   3
BRANCH   2  16
ATOM     16  N   UNL     1      48.176   7.615  15.323  0.00  0.00    +0.000 N 
ATOM     17  C   UNL     1      48.564   8.434  16.348  0.00  0.00    +0.000 C 
ATOM     18  O   UNL     1      49.041   9.547  16.138  0.00  0.00    +0.000 OA
ATOM     19  H   UNL     1      47.784   6.699  15.518  0.00  0.00    +0.000 HD
BRANCH  17  20
ATOM     20  C   UNL     1      48.391   7.924  17.720  0.00  0.00    +0.000 A 
ATOM     21  C   UNL     1      47.957   8.792  18.716  0.00  0.00    +0.000 A 
ATOM     22  S   UNL     1      47.848   8.077  20.258  0.00  0.00    +0.000 S 
ATOM     23  C   UNL     1      48.379   6.577  19.661  0.00  0.00    +0.000 A 
ATOM     24  N   UNL     1      48.538   5.516  20.498  0.00  0.00    +0.000 NA
ATOM     25  C   UNL     1      48.947   4.437  19.920  0.00  0.00    +0.000 A 
ATOM     26  N   UNL     1      49.193   4.318  18.578  0.00  0.00    +0.000 N 
ATOM     27  C   UNL     1      49.036   5.357  17.692  0.00  0.00    +0.000 A 
ATOM     28  O   UNL     1      49.239   5.200  16.494  0.00  0.00    +0.000 OA
ATOM     29  C   UNL     1      48.610   6.612  18.295  0.00  0.00    +0.000 A 
ATOM     30  H   UNL     1      49.498   3.440  18.184  0.00  0.00    +0.000 HD
ENDBRANCH  17  20
ENDBRANCH   2  16
TORSDOF 5
ENDMDL
MODEL 7
REMARK VINA RESULT:    -7.377      3.933      8.240
REMARK INTER + INTRA:          -9.730
REMARK INTER:                  -8.452
REMARK INTRA:                  -1.279
REMARK UNBOUND:                -0.197
REMARK  Name = 
REMARK  6 active torsions:
REMARK  status: ('A' for Active; 'I' for Inactive)
REMARK    1  A    between atoms: C_1  and  C_2
REMARK    2  A    between atoms: C_2  and  N_3
REMARK    3  A    between atoms: C_2  and  C_16
REMARK    4  A    between atoms: C_4  and  C_6
REMARK    5  A    between atoms: C_19  and  O_20
REMARK    6  A    between atoms: O_20  and  C_21
REMARK                            x       y       z     vdW  Elec       q    Type
REMARK                         _______ _______ _______ _____ _____    ______ ____
ROOT
ATOM      1  C   UNL     1      48.289   9.001  15.021  0.00  0.00    +0.000 C 
ATOM      2  C   UNL     1      48.542   7.585  14.491  0.00  0.00    +0.000 C 
ENDROOT
BRANCH   2   3
ATOM      3  C   UNL     1      49.083   6.637  15.548  0.00  0.00    +0.000 A 
ATOM      4  C   UNL     1      48.241   5.642  16.071  0.00  0.00    +0.000 A 
ATOM      5  C   UNL     1      48.697   4.767  17.062  0.00  0.00    +0.000 A 
ATOM      6  C   UNL     1      50.017   4.846  17.507  0.00  0.00    +0.000 A 
ATOM      7  C   UNL     1      50.841   5.869  17.042  0.00  0.00    +0.000 A 
ATOM      8  C   UNL     1      50.375   6.764  16.078  0.00  0.00    +0.000 A 
BRANCH   6   9
ATOM      9  O   UNL     1      50.568   4.027  18.462  0.00  0.00    +0.000 OA
BRANCH   9  10
ATOM     10  C   UNL     1      51.561   3.135  18.131  0.00  0.00    +0.000 A 
ATOM     11  C   UNL     1      52.918   3.308  18.385  0.00  0.00    +0.000 A 
ATOM     12  C   UNL     1      53.789   2.317  17.967  0.00  0.00    +0.000 A 
ATOM     13  N   UNL     1      53.395   1.171  17.371  0.00  0.00    +0.000 NA
ATOM     14  C   UNL     1      52.067   1.005  17.193  0.00  0.00    +0.000 A 
ATOM     15  C   UNL     1      51.121   1.948  17.553  0.00  0.00    +0.000 A 
ENDBRANCH   9  10
ENDBRANCH   6   9
ENDBRANCH   2   3
BRANCH   2  16
ATOM     16  N   UNL     1      47.337   7.013  13.925  0.00  0.00    +0.000 N 
ATOM     17  C   UNL     1      47.020   7.091  12.596  0.00  0.00    +0.000 C 
ATOM     18  O   UNL     1      47.767   7.639  11.788  0.00  0.00    +0.000 OA
ATOM     19  H   UNL     1      46.706   6.557  14.576  0.00  0.00    +0.000 HD
BRANCH  17  20
ATOM     20  C   UNL     1      45.740   6.497  12.172  0.00  0.00    +0.000 A 
ATOM     21  C   UNL     1      44.786   7.305  11.565  0.00  0.00    +0.000 A 
ATOM     22  S   UNL     1      43.341   6.495  11.170  0.00  0.00    +0.000 S 
ATOM     23  C   UNL     1      43.928   5.028  11.798  0.00  0.00    +0.000 A 
ATOM     24  N   UNL     1      43.148   3.913  11.797  0.00  0.00    +0.000 NA
ATOM     25  C   UNL     1      43.711   2.867  12.302  0.00  0.00    +0.000 A 
ATOM     26  N   UNL     1      44.990   2.831  12.791  0.00  0.00    +0.000 N 
ATOM     27  C   UNL     1      45.818   3.928  12.803  0.00  0.00    +0.000 A 
ATOM     28  O   UNL     1      46.966   3.844  13.223  0.00  0.00    +0.000 OA
ATOM     29  C   UNL     1      45.223   5.148  12.277  0.00  0.00    +0.000 A 
ATOM     30  H   UNL     1      45.378   1.976  13.161  0.00  0.00    +0.000 HD
ENDBRANCH  17  20
ENDBRANCH   2  16
TORSDOF 5
ENDMDL
MODEL 8
REMARK VINA RESULT:    -7.137      3.800      8.517
REMARK INTER + INTRA:          -9.420
REMARK INTER:                  -8.319
REMARK INTRA:                  -1.101
REMARK UNBOUND:                -0.197
REMARK  Name = 
REMARK  6 active torsions:
REMARK  status: ('A' for Active; 'I' for Inactive)
REMARK    1  A    between atoms: C_1  and  C_2
REMARK    2  A    between atoms: C_2  and  N_3
REMARK    3  A    between atoms: C_2  and  C_16
REMARK    4  A    between atoms: C_4  and  C_6
REMARK    5  A    between atoms: C_19  and  O_20
REMARK    6  A    between atoms: O_20  and  C_21
REMARK                            x       y       z     vdW  Elec       q    Type
REMARK                         _______ _______ _______ _____ _____    ______ ____
ROOT
ATOM      1  C   UNL     1      48.323   8.942  15.806  0.00  0.00    +0.000 C 
ATOM      2  C   UNL     1      48.839   7.653  15.155  0.00  0.00    +0.000 C 
ENDROOT
BRANCH   2   3
ATOM      3  C   UNL     1      49.657   6.790  16.101  0.00  0.00    +0.000 A 
ATOM      4  C   UNL     1      49.007   6.102  17.138  0.00  0.00    +0.000 A 
ATOM      5  C   UNL     1      49.730   5.318  18.041  0.00  0.00    +0.000 A 
ATOM      6  C   UNL     1      51.110   5.173  17.887  0.00  0.00    +0.000 A 
ATOM      7  C   UNL     1      51.774   5.900  16.902  0.00  0.00    +0.000 A 
ATOM      8  C   UNL     1      51.056   6.710  16.021  0.00  0.00    +0.000 A 
BRANCH   6   9
ATOM      9  O   UNL     1      51.910   4.415  18.707  0.00  0.00    +0.000 OA
BRANCH   9  10
ATOM     10  C   UNL     1      52.282   3.142  18.341  0.00  0.00    +0.000 A 
ATOM     11  C   UNL     1      51.489   2.242  17.635  0.00  0.00    +0.000 A 
ATOM     12  C   UNL     1      52.013   0.991  17.363  0.00  0.00    +0.000 A 
ATOM     13  N   UNL     1      53.263   0.609  17.698  0.00  0.00    +0.000 NA
ATOM     14  C   UNL     1      54.030   1.525  18.328  0.00  0.00    +0.000 A 
ATOM     15  C   UNL     1      53.588   2.790  18.667  0.00  0.00    +0.000 A 
ENDBRANCH   9  10
ENDBRANCH   6   9
ENDBRANCH   2   3
BRANCH   2  16
ATOM     16  N   UNL     1      47.747   6.859  14.626  0.00  0.00    +0.000 N 
ATOM     17  C   UNL     1      47.823   6.170  13.446  0.00  0.00    +0.000 C 
ATOM     18  O   UNL     1      48.848   6.166  12.768  0.00  0.00    +0.000 OA
ATOM     19  H   UNL     1      46.891   6.850  15.171  0.00  0.00    +0.000 HD
BRANCH  17  20
ATOM     20  C   UNL     1      46.619   5.438  13.016  0.00  0.00    +0.000 A 
ATOM     21  C   UNL     1      46.567   4.059  13.190  0.00  0.00    +0.000 A 
ATOM     22  S   UNL     1      45.137   3.341  12.606  0.00  0.00    +0.000 S 
ATOM     23  C   UNL     1      44.528   4.842  12.093  0.00  0.00    +0.000 A 
ATOM     24  N   UNL     1      43.323   4.922  11.465  0.00  0.00    +0.000 NA
ATOM     25  C   UNL     1      42.976   6.118  11.126  0.00  0.00    +0.000 A 
ATOM     26  N   UNL     1      43.716   7.243  11.375  0.00  0.00    +0.000 N 
ATOM     27  C   UNL     1      44.932   7.214  12.014  0.00  0.00    +0.000 A 
ATOM     28  O   UNL     1      45.548   8.248  12.243  0.00  0.00    +0.000 OA
ATOM     29  C   UNL     1      45.392   5.884  12.389  0.00  0.00    +0.000 A 
ATOM     30  H   UNL     1      43.381   8.154  11.096  0.00  0.00    +0.000 HD
ENDBRANCH  17  20
ENDBRANCH   2  16
TORSDOF 5
ENDMDL
MODEL 9
REMARK VINA RESULT:    -7.102      2.799      4.007
REMARK INTER + INTRA:          -9.375
REMARK INTER:                  -8.342
REMARK INTRA:                  -1.033
REMARK UNBOUND:                -0.197
REMARK  Name = 
REMARK  6 active torsions:
REMARK  status: ('A' for Active; 'I' for Inactive)
REMARK    1  A    between atoms: C_1  and  C_2
REMARK    2  A    between atoms: C_2  and  N_3
REMARK    3  A    between atoms: C_2  and  C_16
REMARK    4  A    between atoms: C_4  and  C_6
REMARK    5  A    between atoms: C_19  and  O_20
REMARK    6  A    between atoms: O_20  and  C_21
REMARK                            x       y       z     vdW  Elec       q    Type
REMARK                         _______ _______ _______ _____ _____    ______ ____
ROOT
ATOM      1  C   UNL     1      47.241   3.944  16.512  0.00  0.00    +0.000 C 
ATOM      2  C   UNL     1      47.763   4.837  15.381  0.00  0.00    +0.000 C 
ENDROOT
BRANCH   2   3
ATOM      3  C   UNL     1      46.947   4.727  14.104  0.00  0.00    +0.000 A 
ATOM      4  C   UNL     1      46.442   3.475  13.719  0.00  0.00    +0.000 A 
ATOM      5  C   UNL     1      45.707   3.332  12.539  0.00  0.00    +0.000 A 
ATOM      6  C   UNL     1      45.427   4.451  11.753  0.00  0.00    +0.000 A 
ATOM      7  C   UNL     1      45.976   5.686  12.091  0.00  0.00    +0.000 A 
ATOM      8  C   UNL     1      46.739   5.822  13.252  0.00  0.00    +0.000 A 
BRANCH   6   9
ATOM      9  O   UNL     1      44.702   4.422  10.586  0.00  0.00    +0.000 OA
BRANCH   9  10
ATOM     10  C   UNL     1      45.223   3.843   9.453  0.00  0.00    +0.000 A 
ATOM     11  C   UNL     1      45.821   4.527   8.399  0.00  0.00    +0.000 A 
ATOM     12  C   UNL     1      46.278   3.789   7.321  0.00  0.00    +0.000 A 
ATOM     13  N   UNL     1      46.223   2.442   7.254  0.00  0.00    +0.000 NA
ATOM     14  C   UNL     1      45.693   1.802   8.318  0.00  0.00    +0.000 A 
ATOM     15  C   UNL     1      45.186   2.452   9.428  0.00  0.00    +0.000 A 
ENDBRANCH   9  10
ENDBRANCH   6   9
ENDBRANCH   2   3
BRANCH   2  16
ATOM     16  N   UNL     1      47.806   6.228  15.788  0.00  0.00    +0.000 N 
ATOM     17  C   UNL     1      48.971   6.914  15.996  0.00  0.00    +0.000 C 
ATOM     18  O   UNL     1      50.068   6.388  15.823  0.00  0.00    +0.000 OA
ATOM     19  H   UNL     1      46.910   6.682  15.937  0.00  0.00    +0.000 HD
BRANCH  17  20
ATOM     20  C   UNL     1      48.858   8.313  16.446  0.00  0.00    +0.000 A 
ATOM     21  C   UNL     1      49.400   9.323  15.659  0.00  0.00    +0.000 A 
ATOM     22  S   UNL     1      49.236  10.883  16.324  0.00  0.00    +0.000 S 
ATOM     23  C   UNL     1      48.435  10.274  17.694  0.00  0.00    +0.000 A 
ATOM     24  N   UNL     1      48.041  11.109  18.693  0.00  0.00    +0.000 NA
ATOM     25  C   UNL     1      47.446  10.522  19.676  0.00  0.00    +0.000 A 
ATOM     26  N   UNL     1      47.192   9.178  19.741  0.00  0.00    +0.000 N 
ATOM     27  C   UNL     1      47.560   8.297  18.752  0.00  0.00    +0.000 A 
ATOM     28  O   UNL     1      47.287   7.105  18.836  0.00  0.00    +0.000 OA
ATOM     29  C   UNL     1      48.269   8.899  17.632  0.00  0.00    +0.000 A 
ATOM     30  H   UNL     1      46.708   8.780  20.533  0.00  0.00    +0.000 HD
ENDBRANCH  17  20
ENDBRANCH   2  16
TORSDOF 5
ENDMDL
