MODEL 1
REMARK VINA RESULT:    -8.380      0.000      0.000
REMARK INTER + INTRA:         -14.375
REMARK INTER:                 -13.279
REMARK INTRA:                  -1.096
REMARK UNBOUND:                -1.096
REMARK  Name = 
REMARK  11 active torsions:
REMARK  status: ('A' for Active; 'I' for Inactive)
REMARK    1  A    between atoms: N_1  and  C_2
REMARK    2  A    between atoms: C_2  and  C_3
REMARK    3  A    between atoms: C_3  and  N_4
REMARK    4  A    between atoms: C_3  and  C_21
REMARK    5  A    between atoms: N_4  and  C_5
REMARK    6  A    between atoms: C_5  and  C_6
REMARK    7  A    between atoms: C_9  and  C_10
REMARK    8  A    between atoms: C_10  and  O_11
REMARK    9  A    between atoms: C_10  and  C_12
REMARK   10  A    between atoms: C_12  and  N_13
REMARK   11  A    between atoms: N_13  and  C_14
REMARK                            x       y       z     vdW  Elec       q    Type
REMARK                         _______ _______ _______ _____ _____    ______ ____
ROOT
ATOM      1  C   UNL     1      48.470   6.037  14.654  0.00  0.00    +0.000 C 
ENDROOT
BRANCH   1   2
ATOM      2  C   UNL     1      47.259   5.784  13.790  0.00  0.00    +0.000 A 
ATOM      3  C   UNL     1      46.631   6.837  13.108  0.00  0.00    +0.000 A 
ATOM      4  C   UNL     1      45.504   6.602  12.319  0.00  0.00    +0.000 A 
ATOM      5  C   UNL     1      44.994   5.304  12.185  0.00  0.00    +0.000 A 
ATOM      6  C   UNL     1      45.624   4.256  12.870  0.00  0.00    +0.000 A 
ATOM      7  C   UNL     1      46.743   4.490  13.665  0.00  0.00    +0.000 A 
BRANCH   5   8
ATOM      8  C   UNL     1      43.769   5.052  11.328  0.00  0.00    +0.000 C 
BRANCH   8   9
ATOM      9  O   UNL     1      43.386   6.258  10.660  0.00  0.00    +0.000 OA
ATOM     10  H   UNL     1      43.544   6.999  11.265  0.00  0.00    +0.000 HD
ENDBRANCH   8   9
BRANCH   8  11
ATOM     11  C   UNL     1      44.001   3.943  10.269  0.00  0.00    +0.000 C 
BRANCH  11  12
ATOM     12  N   UNL     1      44.205   4.379   8.881  0.00  0.00    +0.000 NA
ATOM     13  H   UNL     1      44.806   5.206   8.878  0.00  0.00    +0.000 HD
BRANCH  12  14
ATOM     14  C   UNL     1      44.802   3.354   8.025  0.00  0.00    +0.000 C 
ATOM     15  C   UNL     1      46.228   3.644   7.572  0.00  0.00    +0.000 C 
ATOM     16  C   UNL     1      46.755   2.255   7.275  0.00  0.00    +0.000 C 
ATOM     17  N   UNL     1      46.249   1.435   8.380  0.00  0.00    +0.000 NA
ATOM     18  C   UNL     1      44.921   1.986   8.721  0.00  0.00    +0.000 C 
ATOM     19  H   UNL     1      46.854   1.599   9.188  0.00  0.00    +0.000 HD
ENDBRANCH  12  14
ENDBRANCH  11  12
ENDBRANCH   8  11
ENDBRANCH   5   8
ENDBRANCH   1   2
BRANCH   1  20
ATOM     20  N   UNL     1      48.098   6.001  16.063  0.00  0.00    +0.000 NA
ATOM     21  H   UNL     1      48.732   6.611  16.577  0.00  0.00    +0.000 HD
BRANCH  20  22
ATOM     22  C   UNL     1      48.216   4.657  16.657  0.00  0.00    +0.000 C 
BRANCH  22  23
ATOM     23  C   UNL     1      49.576   4.588  17.338  0.00  0.00    +0.000 A 
ATOM     24  C   UNL     1      50.176   5.619  18.049  0.00  0.00    +0.000 A 
ATOM     25  S   UNL     1      51.696   5.197  18.702  0.00  0.00    +0.000 S 
ATOM     26  C   UNL     1      51.591   3.619  18.077  0.00  0.00    +0.000 A 
ATOM     27  N   UNL     1      52.576   2.706  18.284  0.00  0.00    +0.000 NA
ATOM     28  C   UNL     1      52.343   1.547  17.763  0.00  0.00    +0.000 A 
ATOM     29  N   UNL     1      51.217   1.216  17.050  0.00  0.00    +0.000 N 
ATOM     30  C   UNL     1      50.194   2.101  16.816  0.00  0.00    +0.000 A 
ATOM     31  O   UNL     1      49.188   1.777  16.188  0.00  0.00    +0.000 OA
ATOM     32  C   UNL     1      50.417   3.419  17.378  0.00  0.00    +0.000 A 
ATOM     33  H   UNL     1      51.096   0.287  16.676  0.00  0.00    +0.000 HD
ENDBRANCH  22  23
BRANCH  22  34
ATOM     34  C   UNL     1      47.071   4.298  17.655  0.00  0.00    +0.000 C 
BRANCH  34  35
ATOM     35  N   UNL     1      46.680   2.882  17.640  0.00  0.00    +0.000 NA
ATOM     36  H   UNL     1      45.716   2.787  17.338  0.00  0.00    +0.000 HD
ATOM     37  H   UNL     1      46.755   2.515  18.589  0.00  0.00    +0.000 HD
ENDBRANCH  34  35
ENDBRANCH  22  34
ENDBRANCH  20  22
ENDBRANCH   1  20
TORSDOF 11
ENDMDL
MODEL 2
REMARK VINA RESULT:    -7.534      1.919      2.711
REMARK INTER + INTRA:         -13.035
REMARK INTER:                 -11.890
REMARK INTRA:                  -1.145
REMARK UNBOUND:                -1.096
REMARK  Name = 
REMARK  11 active torsions:
REMARK  status: ('A' for Active; 'I' for Inactive)
REMARK    1  A    between atoms: N_1  and  C_2
REMARK    2  A    between atoms: C_2  and  C_3
REMARK    3  A    between atoms: C_3  and  N_4
REMARK    4  A    between atoms: C_3  and  C_21
REMARK    5  A    between atoms: N_4  and  C_5
REMARK    6  A    between atoms: C_5  and  C_6
REMARK    7  A    between atoms: C_9  and  C_10
REMARK    8  A    between atoms: C_10  and  O_11
REMARK    9  A    between atoms: C_10  and  C_12
REMARK   10  A    between atoms: C_12  and  N_13
REMARK   11  A    between atoms: N_13  and  C_14
REMARK                            x       y       z     vdW  Elec       q    Type
REMARK                         _______ _______ _______ _____ _____    ______ ____
ROOT
ATOM      1  C   UNL     1      47.927   6.746  13.319  0.00  0.00    +0.000 C 
ENDROOT
BRANCH   1   2
ATOM      2  C   UNL     1      46.915   5.779  12.756  0.00  0.00    +0.000 A 
ATOM      3  C   UNL     1      46.642   4.567  13.407  0.00  0.00    +0.000 A 
ATOM      4  C   UNL     1      45.714   3.669  12.878  0.00  0.00    +0.000 A 
ATOM      5  C   UNL     1      45.028   3.976  11.696  0.00  0.00    +0.000 A 
ATOM      6  C   UNL     1      45.306   5.188  11.048  0.00  0.00    +0.000 A 
ATOM      7  C   UNL     1      46.238   6.081  11.570  0.00  0.00    +0.000 A 
BRANCH   5   8
ATOM      8  C   UNL     1      44.021   2.997  11.123  0.00  0.00    +0.000 C 
BRANCH   8   9
ATOM      9  O   UNL     1      42.702   3.540  11.226  0.00  0.00    +0.000 OA
ATOM     10  H   UNL     1      42.114   3.008  10.667  0.00  0.00    +0.000 HD
ENDBRANCH   8   9
BRANCH   8  11
ATOM     11  C   UNL     1      44.307   2.649   9.639  0.00  0.00    +0.000 C 
BRANCH  11  12
ATOM     12  N   UNL     1      45.505   1.843   9.363  0.00  0.00    +0.000 NA
ATOM     13  H   UNL     1      45.325   0.875   9.639  0.00  0.00    +0.000 HD
BRANCH  12  14
ATOM     14  C   UNL     1      45.918   1.868   7.960  0.00  0.00    +0.000 C 
ATOM     15  C   UNL     1      46.574   3.166   7.505  0.00  0.00    +0.000 C 
ATOM     16  C   UNL     1      47.397   2.707   6.319  0.00  0.00    +0.000 C 
ATOM     17  N   UNL     1      47.987   1.439   6.761  0.00  0.00    +0.000 NA
ATOM     18  C   UNL     1      46.976   0.800   7.627  0.00  0.00    +0.000 C 
ATOM     19  H   UNL     1      48.788   1.662   7.356  0.00  0.00    +0.000 HD
ENDBRANCH  12  14
ENDBRANCH  11  12
ENDBRANCH   8  11
ENDBRANCH   5   8
ENDBRANCH   1   2
BRANCH   1  20
ATOM     20  N   UNL     1      48.668   6.121  14.407  0.00  0.00    +0.000 NA
ATOM     21  H   UNL     1      48.134   5.319  14.739  0.00  0.00    +0.000 HD
BRANCH  20  22
ATOM     22  C   UNL     1      48.864   7.015  15.562  0.00  0.00    +0.000 C 
BRANCH  22  23
ATOM     23  C   UNL     1      50.262   6.748  16.102  0.00  0.00    +0.000 A 
ATOM     24  C   UNL     1      51.374   7.553  15.894  0.00  0.00    +0.000 A 
ATOM     25  S   UNL     1      52.785   6.972  16.660  0.00  0.00    +0.000 S 
ATOM     26  C   UNL     1      51.950   5.640  17.312  0.00  0.00    +0.000 A 
ATOM     27  N   UNL     1      52.577   4.727  18.101  0.00  0.00    +0.000 NA
ATOM     28  C   UNL     1      51.806   3.785  18.535  0.00  0.00    +0.000 A 
ATOM     29  N   UNL     1      50.467   3.669  18.252  0.00  0.00    +0.000 N 
ATOM     30  C   UNL     1      49.790   4.567  17.464  0.00  0.00    +0.000 A 
ATOM     31  O   UNL     1      48.586   4.451  17.238  0.00  0.00    +0.000 OA
ATOM     32  C   UNL     1      50.619   5.639  16.948  0.00  0.00    +0.000 A 
ATOM     33  H   UNL     1      49.923   2.910  18.632  0.00  0.00    +0.000 HD
ENDBRANCH  22  23
BRANCH  22  34
ATOM     34  C   UNL     1      48.668   8.530  15.238  0.00  0.00    +0.000 C 
BRANCH  34  35
ATOM     35  N   UNL     1      47.700   9.212  16.106  0.00  0.00    +0.000 NA
ATOM     36  H   UNL     1      48.024   9.204  17.068  0.00  0.00    +0.000 HD
ATOM     37  H   UNL     1      46.814   8.707  16.064  0.00  0.00    +0.000 HD
ENDBRANCH  34  35
ENDBRANCH  22  34
ENDBRANCH  20  22
ENDBRANCH   1  20
TORSDOF 11
ENDMDL
MODEL 3
REMARK VINA RESULT:    -7.531      1.946      2.609
REMARK INTER + INTRA:         -13.030
REMARK INTER:                 -11.926
REMARK INTRA:                  -1.104
REMARK UNBOUND:                -1.096
REMARK  Name = 
REMARK  11 active torsions:
REMARK  status: ('A' for Active; 'I' for Inactive)
REMARK    1  A    between atoms: N_1  and  C_2
REMARK    2  A    between atoms: C_2  and  C_3
REMARK    3  A    between atoms: C_3  and  N_4
REMARK    4  A    between atoms: C_3  and  C_21
REMARK    5  A    between atoms: N_4  and  C_5
REMARK    6  A    between atoms: C_5  and  C_6
REMARK    7  A    between atoms: C_9  and  C_10
REMARK    8  A    between atoms: C_10  and  O_11
REMARK    9  A    between atoms: C_10  and  C_12
REMARK   10  A    between atoms: C_12  and  N_13
REMARK   11  A    between atoms: N_13  and  C_14
REMARK                            x       y       z     vdW  Elec       q    Type
REMARK                         _______ _______ _______ _____ _____    ______ ____
ROOT
ATOM      1  C   UNL     1      47.895   5.649  14.394  0.00  0.00    +0.000 C 
ENDROOT
BRANCH   1   2
ATOM      2  C   UNL     1      46.864   5.169  13.403  0.00  0.00    +0.000 A 
ATOM      3  C   UNL     1      46.395   3.848  13.438  0.00  0.00    +0.000 A 
ATOM      4  C   UNL     1      45.450   3.403  12.513  0.00  0.00    +0.000 A 
ATOM      5  C   UNL     1      44.943   4.279  11.544  0.00  0.00    +0.000 A 
ATOM      6  C   UNL     1      45.416   5.598  11.512  0.00  0.00    +0.000 A 
ATOM      7  C   UNL     1      46.365   6.041  12.429  0.00  0.00    +0.000 A 
BRANCH   5   8
ATOM      8  C   UNL     1      43.917   3.792  10.539  0.00  0.00    +0.000 C 
BRANCH   8   9
ATOM      9  O   UNL     1      43.620   4.833   9.604  0.00  0.00    +0.000 OA
ATOM     10  H   UNL     1      44.262   5.548   9.738  0.00  0.00    +0.000 HD
ENDBRANCH   8   9
BRANCH   8  11
ATOM     11  C   UNL     1      44.394   2.539   9.761  0.00  0.00    +0.000 C 
BRANCH  11  12
ATOM     12  N   UNL     1      44.681   2.712   8.330  0.00  0.00    +0.000 NA
ATOM     13  H   UNL     1      44.265   3.590   8.012  0.00  0.00    +0.000 HD
BRANCH  12  14
ATOM     14  C   UNL     1      46.110   2.721   8.015  0.00  0.00    +0.000 C 
ATOM     15  C   UNL     1      46.686   1.372   7.601  0.00  0.00    +0.000 C 
ATOM     16  C   UNL     1      47.900   1.781   6.792  0.00  0.00    +0.000 C 
ATOM     17  N   UNL     1      47.429   2.910   5.984  0.00  0.00    +0.000 NA
ATOM     18  C   UNL     1      46.456   3.635   6.826  0.00  0.00    +0.000 C 
ATOM     19  H   UNL     1      46.908   2.527   5.192  0.00  0.00    +0.000 HD
ENDBRANCH  12  14
ENDBRANCH  11  12
ENDBRANCH   8  11
ENDBRANCH   5   8
ENDBRANCH   1   2
BRANCH   1  20
ATOM     20  N   UNL     1      47.453   5.366  15.754  0.00  0.00    +0.000 NA
ATOM     21  H   UNL     1      47.374   6.249  16.256  0.00  0.00    +0.000 HD
BRANCH  20  22
ATOM     22  C   UNL     1      48.403   4.527  16.507  0.00  0.00    +0.000 C 
BRANCH  22  23
ATOM     23  C   UNL     1      48.482   5.097  17.917  0.00  0.00    +0.000 A 
ATOM     24  C   UNL     1      47.470   5.792  18.564  0.00  0.00    +0.000 A 
ATOM     25  S   UNL     1      47.884   6.273  20.148  0.00  0.00    +0.000 S 
ATOM     26  C   UNL     1      49.419   5.550  20.029  0.00  0.00    +0.000 A 
ATOM     27  N   UNL     1      50.301   5.582  21.062  0.00  0.00    +0.000 NA
ATOM     28  C   UNL     1      51.416   4.973  20.826  0.00  0.00    +0.000 A 
ATOM     29  N   UNL     1      51.733   4.338  19.650  0.00  0.00    +0.000 N 
ATOM     30  C   UNL     1      50.876   4.277  18.579  0.00  0.00    +0.000 A 
ATOM     31  O   UNL     1      51.176   3.689  17.541  0.00  0.00    +0.000 OA
ATOM     32  C   UNL     1      49.612   4.954  18.798  0.00  0.00    +0.000 A 
ATOM     33  H   UNL     1      52.622   3.876  19.536  0.00  0.00    +0.000 HD
ENDBRANCH  22  23
BRANCH  22  34
ATOM     34  C   UNL     1      48.032   3.011  16.536  0.00  0.00    +0.000 C 
BRANCH  34  35
ATOM     35  N   UNL     1      49.021   2.136  15.892  0.00  0.00    +0.000 NA
ATOM     36  H   UNL     1      49.331   1.419  16.541  0.00  0.00    +0.000 HD
ATOM     37  H   UNL     1      49.830   2.700  15.629  0.00  0.00    +0.000 HD
ENDBRANCH  34  35
ENDBRANCH  22  34
ENDBRANCH  20  22
ENDBRANCH   1  20
TORSDOF 11
ENDMDL
MODEL 4
REMARK VINA RESULT:    -7.475      2.750      8.640
REMARK INTER + INTRA:         -12.942
REMARK INTER:                 -11.584
REMARK INTRA:                  -1.357
REMARK UNBOUND:                -1.096
REMARK  Name = 
REMARK  11 active torsions:
REMARK  status: ('A' for Active; 'I' for Inactive)
REMARK    1  A    between atoms: N_1  and  C_2
REMARK    2  A    between atoms: C_2  and  C_3
REMARK    3  A    between atoms: C_3  and  N_4
REMARK    4  A    between atoms: C_3  and  C_21
REMARK    5  A    between atoms: N_4  and  C_5
REMARK    6  A    between atoms: C_5  and  C_6
REMARK    7  A    between atoms: C_9  and  C_10
REMARK    8  A    between atoms: C_10  and  O_11
REMARK    9  A    between atoms: C_10  and  C_12
REMARK   10  A    between atoms: C_12  and  N_13
REMARK   11  A    between atoms: N_13  and  C_14
REMARK                            x       y       z     vdW  Elec       q    Type
REMARK                         _______ _______ _______ _____ _____    ______ ____
ROOT
ATOM      1  C   UNL     1      47.549   6.629  12.640  0.00  0.00    +0.000 C 
ENDROOT
BRANCH   1   2
ATOM      2  C   UNL     1      47.585   5.879  13.948  0.00  0.00    +0.000 A 
ATOM      3  C   UNL     1      46.905   4.661  14.096  0.00  0.00    +0.000 A 
ATOM      4  C   UNL     1      46.931   3.974  15.311  0.00  0.00    +0.000 A 
ATOM      5  C   UNL     1      47.654   4.487  16.396  0.00  0.00    +0.000 A 
ATOM      6  C   UNL     1      48.330   5.705  16.245  0.00  0.00    +0.000 A 
ATOM      7  C   UNL     1      48.298   6.395  15.036  0.00  0.00    +0.000 A 
BRANCH   5   8
ATOM      8  C   UNL     1      47.678   3.739  17.715  0.00  0.00    +0.000 C 
BRANCH   8   9
ATOM      9  O   UNL     1      46.701   2.695  17.701  0.00  0.00    +0.000 OA
ATOM     10  H   UNL     1      47.167   1.849  17.599  0.00  0.00    +0.000 HD
ENDBRANCH   8   9
BRANCH   8  11
ATOM     11  C   UNL     1      49.068   3.122  18.024  0.00  0.00    +0.000 C 
BRANCH  11  12
ATOM     12  N   UNL     1      49.699   2.335  16.956  0.00  0.00    +0.000 NA
ATOM     13  H   UNL     1      49.414   2.715  16.050  0.00  0.00    +0.000 HD
BRANCH  12  14
ATOM     14  C   UNL     1      51.160   2.317  17.025  0.00  0.00    +0.000 C 
ATOM     15  C   UNL     1      51.776   3.388  17.917  0.00  0.00    +0.000 C 
ATOM     16  C   UNL     1      53.115   2.775  18.270  0.00  0.00    +0.000 C 
ATOM     17  N   UNL     1      52.806   1.367  18.538  0.00  0.00    +0.000 NA
ATOM     18  C   UNL     1      51.717   1.005  17.609  0.00  0.00    +0.000 C 
ATOM     19  H   UNL     1      52.420   1.310  19.483  0.00  0.00    +0.000 HD
ENDBRANCH  12  14
ENDBRANCH  11  12
ENDBRANCH   8  11
ENDBRANCH   5   8
ENDBRANCH   1   2
BRANCH   1  20
ATOM     20  N   UNL     1      46.506   7.646  12.674  0.00  0.00    +0.000 NA
ATOM     21  H   UNL     1      45.979   7.536  13.539  0.00  0.00    +0.000 HD
BRANCH  20  22
ATOM     22  C   UNL     1      45.544   7.525  11.564  0.00  0.00    +0.000 C 
BRANCH  22  23
ATOM     23  C   UNL     1      44.751   6.247  11.797  0.00  0.00    +0.000 A 
ATOM     24  C   UNL     1      43.907   6.006  12.873  0.00  0.00    +0.000 A 
ATOM     25  S   UNL     1      43.156   4.475  12.817  0.00  0.00    +0.000 S 
ATOM     26  C   UNL     1      43.916   4.093  11.343  0.00  0.00    +0.000 A 
ATOM     27  N   UNL     1      43.695   2.907  10.717  0.00  0.00    +0.000 NA
ATOM     28  C   UNL     1      44.329   2.772   9.599  0.00  0.00    +0.000 A 
ATOM     29  N   UNL     1      45.165   3.712   9.049  0.00  0.00    +0.000 N 
ATOM     30  C   UNL     1      45.417   4.926   9.642  0.00  0.00    +0.000 A 
ATOM     31  O   UNL     1      46.159   5.758   9.122  0.00  0.00    +0.000 OA
ATOM     32  C   UNL     1      44.731   5.117  10.905  0.00  0.00    +0.000 A 
ATOM     33  H   UNL     1      45.623   3.544   8.167  0.00  0.00    +0.000 HD
ENDBRANCH  22  23
BRANCH  22  34
ATOM     34  C   UNL     1      44.593   8.753  11.406  0.00  0.00    +0.000 C 
BRANCH  34  35
ATOM     35  N   UNL     1      44.633   9.695  12.533  0.00  0.00    +0.000 NA
ATOM     36  H   UNL     1      43.741   9.702  13.017  0.00  0.00    +0.000 HD
ATOM     37  H   UNL     1      44.805  10.632  12.167  0.00  0.00    +0.000 HD
ENDBRANCH  34  35
ENDBRANCH  22  34
ENDBRANCH  20  22
ENDBRANCH   1  20
TORSDOF 11
ENDMDL
MODEL 5
REMARK VINA RESULT:    -7.080      4.482      6.107
REMARK INTER + INTRA:         -12.316
REMARK INTER:                 -11.121
REMARK INTRA:                  -1.195
REMARK UNBOUND:                -1.096
REMARK  Name = 
REMARK  11 active torsions:
REMARK  status: ('A' for Active; 'I' for Inactive)
REMARK    1  A    between atoms: N_1  and  C_2
REMARK    2  A    between atoms: C_2  and  C_3
REMARK    3  A    between atoms: C_3  and  N_4
REMARK    4  A    between atoms: C_3  and  C_21
REMARK    5  A    between atoms: N_4  and  C_5
REMARK    6  A    between atoms: C_5  and  C_6
REMARK    7  A    between atoms: C_9  and  C_10
REMARK    8  A    between atoms: C_10  and  O_11
REMARK    9  A    between atoms: C_10  and  C_12
REMARK   10  A    between atoms: C_12  and  N_13
REMARK   11  A    between atoms: N_13  and  C_14
REMARK                            x       y       z     vdW  Elec       q    Type
REMARK                         _______ _______ _______ _____ _____    ______ ____
ROOT
ATOM      1  C   UNL     1      47.481   6.084  13.928  0.00  0.00    +0.000 C 
ENDROOT
BRANCH   1   2
ATOM      2  C   UNL     1      46.561   5.463  12.905  0.00  0.00    +0.000 A 
ATOM      3  C   UNL     1      45.970   4.212  13.137  0.00  0.00    +0.000 A 
ATOM      4  C   UNL     1      45.128   3.636  12.185  0.00  0.00    +0.000 A 
ATOM      5  C   UNL     1      44.849   4.309  10.989  0.00  0.00    +0.000 A 
ATOM      6  C   UNL     1      45.443   5.558  10.761  0.00  0.00    +0.000 A 
ATOM      7  C   UNL     1      46.290   6.131  11.706  0.00  0.00    +0.000 A 
BRANCH   5   8
ATOM      8  C   UNL     1      43.935   3.679   9.956  0.00  0.00    +0.000 C 
BRANCH   8   9
ATOM      9  O   UNL     1      43.709   4.595   8.882  0.00  0.00    +0.000 OA
ATOM     10  H   UNL     1      43.656   5.489   9.257  0.00  0.00    +0.000 HD
ENDBRANCH   8   9
BRANCH   8  11
ATOM     11  C   UNL     1      44.510   2.360   9.378  0.00  0.00    +0.000 C 
BRANCH  11  12
ATOM     12  N   UNL     1      45.932   2.361   9.004  0.00  0.00    +0.000 NA
ATOM     13  H   UNL     1      46.417   1.638   9.539  0.00  0.00    +0.000 HD
BRANCH  12  14
ATOM     14  C   UNL     1      46.163   2.132   7.577  0.00  0.00    +0.000 C 
ATOM     15  C   UNL     1      46.674   3.343   6.805  0.00  0.00    +0.000 C 
ATOM     16  C   UNL     1      47.368   2.697   5.625  0.00  0.00    +0.000 C 
ATOM     17  N   UNL     1      48.087   1.560   6.210  0.00  0.00    +0.000 NA
ATOM     18  C   UNL     1      47.235   1.061   7.308  0.00  0.00    +0.000 C 
ATOM     19  H   UNL     1      48.941   1.923   6.639  0.00  0.00    +0.000 HD
ENDBRANCH  12  14
ENDBRANCH  11  12
ENDBRANCH   8  11
ENDBRANCH   5   8
ENDBRANCH   1   2
BRANCH   1  20
ATOM     20  N   UNL     1      47.252   7.521  14.001  0.00  0.00    +0.000 NA
ATOM     21  H   UNL     1      46.710   7.802  13.185  0.00  0.00    +0.000 HD
BRANCH  20  22
ATOM     22  C   UNL     1      48.499   8.307  13.982  0.00  0.00    +0.000 C 
BRANCH  22  23
ATOM     23  C   UNL     1      48.360   9.339  12.871  0.00  0.00    +0.000 A 
ATOM     24  C   UNL     1      47.191  10.007  12.532  0.00  0.00    +0.000 A 
ATOM     25  S   UNL     1      47.391  11.114  11.248  0.00  0.00    +0.000 S 
ATOM     26  C   UNL     1      49.048  10.753  11.118  0.00  0.00    +0.000 A 
ATOM     27  N   UNL     1      49.840  11.371  10.203  0.00  0.00    +0.000 NA
ATOM     28  C   UNL     1      51.078  11.004  10.240  0.00  0.00    +0.000 A 
ATOM     29  N   UNL     1      51.599  10.072  11.104  0.00  0.00    +0.000 N 
ATOM     30  C   UNL     1      50.840   9.423  12.048  0.00  0.00    +0.000 A 
ATOM     31  O   UNL     1      51.332   8.604  12.822  0.00  0.00    +0.000 OA
ATOM     32  C   UNL     1      49.440   9.800  12.038  0.00  0.00    +0.000 A 
ATOM     33  H   UNL     1      52.578   9.838  11.083  0.00  0.00    +0.000 HD
ENDBRANCH  22  23
BRANCH  22  34
ATOM     34  C   UNL     1      48.843   8.992  15.342  0.00  0.00    +0.000 C 
BRANCH  34  35
ATOM     35  N   UNL     1      47.670   9.362  16.145  0.00  0.00    +0.000 NA
ATOM     36  H   UNL     1      46.819   9.052  15.686  0.00  0.00    +0.000 HD
ATOM     37  H   UNL     1      47.638  10.378  16.224  0.00  0.00    +0.000 HD
ENDBRANCH  34  35
ENDBRANCH  22  34
ENDBRANCH  20  22
ENDBRANCH   1  20
TORSDOF 11
ENDMDL
MODEL 6
REMARK VINA RESULT:    -7.031      2.887      8.960
REMARK INTER + INTRA:         -12.238
REMARK INTER:                 -10.785
REMARK INTRA:                  -1.453
REMARK UNBOUND:                -1.096
REMARK  Name = 
REMARK  11 active torsions:
REMARK  status: ('A' for Active; 'I' for Inactive)
REMARK    1  A    between atoms: N_1  and  C_2
REMARK    2  A    between atoms: C_2  and  C_3
REMARK    3  A    between atoms: C_3  and  N_4
REMARK    4  A    between atoms: C_3  and  C_21
REMARK    5  A    between atoms: N_4  and  C_5
REMARK    6  A    between atoms: C_5  and  C_6
REMARK    7  A    between atoms: C_9  and  C_10
REMARK    8  A    between atoms: C_10  and  O_11
REMARK    9  A    between atoms: C_10  and  C_12
REMARK   10  A    between atoms: C_12  and  N_13
REMARK   11  A    between atoms: N_13  and  C_14
REMARK                            x       y       z     vdW  Elec       q    Type
REMARK                         _______ _______ _______ _____ _____    ______ ____
ROOT
ATOM      1  C   UNL     1      46.818   7.037  12.738  0.00  0.00    +0.000 C 
ENDROOT
BRANCH   1   2
ATOM      2  C   UNL     1      47.197   5.980  13.746  0.00  0.00    +0.000 A 
ATOM      3  C   UNL     1      46.820   4.642  13.560  0.00  0.00    +0.000 A 
ATOM      4  C   UNL     1      47.163   3.669  14.499  0.00  0.00    +0.000 A 
ATOM      5  C   UNL     1      47.905   4.014  15.636  0.00  0.00    +0.000 A 
ATOM      6  C   UNL     1      48.278   5.353  15.819  0.00  0.00    +0.000 A 
ATOM      7  C   UNL     1      47.930   6.327  14.887  0.00  0.00    +0.000 A 
BRANCH   5   8
ATOM      8  C   UNL     1      48.274   2.954  16.655  0.00  0.00    +0.000 C 
BRANCH   8   9
ATOM      9  O   UNL     1      48.998   1.898  16.018  0.00  0.00    +0.000 OA
ATOM     10  H   UNL     1      48.942   2.032  15.059  0.00  0.00    +0.000 HD
ENDBRANCH   8   9
BRANCH   8  11
ATOM     11  C   UNL     1      49.130   3.520  17.819  0.00  0.00    +0.000 C 
BRANCH  11  12
ATOM     12  N   UNL     1      48.485   3.611  19.136  0.00  0.00    +0.000 NA
ATOM     13  H   UNL     1      49.023   3.060  19.808  0.00  0.00    +0.000 HD
BRANCH  12  14
ATOM     14  C   UNL     1      48.361   4.981  19.635  0.00  0.00    +0.000 C 
ATOM     15  C   UNL     1      49.476   5.926  19.204  0.00  0.00    +0.000 C 
ATOM     16  C   UNL     1      48.805   7.280  19.317  0.00  0.00    +0.000 C 
ATOM     17  N   UNL     1      47.465   7.063  18.763  0.00  0.00    +0.000 NA
ATOM     18  C   UNL     1      47.085   5.687  19.141  0.00  0.00    +0.000 C 
ATOM     19  H   UNL     1      47.546   7.079  17.743  0.00  0.00    +0.000 HD
ENDBRANCH  12  14
ENDBRANCH  11  12
ENDBRANCH   8  11
ENDBRANCH   5   8
ENDBRANCH   1   2
BRANCH   1  20
ATOM     20  N   UNL     1      46.635   6.435  11.424  0.00  0.00    +0.000 NA
ATOM     21  H   UNL     1      47.211   6.944  10.755  0.00  0.00    +0.000 HD
BRANCH  20  22
ATOM     22  C   UNL     1      45.245   6.512  10.941  0.00  0.00    +0.000 C 
BRANCH  22  23
ATOM     23  C   UNL     1      44.691   5.094  10.946  0.00  0.00    +0.000 A 
ATOM     24  C   UNL     1      43.829   4.568  11.900  0.00  0.00    +0.000 A 
ATOM     25  S   UNL     1      43.385   2.949  11.593  0.00  0.00    +0.000 S 
ATOM     26  C   UNL     1      44.310   2.905  10.167  0.00  0.00    +0.000 A 
ATOM     27  N   UNL     1      44.364   1.791   9.389  0.00  0.00    +0.000 NA
ATOM     28  C   UNL     1      45.093   1.920   8.330  0.00  0.00    +0.000 A 
ATOM     29  N   UNL     1      45.777   3.057   7.977  0.00  0.00    +0.000 N 
ATOM     30  C   UNL     1      45.752   4.207   8.727  0.00  0.00    +0.000 A 
ATOM     31  O   UNL     1      46.360   5.218   8.383  0.00  0.00    +0.000 OA
ATOM     32  C   UNL     1      44.950   4.106   9.931  0.00  0.00    +0.000 A 
ATOM     33  H   UNL     1      46.322   3.090   7.130  0.00  0.00    +0.000 HD
ENDBRANCH  22  23
BRANCH  22  34
ATOM     34  C   UNL     1      44.334   7.473  11.768  0.00  0.00    +0.000 C 
BRANCH  34  35
ATOM     35  N   UNL     1      43.492   8.357  10.950  0.00  0.00    +0.000 NA
ATOM     36  H   UNL     1      43.655   8.183   9.964  0.00  0.00    +0.000 HD
ATOM     37  H   UNL     1      43.748   9.324  11.151  0.00  0.00    +0.000 HD
ENDBRANCH  34  35
ENDBRANCH  22  34
ENDBRANCH  20  22
ENDBRANCH   1  20
TORSDOF 11
ENDMDL
MODEL 7
REMARK VINA RESULT:    -6.999      2.875      4.013
REMARK INTER + INTRA:         -12.186
REMARK INTER:                 -10.896
REMARK INTRA:                  -1.290
REMARK UNBOUND:                -1.096
REMARK  Name = 
REMARK  11 active torsions:
REMARK  status: ('A' for Active; 'I' for Inactive)
REMARK    1  A    between atoms: N_1  and  C_2
REMARK    2  A    between atoms: C_2  and  C_3
REMARK    3  A    between atoms: C_3  and  N_4
REMARK    4  A    between atoms: C_3  and  C_21
REMARK    5  A    between atoms: N_4  and  C_5
REMARK    6  A    between atoms: C_5  and  C_6
REMARK    7  A    between atoms: C_9  and  C_10
REMARK    8  A    between atoms: C_10  and  O_11
REMARK    9  A    between atoms: C_10  and  C_12
REMARK   10  A    between atoms: C_12  and  N_13
REMARK   11  A    between atoms: N_13  and  C_14
REMARK                            x       y       z     vdW  Elec       q    Type
REMARK                         _______ _______ _______ _____ _____    ______ ____
ROOT
ATOM      1  C   UNL     1      48.707   7.309  13.388  0.00  0.00    +0.000 C 
ENDROOT
BRANCH   1   2
ATOM      2  C   UNL     1      47.371   6.619  13.270  0.00  0.00    +0.000 A 
ATOM      3  C   UNL     1      46.291   7.249  12.635  0.00  0.00    +0.000 A 
ATOM      4  C   UNL     1      45.053   6.613  12.536  0.00  0.00    +0.000 A 
ATOM      5  C   UNL     1      44.878   5.325  13.057  0.00  0.00    +0.000 A 
ATOM      6  C   UNL     1      45.959   4.699  13.693  0.00  0.00    +0.000 A 
ATOM      7  C   UNL     1      47.192   5.336  13.800  0.00  0.00    +0.000 A 
BRANCH   5   8
ATOM      8  C   UNL     1      43.531   4.637  12.950  0.00  0.00    +0.000 C 
BRANCH   8   9
ATOM      9  O   UNL     1      42.525   5.434  13.581  0.00  0.00    +0.000 OA
ATOM     10  H   UNL     1      42.185   6.062  12.925  0.00  0.00    +0.000 HD
ENDBRANCH   8   9
BRANCH   8  11
ATOM     11  C   UNL     1      43.113   4.372  11.480  0.00  0.00    +0.000 C 
BRANCH  11  12
ATOM     12  N   UNL     1      43.453   3.058  10.917  0.00  0.00    +0.000 NA
ATOM     13  H   UNL     1      42.682   2.741  10.325  0.00  0.00    +0.000 HD
BRANCH  12  14
ATOM     14  C   UNL     1      44.687   3.057  10.130  0.00  0.00    +0.000 C 
ATOM     15  C   UNL     1      44.723   2.047   8.990  0.00  0.00    +0.000 C 
ATOM     16  C   UNL     1      45.741   2.663   8.053  0.00  0.00    +0.000 C 
ATOM     17  N   UNL     1      45.414   4.092   8.057  0.00  0.00    +0.000 NA
ATOM     18  C   UNL     1      44.949   4.400   9.424  0.00  0.00    +0.000 C 
ATOM     19  H   UNL     1      44.614   4.227   7.434  0.00  0.00    +0.000 HD
ENDBRANCH  12  14
ENDBRANCH  11  12
ENDBRANCH   8  11
ENDBRANCH   5   8
ENDBRANCH   1   2
BRANCH   1  20
ATOM     20  N   UNL     1      49.540   6.626  14.370  0.00  0.00    +0.000 NA
ATOM     21  H   UNL     1      49.040   5.799  14.695  0.00  0.00    +0.000 HD
BRANCH  20  22
ATOM     22  C   UNL     1      49.828   7.449  15.558  0.00  0.00    +0.000 C 
BRANCH  22  23
ATOM     23  C   UNL     1      49.551   6.583  16.780  0.00  0.00    +0.000 A 
ATOM     24  C   UNL     1      50.049   5.305  16.991  0.00  0.00    +0.000 A 
ATOM     25  S   UNL     1      49.559   4.624  18.478  0.00  0.00    +0.000 S 
ATOM     26  C   UNL     1      48.685   6.022  18.896  0.00  0.00    +0.000 A 
ATOM     27  N   UNL     1      48.018   6.116  20.076  0.00  0.00    +0.000 NA
ATOM     28  C   UNL     1      47.419   7.246  20.257  0.00  0.00    +0.000 A 
ATOM     29  N   UNL     1      47.421   8.291  19.366  0.00  0.00    +0.000 N 
ATOM     30  C   UNL     1      48.082   8.246  18.163  0.00  0.00    +0.000 A 
ATOM     31  O   UNL     1      48.083   9.200  17.388  0.00  0.00    +0.000 OA
ATOM     32  C   UNL     1      48.765   6.990  17.915  0.00  0.00    +0.000 A 
ATOM     33  H   UNL     1      46.936   9.150  19.576  0.00  0.00    +0.000 HD
ENDBRANCH  22  23
BRANCH  22  34
ATOM     34  C   UNL     1      51.277   8.028  15.598  0.00  0.00    +0.000 C 
BRANCH  34  35
ATOM     35  N   UNL     1      52.112   7.642  14.453  0.00  0.00    +0.000 NA
ATOM     36  H   UNL     1      52.605   8.451  14.088  0.00  0.00    +0.000 HD
ATOM     37  H   UNL     1      51.505   7.280  13.717  0.00  0.00    +0.000 HD
ENDBRANCH  34  35
ENDBRANCH  22  34
ENDBRANCH  20  22
ENDBRANCH   1  20
TORSDOF 11
ENDMDL
MODEL 8
REMARK VINA RESULT:    -6.783      2.588      3.764
REMARK INTER + INTRA:         -11.844
REMARK INTER:                 -10.950
REMARK INTRA:                  -0.893
REMARK UNBOUND:                -1.096
REMARK  Name = 
REMARK  11 active torsions:
REMARK  status: ('A' for Active; 'I' for Inactive)
REMARK    1  A    between atoms: N_1  and  C_2
REMARK    2  A    between atoms: C_2  and  C_3
REMARK    3  A    between atoms: C_3  and  N_4
REMARK    4  A    between atoms: C_3  and  C_21
REMARK    5  A    between atoms: N_4  and  C_5
REMARK    6  A    between atoms: C_5  and  C_6
REMARK    7  A    between atoms: C_9  and  C_10
REMARK    8  A    between atoms: C_10  and  O_11
REMARK    9  A    between atoms: C_10  and  C_12
REMARK   10  A    between atoms: C_12  and  N_13
REMARK   11  A    between atoms: N_13  and  C_14
REMARK                            x       y       z     vdW  Elec       q    Type
REMARK                         _______ _______ _______ _____ _____    ______ ____
ROOT
ATOM      1  C   UNL     1      48.923   7.213  13.258  0.00  0.00    +0.000 C 
ENDROOT
BRANCH   1   2
ATOM      2  C   UNL     1      47.555   6.578  13.193  0.00  0.00    +0.000 A 
ATOM      3  C   UNL     1      47.371   5.233  13.544  0.00  0.00    +0.000 A 
ATOM      4  C   UNL     1      46.107   4.646  13.473  0.00  0.00    +0.000 A 
ATOM      5  C   UNL     1      45.000   5.400  13.063  0.00  0.00    +0.000 A 
ATOM      6  C   UNL     1      45.189   6.744  12.711  0.00  0.00    +0.000 A 
ATOM      7  C   UNL     1      46.451   7.328  12.774  0.00  0.00    +0.000 A 
BRANCH   5   8
ATOM      8  C   UNL     1      43.628   4.758  12.985  0.00  0.00    +0.000 C 
BRANCH   8   9
ATOM      9  O   UNL     1      42.619   5.730  13.271  0.00  0.00    +0.000 OA
ATOM     10  H   UNL     1      42.921   6.264  14.024  0.00  0.00    +0.000 HD
ENDBRANCH   8   9
BRANCH   8  11
ATOM     11  C   UNL     1      43.342   4.132  11.595  0.00  0.00    +0.000 C 
BRANCH  11  12
ATOM     12  N   UNL     1      43.743   4.914  10.417  0.00  0.00    +0.000 NA
ATOM     13  H   UNL     1      44.512   5.536  10.677  0.00  0.00    +0.000 HD
BRANCH  12  14
ATOM     14  C   UNL     1      44.159   4.093   9.280  0.00  0.00    +0.000 C 
ATOM     15  C   UNL     1      45.508   4.464   8.677  0.00  0.00    +0.000 C 
ATOM     16  C   UNL     1      45.927   3.168   8.014  0.00  0.00    +0.000 C 
ATOM     17  N   UNL     1      45.564   2.133   8.988  0.00  0.00    +0.000 NA
ATOM     18  C   UNL     1      44.329   2.607   9.645  0.00  0.00    +0.000 C 
ATOM     19  H   UNL     1      46.293   2.116   9.705  0.00  0.00    +0.000 HD
ENDBRANCH  12  14
ENDBRANCH  11  12
ENDBRANCH   8  11
ENDBRANCH   5   8
ENDBRANCH   1   2
BRANCH   1  20
ATOM     20  N   UNL     1      49.674   6.671  14.383  0.00  0.00    +0.000 NA
ATOM     21  H   UNL     1      49.021   6.200  15.007  0.00  0.00    +0.000 HD
BRANCH  20  22
ATOM     22  C   UNL     1      50.355   7.710  15.178  0.00  0.00    +0.000 C 
BRANCH  22  23
ATOM     23  C   UNL     1      49.432   8.064  16.336  0.00  0.00    +0.000 A 
ATOM     24  C   UNL     1      48.915   9.325  16.598  0.00  0.00    +0.000 A 
ATOM     25  S   UNL     1      47.895   9.368  17.967  0.00  0.00    +0.000 S 
ATOM     26  C   UNL     1      48.094   7.701  18.238  0.00  0.00    +0.000 A 
ATOM     27  N   UNL     1      47.470   7.070  19.268  0.00  0.00    +0.000 NA
ATOM     28  C   UNL     1      47.704   5.801  19.332  0.00  0.00    +0.000 A 
ATOM     29  N   UNL     1      48.508   5.103  18.464  0.00  0.00    +0.000 N 
ATOM     30  C   UNL     1      49.157   5.695  17.408  0.00  0.00    +0.000 A 
ATOM     31  O   UNL     1      49.859   5.046  16.634  0.00  0.00    +0.000 OA
ATOM     32  C   UNL     1      48.927   7.123  17.302  0.00  0.00    +0.000 A 
ATOM     33  H   UNL     1      48.641   4.110  18.568  0.00  0.00    +0.000 HD
ENDBRANCH  22  23
BRANCH  22  34
ATOM     34  C   UNL     1      51.768   7.295  15.694  0.00  0.00    +0.000 C 
BRANCH  34  35
ATOM     35  N   UNL     1      52.837   7.425  14.695  0.00  0.00    +0.000 NA
ATOM     36  H   UNL     1      53.391   8.255  14.880  0.00  0.00    +0.000 HD
ATOM     37  H   UNL     1      52.410   7.525  13.774  0.00  0.00    +0.000 HD
ENDBRANCH  34  35
ENDBRANCH  22  34
ENDBRANCH  20  22
ENDBRANCH   1  20
TORSDOF 11
ENDMDL
MODEL 9
REMARK VINA RESULT:    -6.760      2.793      3.902
REMARK INTER + INTRA:         -11.808
REMARK INTER:                 -11.115
REMARK INTRA:                  -0.692
REMARK UNBOUND:                -1.096
REMARK  Name = 
REMARK  11 active torsions:
REMARK  status: ('A' for Active; 'I' for Inactive)
REMARK    1  A    between atoms: N_1  and  C_2
REMARK    2  A    between atoms: C_2  and  C_3
REMARK    3  A    between atoms: C_3  and  N_4
REMARK    4  A    between atoms: C_3  and  C_21
REMARK    5  A    between atoms: N_4  and  C_5
REMARK    6  A    between atoms: C_5  and  C_6
REMARK    7  A    between atoms: C_9  and  C_10
REMARK    8  A    between atoms: C_10  and  O_11
REMARK    9  A    between atoms: C_10  and  C_12
REMARK   10  A    between atoms: C_12  and  N_13
REMARK   11  A    between atoms: N_13  and  C_14
REMARK                            x       y       z     vdW  Elec       q    Type
REMARK                         _______ _______ _______ _____ _____    ______ ____
ROOT
ATOM      1  C   UNL     1      46.290   7.945  12.841  0.00  0.00    +0.000 C 
ENDROOT
BRANCH   1   2
ATOM      2  C   UNL     1      45.728   6.610  12.417  0.00  0.00    +0.000 A 
ATOM      3  C   UNL     1      45.701   5.528  13.309  0.00  0.00    +0.000 A 
ATOM      4  C   UNL     1      45.191   4.291  12.911  0.00  0.00    +0.000 A 
ATOM      5  C   UNL     1      44.683   4.120  11.617  0.00  0.00    +0.000 A 
ATOM      6  C   UNL     1      44.714   5.204  10.729  0.00  0.00    +0.000 A 
ATOM      7  C   UNL     1      45.230   6.436  11.121  0.00  0.00    +0.000 A 
BRANCH   5   8
ATOM      8  C   UNL     1      44.131   2.774  11.188  0.00  0.00    +0.000 C 
BRANCH   8   9
ATOM      9  O   UNL     1      42.722   2.728  11.426  0.00  0.00    +0.000 OA
ATOM     10  H   UNL     1      42.578   2.770  12.385  0.00  0.00    +0.000 HD
ENDBRANCH   8   9
BRANCH   8  11
ATOM     11  C   UNL     1      44.398   2.472   9.690  0.00  0.00    +0.000 C 
BRANCH  11  12
ATOM     12  N   UNL     1      45.725   1.942   9.344  0.00  0.00    +0.000 NA
ATOM     13  H   UNL     1      45.808   0.990   9.710  0.00  0.00    +0.000 HD
BRANCH  12  14
ATOM     14  C   UNL     1      45.992   1.923   7.906  0.00  0.00    +0.000 C 
ATOM     15  C   UNL     1      46.666   3.176   7.360  0.00  0.00    +0.000 C 
ATOM     16  C   UNL     1      47.337   2.655   6.106  0.00  0.00    +0.000 C 
ATOM     17  N   UNL     1      47.900   1.364   6.511  0.00  0.00    +0.000 NA
ATOM     18  C   UNL     1      46.951   0.794   7.489  0.00  0.00    +0.000 C 
ATOM     19  H   UNL     1      48.769   1.551   7.016  0.00  0.00    +0.000 HD
ENDBRANCH  12  14
ENDBRANCH  11  12
ENDBRANCH   8  11
ENDBRANCH   5   8
ENDBRANCH   1   2
BRANCH   1  20
ATOM     20  N   UNL     1      47.143   7.782  14.011  0.00  0.00    +0.000 NA
ATOM     21  H   UNL     1      46.798   8.397  14.747  0.00  0.00    +0.000 HD
BRANCH  20  22
ATOM     22  C   UNL     1      48.546   8.157  13.760  0.00  0.00    +0.000 C 
BRANCH  22  23
ATOM     23  C   UNL     1      49.169   8.487  15.110  0.00  0.00    +0.000 A 
ATOM     24  C   UNL     1      49.689   9.720  15.478  0.00  0.00    +0.000 A 
ATOM     25  S   UNL     1      50.292   9.752  17.074  0.00  0.00    +0.000 S 
ATOM     26  C   UNL     1      49.859   8.127  17.332  0.00  0.00    +0.000 A 
ATOM     27  N   UNL     1      50.087   7.511  18.522  0.00  0.00    +0.000 NA
ATOM     28  C   UNL     1      49.686   6.284  18.568  0.00  0.00    +0.000 A 
ATOM     29  N   UNL     1      49.080   5.613  17.535  0.00  0.00    +0.000 N 
ATOM     30  C   UNL     1      48.826   6.192  16.316  0.00  0.00    +0.000 A 
ATOM     31  O   UNL     1      48.268   5.576  15.410  0.00  0.00    +0.000 OA
ATOM     32  C   UNL     1      49.267   7.570  16.216  0.00  0.00    +0.000 A 
ATOM     33  H   UNL     1      48.785   4.655  17.643  0.00  0.00    +0.000 HD
ENDBRANCH  22  23
BRANCH  22  34
ATOM     34  C   UNL     1      49.375   7.065  13.012  0.00  0.00    +0.000 C 
BRANCH  34  35
ATOM     35  N   UNL     1      50.368   7.601  12.073  0.00  0.00    +0.000 NA
ATOM     36  H   UNL     1      50.926   6.848  11.683  0.00  0.00    +0.000 HD
ATOM     37  H   UNL     1      50.991   8.228  12.583  0.00  0.00    +0.000 HD
ENDBRANCH  34  35
ENDBRANCH  22  34
ENDBRANCH  20  22
ENDBRANCH   1  20
TORSDOF 11
ENDMDL
