MODEL 1
REMARK VINA RESULT:    -8.035      0.000      0.000
REMARK INTER + INTRA:         -13.523
REMARK INTER:                 -12.497
REMARK INTRA:                  -1.026
REMARK UNBOUND:                -1.026
REMARK  Name = 
REMARK  10 active torsions:
REMARK  status: ('A' for Active; 'I' for Inactive)
REMARK    1  A    between atoms: N_1  and  C_2
REMARK    2  A    between atoms: C_2  and  C_3
REMARK    3  A    between atoms: C_3  and  C_4
REMARK    4  A    between atoms: C_4  and  N_5
REMARK    5  A    between atoms: C_4  and  C_27
REMARK    6  A    between atoms: N_5  and  C_6
REMARK    7  A    between atoms: C_6  and  C_7
REMARK    8  A    between atoms: C_10  and  C_11
REMARK    9  A    between atoms: C_11  and  N_12
REMARK   10  A    between atoms: C_13  and  C_15
REMARK                            x       y       z     vdW  Elec       q    Type
REMARK                         _______ _______ _______ _____ _____    ______ ____
ROOT
ATOM      1  C   UNL     1      44.274   6.700  11.676  0.00  0.00    +0.000 A 
ATOM      2  C   UNL     1      44.519   8.053  11.400  0.00  0.00    +0.000 A 
ATOM      3  C   UNL     1      45.569   8.727  12.030  0.00  0.00    +0.000 A 
ATOM      4  C   UNL     1      46.394   8.056  12.941  0.00  0.00    +0.000 A 
ATOM      5  C   UNL     1      46.108   6.723  13.263  0.00  0.00    +0.000 A 
ATOM      6  C   UNL     1      45.061   6.050  12.634  0.00  0.00    +0.000 A 
ENDROOT
BRANCH   1   7
ATOM      7  C   UNL     1      43.117   5.976  11.032  0.00  0.00    +0.000 C 
BRANCH   7   8
ATOM      8  N   UNL     1      43.524   5.138   9.897  0.00  0.00    +0.000 NA
ATOM      9  H   UNL     1      44.082   5.713   9.262  0.00  0.00    +0.000 HD
BRANCH   8  10
ATOM     10  C   UNL     1      44.369   3.988  10.326  0.00  0.00    +0.000 C 
BRANCH  10  11
ATOM     11  C   UNL     1      45.197   3.441   9.160  0.00  0.00    +0.000 A 
ATOM     12  C   UNL     1      45.488   2.076   9.057  0.00  0.00    +0.000 A 
ATOM     13  C   UNL     1      46.294   1.628   8.014  0.00  0.00    +0.000 A 
ATOM     14  C   UNL     1      46.773   2.539   7.080  0.00  0.00    +0.000 A 
ATOM     15  C   UNL     1      46.421   3.869   7.231  0.00  0.00    +0.000 A 
ATOM     16  N   UNL     1      45.657   4.337   8.247  0.00  0.00    +0.000 NA
ENDBRANCH  10  11
BRANCH  10  17
ATOM     17  C   UNL     1      43.497   2.891  10.980  0.00  0.00    +0.000 C 
BRANCH  17  18
ATOM     18  C   UNL     1      43.775   2.616  12.453  0.00  0.00    +0.000 C 
BRANCH  18  19
ATOM     19  N   UNL     1      45.207   2.820  12.681  0.00  0.00    +0.000 NA
ATOM     20  H   UNL     1      45.408   3.813  12.770  0.00  0.00    +0.000 HD
ATOM     21  H   UNL     1      45.735   2.485  11.875  0.00  0.00    +0.000 HD
ENDBRANCH  18  19
ENDBRANCH  17  18
ENDBRANCH  10  17
ENDBRANCH   8  10
ENDBRANCH   7   8
ENDBRANCH   1   7
BRANCH   4  22
ATOM     22  C   UNL     1      47.556   8.751  13.596  0.00  0.00    +0.000 C 
BRANCH  22  23
ATOM     23  N   UNL     1      47.903   8.122  14.842  0.00  0.00    +0.000 N 
ATOM     24  C   UNL     1      48.950   7.241  14.920  0.00  0.00    +0.000 C 
ATOM     25  O   UNL     1      49.658   6.984  13.951  0.00  0.00    +0.000 OA
ATOM     26  H   UNL     1      47.201   8.137  15.575  0.00  0.00    +0.000 HD
BRANCH  24  27
ATOM     27  C   UNL     1      49.221   6.669  16.244  0.00  0.00    +0.000 A 
ATOM     28  C   UNL     1      50.010   7.374  17.145  0.00  0.00    +0.000 A 
ATOM     29  S   UNL     1      50.166   6.604  18.659  0.00  0.00    +0.000 S 
ATOM     30  C   UNL     1      49.229   5.278  18.145  0.00  0.00    +0.000 A 
ATOM     31  N   UNL     1      48.983   4.232  18.977  0.00  0.00    +0.000 NA
ATOM     32  C   UNL     1      48.284   3.284  18.450  0.00  0.00    +0.000 A 
ATOM     33  N   UNL     1      47.806   3.286  17.162  0.00  0.00    +0.000 N 
ATOM     34  C   UNL     1      48.014   4.330  16.292  0.00  0.00    +0.000 A 
ATOM     35  O   UNL     1      47.554   4.307  15.156  0.00  0.00    +0.000 OA
ATOM     36  C   UNL     1      48.794   5.425  16.838  0.00  0.00    +0.000 A 
ATOM     37  H   UNL     1      47.267   2.512  16.812  0.00  0.00    +0.000 HD
ENDBRANCH  24  27
ENDBRANCH  22  23
ENDBRANCH   4  22
TORSDOF 10
ENDMDL
MODEL 2
REMARK VINA RESULT:    -7.916      2.769      3.770
REMARK INTER + INTRA:         -13.339
REMARK INTER:                 -11.850
REMARK INTRA:                  -1.488
REMARK UNBOUND:                -1.026
REMARK  Name = 
REMARK  10 active torsions:
REMARK  status: ('A' for Active; 'I' for Inactive)
REMARK    1  A    between atoms: N_1  and  C_2
REMARK    2  A    between atoms: C_2  and  C_3
REMARK    3  A    between atoms: C_3  and  C_4
REMARK    4  A    between atoms: C_4  and  N_5
REMARK    5  A    between atoms: C_4  and  C_27
REMARK    6  A    between atoms: N_5  and  C_6
REMARK    7  A    between atoms: C_6  and  C_7
REMARK    8  A    between atoms: C_10  and  C_11
REMARK    9  A    between atoms: C_11  and  N_12
REMARK   10  A    between atoms: C_13  and  C_15
REMARK                            x       y       z     vdW  Elec       q    Type
REMARK                         _______ _______ _______ _____ _____    ______ ____
ROOT
ATOM      1  C   UNL     1      46.905   5.136  13.505  0.00  0.00    +0.000 A 
ATOM      2  C   UNL     1      46.753   4.274  14.600  0.00  0.00    +0.000 A 
ATOM      3  C   UNL     1      47.348   4.575  15.828  0.00  0.00    +0.000 A 
ATOM      4  C   UNL     1      48.096   5.748  15.983  0.00  0.00    +0.000 A 
ATOM      5  C   UNL     1      48.299   6.576  14.871  0.00  0.00    +0.000 A 
ATOM      6  C   UNL     1      47.706   6.275  13.645  0.00  0.00    +0.000 A 
ENDROOT
BRANCH   1   7
ATOM      7  C   UNL     1      46.302   4.798  12.164  0.00  0.00    +0.000 C 
BRANCH   7   8
ATOM      8  N   UNL     1      45.233   3.794  12.251  0.00  0.00    +0.000 NA
ATOM      9  H   UNL     1      44.686   3.986  13.092  0.00  0.00    +0.000 HD
BRANCH   8  10
ATOM     10  C   UNL     1      44.307   3.862  11.085  0.00  0.00    +0.000 C 
BRANCH  10  11
ATOM     11  C   UNL     1      45.019   3.475   9.786  0.00  0.00    +0.000 A 
ATOM     12  C   UNL     1      45.408   4.447   8.856  0.00  0.00    +0.000 A 
ATOM     13  C   UNL     1      45.999   4.048   7.660  0.00  0.00    +0.000 A 
ATOM     14  C   UNL     1      46.217   2.696   7.423  0.00  0.00    +0.000 A 
ATOM     15  C   UNL     1      45.831   1.795   8.401  0.00  0.00    +0.000 A 
ATOM     16  N   UNL     1      45.235   2.151   9.563  0.00  0.00    +0.000 NA
ENDBRANCH  10  11
BRANCH  10  17
ATOM     17  C   UNL     1      43.657   5.263  10.993  0.00  0.00    +0.000 C 
BRANCH  17  18
ATOM     18  C   UNL     1      42.417   5.475  11.853  0.00  0.00    +0.000 C 
BRANCH  18  19
ATOM     19  N   UNL     1      42.854   5.570  13.248  0.00  0.00    +0.000 NA
ATOM     20  H   UNL     1      42.056   5.465  13.871  0.00  0.00    +0.000 HD
ATOM     21  H   UNL     1      43.242   6.497  13.424  0.00  0.00    +0.000 HD
ENDBRANCH  18  19
ENDBRANCH  17  18
ENDBRANCH  10  17
ENDBRANCH   8  10
ENDBRANCH   7   8
ENDBRANCH   1   7
BRANCH   4  22
ATOM     22  C   UNL     1      48.707   6.113  17.308  0.00  0.00    +0.000 C 
BRANCH  22  23
ATOM     23  N   UNL     1      49.765   5.205  17.660  0.00  0.00    +0.000 N 
ATOM     24  C   UNL     1      51.059   5.446  17.278  0.00  0.00    +0.000 C 
ATOM     25  O   UNL     1      51.377   6.459  16.661  0.00  0.00    +0.000 OA
ATOM     26  H   UNL     1      49.491   4.272  17.952  0.00  0.00    +0.000 HD
BRANCH  24  27
ATOM     27  C   UNL     1      52.058   4.459  17.704  0.00  0.00    +0.000 A 
ATOM     28  C   UNL     1      53.279   4.894  18.203  0.00  0.00    +0.000 A 
ATOM     29  S   UNL     1      54.294   3.624  18.719  0.00  0.00    +0.000 S 
ATOM     30  C   UNL     1      53.158   2.448  18.245  0.00  0.00    +0.000 A 
ATOM     31  N   UNL     1      53.416   1.123  18.403  0.00  0.00    +0.000 NA
ATOM     32  C   UNL     1      52.482   0.343  17.975  0.00  0.00    +0.000 A 
ATOM     33  N   UNL     1      51.307   0.766  17.403  0.00  0.00    +0.000 N 
ATOM     34  C   UNL     1      50.996   2.096  17.241  0.00  0.00    +0.000 A 
ATOM     35  O   UNL     1      49.927   2.439  16.745  0.00  0.00    +0.000 OA
ATOM     36  C   UNL     1      52.014   3.016  17.708  0.00  0.00    +0.000 A 
ATOM     37  H   UNL     1      50.619   0.104  17.088  0.00  0.00    +0.000 HD
ENDBRANCH  24  27
ENDBRANCH  22  23
ENDBRANCH   4  22
TORSDOF 10
ENDMDL
MODEL 3
REMARK VINA RESULT:    -7.639      1.671      2.054
REMARK INTER + INTRA:         -12.908
REMARK INTER:                 -12.036
REMARK INTRA:                  -0.873
REMARK UNBOUND:                -1.026
REMARK  Name = 
REMARK  10 active torsions:
REMARK  status: ('A' for Active; 'I' for Inactive)
REMARK    1  A    between atoms: N_1  and  C_2
REMARK    2  A    between atoms: C_2  and  C_3
REMARK    3  A    between atoms: C_3  and  C_4
REMARK    4  A    between atoms: C_4  and  N_5
REMARK    5  A    between atoms: C_4  and  C_27
REMARK    6  A    between atoms: N_5  and  C_6
REMARK    7  A    between atoms: C_6  and  C_7
REMARK    8  A    between atoms: C_10  and  C_11
REMARK    9  A    between atoms: C_11  and  N_12
REMARK   10  A    between atoms: C_13  and  C_15
REMARK                            x       y       z     vdW  Elec       q    Type
REMARK                         _______ _______ _______ _____ _____    ______ ____
ROOT
ATOM      1  C   UNL     1      45.160   5.890  11.536  0.00  0.00    +0.000 A 
ATOM      2  C   UNL     1      46.228   6.589  10.956  0.00  0.00    +0.000 A 
ATOM      3  C   UNL     1      47.355   6.920  11.713  0.00  0.00    +0.000 A 
ATOM      4  C   UNL     1      47.434   6.550  13.061  0.00  0.00    +0.000 A 
ATOM      5  C   UNL     1      46.339   5.908  13.655  0.00  0.00    +0.000 A 
ATOM      6  C   UNL     1      45.215   5.578  12.899  0.00  0.00    +0.000 A 
ENDROOT
BRANCH   1   7
ATOM      7  C   UNL     1      43.922   5.566  10.736  0.00  0.00    +0.000 C 
BRANCH   7   8
ATOM      8  N   UNL     1      44.204   4.760   9.542  0.00  0.00    +0.000 NA
ATOM      9  H   UNL     1      44.858   5.281   8.955  0.00  0.00    +0.000 HD
BRANCH   8  10
ATOM     10  C   UNL     1      44.843   3.458   9.884  0.00  0.00    +0.000 C 
BRANCH  10  11
ATOM     11  C   UNL     1      45.657   2.911   8.708  0.00  0.00    +0.000 A 
ATOM     12  C   UNL     1      46.046   3.740   7.650  0.00  0.00    +0.000 A 
ATOM     13  C   UNL     1      46.734   3.190   6.571  0.00  0.00    +0.000 A 
ATOM     14  C   UNL     1      47.045   1.836   6.577  0.00  0.00    +0.000 A 
ATOM     15  C   UNL     1      46.652   1.085   7.672  0.00  0.00    +0.000 A 
ATOM     16  N   UNL     1      45.963   1.586   8.724  0.00  0.00    +0.000 NA
ENDBRANCH  10  11
BRANCH  10  17
ATOM     17  C   UNL     1      43.780   2.446  10.372  0.00  0.00    +0.000 C 
BRANCH  17  18
ATOM     18  C   UNL     1      43.498   2.452  11.870  0.00  0.00    +0.000 C 
BRANCH  18  19
ATOM     19  N   UNL     1      44.786   2.518  12.565  0.00  0.00    +0.000 NA
ATOM     20  H   UNL     1      45.156   3.465  12.526  0.00  0.00    +0.000 HD
ATOM     21  H   UNL     1      45.463   1.919  12.091  0.00  0.00    +0.000 HD
ENDBRANCH  18  19
ENDBRANCH  17  18
ENDBRANCH  10  17
ENDBRANCH   8  10
ENDBRANCH   7   8
ENDBRANCH   1   7
BRANCH   4  22
ATOM     22  C   UNL     1      48.656   6.858  13.883  0.00  0.00    +0.000 C 
BRANCH  22  23
ATOM     23  N   UNL     1      48.322   7.021  15.272  0.00  0.00    +0.000 N 
ATOM     24  C   UNL     1      49.201   6.655  16.257  0.00  0.00    +0.000 C 
ATOM     25  O   UNL     1      50.319   6.216  16.002  0.00  0.00    +0.000 OA
ATOM     26  H   UNL     1      47.340   7.152  15.496  0.00  0.00    +0.000 HD
BRANCH  24  27
ATOM     27  C   UNL     1      48.760   6.878  17.639  0.00  0.00    +0.000 A 
ATOM     28  C   UNL     1      48.367   8.150  18.034  0.00  0.00    +0.000 A 
ATOM     29  S   UNL     1      47.815   8.221  19.646  0.00  0.00    +0.000 S 
ATOM     30  C   UNL     1      48.132   6.566  19.887  0.00  0.00    +0.000 A 
ATOM     31  N   UNL     1      47.889   5.976  21.087  0.00  0.00    +0.000 NA
ATOM     32  C   UNL     1      48.201   4.725  21.139  0.00  0.00    +0.000 A 
ATOM     33  N   UNL     1      48.735   4.006  20.097  0.00  0.00    +0.000 N 
ATOM     34  C   UNL     1      48.979   4.557  18.861  0.00  0.00    +0.000 A 
ATOM     35  O   UNL     1      49.437   3.880  17.946  0.00  0.00    +0.000 OA
ATOM     36  C   UNL     1      48.643   5.964  18.750  0.00  0.00    +0.000 A 
ATOM     37  H   UNL     1      48.958   3.031  20.204  0.00  0.00    +0.000 HD
ENDBRANCH  24  27
ENDBRANCH  22  23
ENDBRANCH   4  22
TORSDOF 10
ENDMDL
MODEL 4
REMARK VINA RESULT:    -7.247      4.960      9.805
REMARK INTER + INTRA:         -12.298
REMARK INTER:                 -10.634
REMARK INTRA:                  -1.664
REMARK UNBOUND:                -1.026
REMARK  Name = 
REMARK  10 active torsions:
REMARK  status: ('A' for Active; 'I' for Inactive)
REMARK    1  A    between atoms: N_1  and  C_2
REMARK    2  A    between atoms: C_2  and  C_3
REMARK    3  A    between atoms: C_3  and  C_4
REMARK    4  A    between atoms: C_4  and  N_5
REMARK    5  A    between atoms: C_4  and  C_27
REMARK    6  A    between atoms: N_5  and  C_6
REMARK    7  A    between atoms: C_6  and  C_7
REMARK    8  A    between atoms: C_10  and  C_11
REMARK    9  A    between atoms: C_11  and  N_12
REMARK   10  A    between atoms: C_13  and  C_15
REMARK                            x       y       z     vdW  Elec       q    Type
REMARK                         _______ _______ _______ _____ _____    ______ ____
ROOT
ATOM      1  C   UNL     1      51.014   2.327  17.441  0.00  0.00    +0.000 A 
ATOM      2  C   UNL     1      51.674   3.559  17.544  0.00  0.00    +0.000 A 
ATOM      3  C   UNL     1      50.966   4.757  17.420  0.00  0.00    +0.000 A 
ATOM      4  C   UNL     1      49.583   4.741  17.198  0.00  0.00    +0.000 A 
ATOM      5  C   UNL     1      48.936   3.510  17.031  0.00  0.00    +0.000 A 
ATOM      6  C   UNL     1      49.644   2.314  17.155  0.00  0.00    +0.000 A 
ENDROOT
BRANCH   1   7
ATOM      7  C   UNL     1      51.778   1.029  17.531  0.00  0.00    +0.000 C 
BRANCH   7   8
ATOM      8  N   UNL     1      52.823   1.048  18.563  0.00  0.00    +0.000 NA
ATOM      9  H   UNL     1      52.565   0.378  19.289  0.00  0.00    +0.000 HD
BRANCH   8  10
ATOM     10  C   UNL     1      54.149   0.637  18.021  0.00  0.00    +0.000 C 
BRANCH  10  11
ATOM     11  C   UNL     1      54.413  -0.851  18.264  0.00  0.00    +0.000 A 
ATOM     12  C   UNL     1      54.927  -1.670  17.253  0.00  0.00    +0.000 A 
ATOM     13  C   UNL     1      55.096  -3.031  17.497  0.00  0.00    +0.000 A 
ATOM     14  C   UNL     1      54.776  -3.545  18.747  0.00  0.00    +0.000 A 
ATOM     15  C   UNL     1      54.299  -2.670  19.707  0.00  0.00    +0.000 A 
ATOM     16  N   UNL     1      54.103  -1.347  19.493  0.00  0.00    +0.000 NA
ENDBRANCH  10  11
BRANCH  10  17
ATOM     17  C   UNL     1      55.272   1.526  18.608  0.00  0.00    +0.000 C 
BRANCH  17  18
ATOM     18  C   UNL     1      54.895   2.338  19.841  0.00  0.00    +0.000 C 
BRANCH  18  19
ATOM     19  N   UNL     1      54.906   1.432  20.992  0.00  0.00    +0.000 NA
ATOM     20  H   UNL     1      55.853   1.103  21.167  0.00  0.00    +0.000 HD
ATOM     21  H   UNL     1      54.342   0.608  20.786  0.00  0.00    +0.000 HD
ENDBRANCH  18  19
ENDBRANCH  17  18
ENDBRANCH  10  17
ENDBRANCH   8  10
ENDBRANCH   7   8
ENDBRANCH   1   7
BRANCH   4  22
ATOM     22  C   UNL     1      48.795   6.019  17.105  0.00  0.00    +0.000 C 
BRANCH  22  23
ATOM     23  N   UNL     1      47.866   5.978  16.009  0.00  0.00    +0.000 N 
ATOM     24  C   UNL     1      48.250   6.340  14.744  0.00  0.00    +0.000 C 
ATOM     25  O   UNL     1      49.404   6.670  14.484  0.00  0.00    +0.000 OA
ATOM     26  H   UNL     1      46.879   5.940  16.243  0.00  0.00    +0.000 HD
BRANCH  24  27
ATOM     27  C   UNL     1      47.224   6.247  13.700  0.00  0.00    +0.000 A 
ATOM     28  C   UNL     1      46.784   7.403  13.068  0.00  0.00    +0.000 A 
ATOM     29  S   UNL     1      45.645   7.112  11.832  0.00  0.00    +0.000 S 
ATOM     30  C   UNL     1      45.660   5.436  12.135  0.00  0.00    +0.000 A 
ATOM     31  N   UNL     1      44.878   4.589  11.416  0.00  0.00    +0.000 NA
ATOM     32  C   UNL     1      44.967   3.351  11.769  0.00  0.00    +0.000 A 
ATOM     33  N   UNL     1      45.771   2.880  12.779  0.00  0.00    +0.000 N 
ATOM     34  C   UNL     1      46.592   3.698  13.519  0.00  0.00    +0.000 A 
ATOM     35  O   UNL     1      47.313   3.239  14.400  0.00  0.00    +0.000 OA
ATOM     36  C   UNL     1      46.530   5.102  13.160  0.00  0.00    +0.000 A 
ATOM     37  H   UNL     1      45.793   1.900  13.006  0.00  0.00    +0.000 HD
ENDBRANCH  24  27
ENDBRANCH  22  23
ENDBRANCH   4  22
TORSDOF 10
ENDMDL
MODEL 5
REMARK VINA RESULT:    -7.227      2.789      8.158
REMARK INTER + INTRA:         -12.266
REMARK INTER:                 -10.525
REMARK INTRA:                  -1.741
REMARK UNBOUND:                -1.026
REMARK  Name = 
REMARK  10 active torsions:
REMARK  status: ('A' for Active; 'I' for Inactive)
REMARK    1  A    between atoms: N_1  and  C_2
REMARK    2  A    between atoms: C_2  and  C_3
REMARK    3  A    between atoms: C_3  and  C_4
REMARK    4  A    between atoms: C_4  and  N_5
REMARK    5  A    between atoms: C_4  and  C_27
REMARK    6  A    between atoms: N_5  and  C_6
REMARK    7  A    between atoms: C_6  and  C_7
REMARK    8  A    between atoms: C_10  and  C_11
REMARK    9  A    between atoms: C_11  and  N_12
REMARK   10  A    between atoms: C_13  and  C_15
REMARK                            x       y       z     vdW  Elec       q    Type
REMARK                         _______ _______ _______ _____ _____    ______ ____
ROOT
ATOM      1  C   UNL     1      49.074   8.062  15.938  0.00  0.00    +0.000 A 
ATOM      2  C   UNL     1      48.156   9.008  15.461  0.00  0.00    +0.000 A 
ATOM      3  C   UNL     1      47.698   8.950  14.142  0.00  0.00    +0.000 A 
ATOM      4  C   UNL     1      48.145   7.940  13.282  0.00  0.00    +0.000 A 
ATOM      5  C   UNL     1      49.111   7.034  13.741  0.00  0.00    +0.000 A 
ATOM      6  C   UNL     1      49.568   7.092  15.057  0.00  0.00    +0.000 A 
ENDROOT
BRANCH   1   7
ATOM      7  C   UNL     1      49.606   8.142  17.348  0.00  0.00    +0.000 C 
BRANCH   7   8
ATOM      8  N   UNL     1      48.897   7.257  18.281  0.00  0.00    +0.000 NA
ATOM      9  H   UNL     1      48.051   6.921  17.818  0.00  0.00    +0.000 HD
BRANCH   8  10
ATOM     10  C   UNL     1      49.713   6.066  18.650  0.00  0.00    +0.000 C 
BRANCH  10  11
ATOM     11  C   UNL     1      49.242   4.815  17.903  0.00  0.00    +0.000 A 
ATOM     12  C   UNL     1      48.019   4.797  17.222  0.00  0.00    +0.000 A 
ATOM     13  C   UNL     1      47.600   3.621  16.605  0.00  0.00    +0.000 A 
ATOM     14  C   UNL     1      48.414   2.496  16.655  0.00  0.00    +0.000 A 
ATOM     15  C   UNL     1      49.622   2.598  17.324  0.00  0.00    +0.000 A 
ATOM     16  N   UNL     1      50.046   3.720  17.951  0.00  0.00    +0.000 NA
ENDBRANCH  10  11
BRANCH  10  17
ATOM     17  C   UNL     1      49.706   5.861  20.183  0.00  0.00    +0.000 C 
BRANCH  17  18
ATOM     18  C   UNL     1      48.388   5.382  20.780  0.00  0.00    +0.000 C 
BRANCH  18  19
ATOM     19  N   UNL     1      48.451   3.922  20.885  0.00  0.00    +0.000 NA
ATOM     20  H   UNL     1      47.576   3.561  21.258  0.00  0.00    +0.000 HD
ATOM     21  H   UNL     1      49.182   3.656  21.544  0.00  0.00    +0.000 HD
ENDBRANCH  18  19
ENDBRANCH  17  18
ENDBRANCH  10  17
ENDBRANCH   8  10
ENDBRANCH   7   8
ENDBRANCH   1   7
BRANCH   4  22
ATOM     22  C   UNL     1      47.631   7.834  11.872  0.00  0.00    +0.000 C 
BRANCH  22  23
ATOM     23  N   UNL     1      46.951   6.585  11.660  0.00  0.00    +0.000 N 
ATOM     24  C   UNL     1      45.595   6.482  11.832  0.00  0.00    +0.000 C 
ATOM     25  O   UNL     1      44.901   7.450  12.130  0.00  0.00    +0.000 OA
ATOM     26  H   UNL     1      47.522   5.746  11.649  0.00  0.00    +0.000 HD
BRANCH  24  27
ATOM     27  C   UNL     1      45.005   5.163  11.576  0.00  0.00    +0.000 A 
ATOM     28  C   UNL     1      44.321   4.510  12.594  0.00  0.00    +0.000 A 
ATOM     29  S   UNL     1      43.636   3.025  12.109  0.00  0.00    +0.000 S 
ATOM     30  C   UNL     1      44.274   3.179  10.538  0.00  0.00    +0.000 A 
ATOM     31  N   UNL     1      44.063   2.218   9.601  0.00  0.00    +0.000 NA
ATOM     32  C   UNL     1      44.626   2.449   8.463  0.00  0.00    +0.000 A 
ATOM     33  N   UNL     1      45.383   3.558   8.174  0.00  0.00    +0.000 N 
ATOM     34  C   UNL     1      45.607   4.564   9.084  0.00  0.00    +0.000 A 
ATOM     35  O   UNL     1      46.270   5.551   8.785  0.00  0.00    +0.000 OA
ATOM     36  C   UNL     1      44.992   4.353  10.381  0.00  0.00    +0.000 A 
ATOM     37  H   UNL     1      45.797   3.677   7.265  0.00  0.00    +0.000 HD
ENDBRANCH  24  27
ENDBRANCH  22  23
ENDBRANCH   4  22
TORSDOF 10
ENDMDL
MODEL 6
REMARK VINA RESULT:    -7.027      1.678      2.278
REMARK INTER + INTRA:         -11.957
REMARK INTER:                 -10.394
REMARK INTRA:                  -1.562
REMARK UNBOUND:                -1.026
REMARK  Name = 
REMARK  10 active torsions:
REMARK  status: ('A' for Active; 'I' for Inactive)
REMARK    1  A    between atoms: N_1  and  C_2
REMARK    2  A    between atoms: C_2  and  C_3
REMARK    3  A    between atoms: C_3  and  C_4
REMARK    4  A    between atoms: C_4  and  N_5
REMARK    5  A    between atoms: C_4  and  C_27
REMARK    6  A    between atoms: N_5  and  C_6
REMARK    7  A    between atoms: C_6  and  C_7
REMARK    8  A    between atoms: C_10  and  C_11
REMARK    9  A    between atoms: C_11  and  N_12
REMARK   10  A    between atoms: C_13  and  C_15
REMARK                            x       y       z     vdW  Elec       q    Type
REMARK                         _______ _______ _______ _____ _____    ______ ____
ROOT
ATOM      1  C   UNL     1      46.655   6.828  12.101  0.00  0.00    +0.000 A 
ATOM      2  C   UNL     1      47.768   7.362  11.435  0.00  0.00    +0.000 A 
ATOM      3  C   UNL     1      48.963   7.593  12.122  0.00  0.00    +0.000 A 
ATOM      4  C   UNL     1      49.066   7.285  13.484  0.00  0.00    +0.000 A 
ATOM      5  C   UNL     1      47.935   6.812  14.161  0.00  0.00    +0.000 A 
ATOM      6  C   UNL     1      46.742   6.582  13.476  0.00  0.00    +0.000 A 
ENDROOT
BRANCH   1   7
ATOM      7  C   UNL     1      45.348   6.616  11.377  0.00  0.00    +0.000 C 
BRANCH   7   8
ATOM      8  N   UNL     1      45.502   5.875  10.119  0.00  0.00    +0.000 NA
ATOM      9  H   UNL     1      46.491   5.885   9.863  0.00  0.00    +0.000 HD
BRANCH   8  10
ATOM     10  C   UNL     1      45.086   4.450  10.255  0.00  0.00    +0.000 C 
BRANCH  10  11
ATOM     11  C   UNL     1      45.629   3.599   9.104  0.00  0.00    +0.000 A 
ATOM     12  C   UNL     1      46.144   4.192   7.946  0.00  0.00    +0.000 A 
ATOM     13  C   UNL     1      46.572   3.382   6.898  0.00  0.00    +0.000 A 
ATOM     14  C   UNL     1      46.505   2.000   7.031  0.00  0.00    +0.000 A 
ATOM     15  C   UNL     1      46.009   1.486   8.216  0.00  0.00    +0.000 A 
ATOM     16  N   UNL     1      45.565   2.248   9.244  0.00  0.00    +0.000 NA
ENDBRANCH  10  11
BRANCH  10  17
ATOM     17  C   UNL     1      43.548   4.346  10.376  0.00  0.00    +0.000 C 
BRANCH  17  18
ATOM     18  C   UNL     1      43.027   3.683  11.646  0.00  0.00    +0.000 C 
BRANCH  18  19
ATOM     19  N   UNL     1      43.294   2.247  11.540  0.00  0.00    +0.000 NA
ATOM     20  H   UNL     1      42.538   1.788  11.035  0.00  0.00    +0.000 HD
ATOM     21  H   UNL     1      43.318   1.832  12.471  0.00  0.00    +0.000 HD
ENDBRANCH  18  19
ENDBRANCH  17  18
ENDBRANCH  10  17
ENDBRANCH   8  10
ENDBRANCH   7   8
ENDBRANCH   1   7
BRANCH   4  22
ATOM     22  C   UNL     1      50.356   7.485  14.231  0.00  0.00    +0.000 C 
BRANCH  22  23
ATOM     23  N   UNL     1      50.205   7.164  15.625  0.00  0.00    +0.000 N 
ATOM     24  C   UNL     1      51.267   6.714  16.365  0.00  0.00    +0.000 C 
ATOM     25  O   UNL     1      52.394   6.607  15.888  0.00  0.00    +0.000 OA
ATOM     26  H   UNL     1      49.259   7.021  15.963  0.00  0.00    +0.000 HD
BRANCH  24  27
ATOM     27  C   UNL     1      51.001   6.430  17.779  0.00  0.00    +0.000 A 
ATOM     28  C   UNL     1      51.726   7.095  18.759  0.00  0.00    +0.000 A 
ATOM     29  S   UNL     1      51.243   6.704  20.347  0.00  0.00    +0.000 S 
ATOM     30  C   UNL     1      50.084   5.593  19.781  0.00  0.00    +0.000 A 
ATOM     31  N   UNL     1      49.313   4.884  20.648  0.00  0.00    +0.000 NA
ATOM     32  C   UNL     1      48.498   4.058  20.084  0.00  0.00    +0.000 A 
ATOM     33  N   UNL     1      48.381   3.874  18.728  0.00  0.00    +0.000 N 
ATOM     34  C   UNL     1      49.127   4.582  17.814  0.00  0.00    +0.000 A 
ATOM     35  O   UNL     1      48.981   4.407  16.609  0.00  0.00    +0.000 OA
ATOM     36  C   UNL     1      50.059   5.527  18.398  0.00  0.00    +0.000 A 
ATOM     37  H   UNL     1      47.725   3.211  18.352  0.00  0.00    +0.000 HD
ENDBRANCH  24  27
ENDBRANCH  22  23
ENDBRANCH   4  22
TORSDOF 10
ENDMDL
MODEL 7
REMARK VINA RESULT:    -6.987      2.991      7.929
REMARK INTER + INTRA:         -11.893
REMARK INTER:                 -10.300
REMARK INTRA:                  -1.594
REMARK UNBOUND:                -1.026
REMARK  Name = 
REMARK  10 active torsions:
REMARK  status: ('A' for Active; 'I' for Inactive)
REMARK    1  A    between atoms: N_1  and  C_2
REMARK    2  A    between atoms: C_2  and  C_3
REMARK    3  A    between atoms: C_3  and  C_4
REMARK    4  A    between atoms: C_4  and  N_5
REMARK    5  A    between atoms: C_4  and  C_27
REMARK    6  A    between atoms: N_5  and  C_6
REMARK    7  A    between atoms: C_6  and  C_7
REMARK    8  A    between atoms: C_10  and  C_11
REMARK    9  A    between atoms: C_11  and  N_12
REMARK   10  A    between atoms: C_13  and  C_15
REMARK                            x       y       z     vdW  Elec       q    Type
REMARK                         _______ _______ _______ _____ _____    ______ ____
ROOT
ATOM      1  C   UNL     1      48.860   7.807  16.257  0.00  0.00    +0.000 A 
ATOM      2  C   UNL     1      49.209   6.754  15.399  0.00  0.00    +0.000 A 
ATOM      3  C   UNL     1      49.000   6.862  14.022  0.00  0.00    +0.000 A 
ATOM      4  C   UNL     1      48.445   8.028  13.480  0.00  0.00    +0.000 A 
ATOM      5  C   UNL     1      48.038   9.052  14.345  0.00  0.00    +0.000 A 
ATOM      6  C   UNL     1      48.247   8.944  15.720  0.00  0.00    +0.000 A 
ENDROOT
BRANCH   1   7
ATOM      7  C   UNL     1      49.043   7.682  17.750  0.00  0.00    +0.000 C 
BRANCH   7   8
ATOM      8  N   UNL     1      50.116   6.750  18.121  0.00  0.00    +0.000 NA
ATOM      9  H   UNL     1      50.808   7.266  18.668  0.00  0.00    +0.000 HD
BRANCH   8  10
ATOM     10  C   UNL     1      49.615   5.630  18.967  0.00  0.00    +0.000 C 
BRANCH  10  11
ATOM     11  C   UNL     1      49.423   4.354  18.143  0.00  0.00    +0.000 A 
ATOM     12  C   UNL     1      50.514   3.553  17.785  0.00  0.00    +0.000 A 
ATOM     13  C   UNL     1      50.303   2.433  16.985  0.00  0.00    +0.000 A 
ATOM     14  C   UNL     1      49.012   2.115  16.580  0.00  0.00    +0.000 A 
ATOM     15  C   UNL     1      47.980   2.938  16.997  0.00  0.00    +0.000 A 
ATOM     16  N   UNL     1      48.157   4.046  17.756  0.00  0.00    +0.000 NA
ENDBRANCH  10  11
BRANCH  10  17
ATOM     17  C   UNL     1      48.317   6.045  19.700  0.00  0.00    +0.000 C 
BRANCH  17  18
ATOM     18  C   UNL     1      48.151   5.498  21.112  0.00  0.00    +0.000 C 
BRANCH  18  19
ATOM     19  N   UNL     1      48.305   4.042  21.047  0.00  0.00    +0.000 NA
ATOM     20  H   UNL     1      49.290   3.798  20.978  0.00  0.00    +0.000 HD
ATOM     21  H   UNL     1      47.856   3.687  20.202  0.00  0.00    +0.000 HD
ENDBRANCH  18  19
ENDBRANCH  17  18
ENDBRANCH  10  17
ENDBRANCH   8  10
ENDBRANCH   7   8
ENDBRANCH   1   7
BRANCH   4  22
ATOM     22  C   UNL     1      48.253   8.182  11.996  0.00  0.00    +0.000 C 
BRANCH  22  23
ATOM     23  N   UNL     1      47.570   7.045  11.440  0.00  0.00    +0.000 N 
ATOM     24  C   UNL     1      46.202   7.000  11.385  0.00  0.00    +0.000 C 
ATOM     25  O   UNL     1      45.504   7.937  11.764  0.00  0.00    +0.000 OA
ATOM     26  H   UNL     1      48.106   6.188  11.346  0.00  0.00    +0.000 HD
BRANCH  24  27
ATOM     27  C   UNL     1      45.613   5.797  10.786  0.00  0.00    +0.000 A 
ATOM     28  C   UNL     1      45.805   5.543   9.433  0.00  0.00    +0.000 A 
ATOM     29  S   UNL     1      45.119   4.070   8.914  0.00  0.00    +0.000 S 
ATOM     30  C   UNL     1      44.497   3.747  10.465  0.00  0.00    +0.000 A 
ATOM     31  N   UNL     1      43.777   2.621  10.709  0.00  0.00    +0.000 NA
ATOM     32  C   UNL     1      43.343   2.517  11.919  0.00  0.00    +0.000 A 
ATOM     33  N   UNL     1      43.565   3.438  12.914  0.00  0.00    +0.000 N 
ATOM     34  C   UNL     1      44.304   4.581  12.718  0.00  0.00    +0.000 A 
ATOM     35  O   UNL     1      44.500   5.372  13.635  0.00  0.00    +0.000 OA
ATOM     36  C   UNL     1      44.817   4.745  11.371  0.00  0.00    +0.000 A 
ATOM     37  H   UNL     1      43.196   3.296  13.839  0.00  0.00    +0.000 HD
ENDBRANCH  24  27
ENDBRANCH  22  23
ENDBRANCH   4  22
TORSDOF 10
ENDMDL
MODEL 8
REMARK VINA RESULT:    -6.928      3.028      7.907
REMARK INTER + INTRA:         -11.802
REMARK INTER:                  -9.649
REMARK INTRA:                  -2.153
REMARK UNBOUND:                -1.026
REMARK  Name = 
REMARK  10 active torsions:
REMARK  status: ('A' for Active; 'I' for Inactive)
REMARK    1  A    between atoms: N_1  and  C_2
REMARK    2  A    between atoms: C_2  and  C_3
REMARK    3  A    between atoms: C_3  and  C_4
REMARK    4  A    between atoms: C_4  and  N_5
REMARK    5  A    between atoms: C_4  and  C_27
REMARK    6  A    between atoms: N_5  and  C_6
REMARK    7  A    between atoms: C_6  and  C_7
REMARK    8  A    between atoms: C_10  and  C_11
REMARK    9  A    between atoms: C_11  and  N_12
REMARK   10  A    between atoms: C_13  and  C_15
REMARK                            x       y       z     vdW  Elec       q    Type
REMARK                         _______ _______ _______ _____ _____    ______ ____
ROOT
ATOM      1  C   UNL     1      51.419   6.940  17.049  0.00  0.00    +0.000 A 
ATOM      2  C   UNL     1      50.521   7.684  17.827  0.00  0.00    +0.000 A 
ATOM      3  C   UNL     1      49.515   8.441  17.221  0.00  0.00    +0.000 A 
ATOM      4  C   UNL     1      49.386   8.459  15.827  0.00  0.00    +0.000 A 
ATOM      5  C   UNL     1      50.323   7.766  15.049  0.00  0.00    +0.000 A 
ATOM      6  C   UNL     1      51.327   7.011  15.654  0.00  0.00    +0.000 A 
ENDROOT
BRANCH   1   7
ATOM      7  C   UNL     1      52.534   6.154  17.693  0.00  0.00    +0.000 C 
BRANCH   7   8
ATOM      8  N   UNL     1      52.049   5.068  18.555  0.00  0.00    +0.000 NA
ATOM      9  H   UNL     1      51.176   5.373  18.988  0.00  0.00    +0.000 HD
BRANCH   8  10
ATOM     10  C   UNL     1      51.761   3.828  17.781  0.00  0.00    +0.000 C 
BRANCH  10  11
ATOM     11  C   UNL     1      50.253   3.608  17.624  0.00  0.00    +0.000 A 
ATOM     12  C   UNL     1      49.335   4.289  18.431  0.00  0.00    +0.000 A 
ATOM     13  C   UNL     1      47.976   4.016  18.296  0.00  0.00    +0.000 A 
ATOM     14  C   UNL     1      47.555   3.094  17.345  0.00  0.00    +0.000 A 
ATOM     15  C   UNL     1      48.519   2.481  16.564  0.00  0.00    +0.000 A 
ATOM     16  N   UNL     1      49.848   2.709  16.687  0.00  0.00    +0.000 NA
ENDBRANCH  10  11
BRANCH  10  17
ATOM     17  C   UNL     1      52.457   2.610  18.433  0.00  0.00    +0.000 C 
BRANCH  17  18
ATOM     18  C   UNL     1      52.611   1.382  17.544  0.00  0.00    +0.000 C 
BRANCH  18  19
ATOM     19  N   UNL     1      51.688   0.356  18.036  0.00  0.00    +0.000 NA
ATOM     20  H   UNL     1      50.814   0.786  18.329  0.00  0.00    +0.000 HD
ATOM     21  H   UNL     1      52.084  -0.094  18.861  0.00  0.00    +0.000 HD
ENDBRANCH  18  19
ENDBRANCH  17  18
ENDBRANCH  10  17
ENDBRANCH   8  10
ENDBRANCH   7   8
ENDBRANCH   1   7
BRANCH   4  22
ATOM     22  C   UNL     1      48.283   9.232  15.157  0.00  0.00    +0.000 C 
BRANCH  22  23
ATOM     23  N   UNL     1      47.322   8.348  14.554  0.00  0.00    +0.000 N 
ATOM     24  C   UNL     1      47.234   8.226  13.191  0.00  0.00    +0.000 C 
ATOM     25  O   UNL     1      47.992   8.826  12.434  0.00  0.00    +0.000 OA
ATOM     26  H   UNL     1      46.552   8.038  15.138  0.00  0.00    +0.000 HD
BRANCH  24  27
ATOM     27  C   UNL     1      46.227   7.286  12.686  0.00  0.00    +0.000 A 
ATOM     28  C   UNL     1      45.156   7.766  11.943  0.00  0.00    +0.000 A 
ATOM     29  S   UNL     1      44.120   6.537  11.371  0.00  0.00    +0.000 S 
ATOM     30  C   UNL     1      45.037   5.328  12.141  0.00  0.00    +0.000 A 
ATOM     31  N   UNL     1      44.677   4.020  12.060  0.00  0.00    +0.000 NA
ATOM     32  C   UNL     1      45.444   3.214  12.714  0.00  0.00    +0.000 A 
ATOM     33  N   UNL     1      46.543   3.596  13.444  0.00  0.00    +0.000 N 
ATOM     34  C   UNL     1      46.954   4.905  13.538  0.00  0.00    +0.000 A 
ATOM     35  O   UNL     1      47.954   5.208  14.182  0.00  0.00    +0.000 OA
ATOM     36  C   UNL     1      46.125   5.853  12.819  0.00  0.00    +0.000 A 
ATOM     37  H   UNL     1      47.099   2.916  13.933  0.00  0.00    +0.000 HD
ENDBRANCH  24  27
ENDBRANCH  22  23
ENDBRANCH   4  22
TORSDOF 10
ENDMDL
MODEL 9
REMARK VINA RESULT:    -6.890      5.212      7.216
REMARK INTER + INTRA:         -11.743
REMARK INTER:                 -10.608
REMARK INTRA:                  -1.136
REMARK UNBOUND:                -1.026
REMARK  Name = 
REMARK  10 active torsions:
REMARK  status: ('A' for Active; 'I' for Inactive)
REMARK    1  A    between atoms: N_1  and  C_2
REMARK    2  A    between atoms: C_2  and  C_3
REMARK    3  A    between atoms: C_3  and  C_4
REMARK    4  A    between atoms: C_4  and  N_5
REMARK    5  A    between atoms: C_4  and  C_27
REMARK    6  A    between atoms: N_5  and  C_6
REMARK    7  A    between atoms: C_6  and  C_7
REMARK    8  A    between atoms: C_10  and  C_11
REMARK    9  A    between atoms: C_11  and  N_12
REMARK   10  A    between atoms: C_13  and  C_15
REMARK                            x       y       z     vdW  Elec       q    Type
REMARK                         _______ _______ _______ _____ _____    ______ ____
ROOT
ATOM      1  C   UNL     1      47.178   6.145  13.311  0.00  0.00    +0.000 A 
ATOM      2  C   UNL     1      47.299   6.633  12.003  0.00  0.00    +0.000 A 
ATOM      3  C   UNL     1      48.448   7.323  11.606  0.00  0.00    +0.000 A 
ATOM      4  C   UNL     1      49.497   7.528  12.510  0.00  0.00    +0.000 A 
ATOM      5  C   UNL     1      49.347   7.095  13.834  0.00  0.00    +0.000 A 
ATOM      6  C   UNL     1      48.201   6.407  14.230  0.00  0.00    +0.000 A 
ENDROOT
BRANCH   1   7
ATOM      7  C   UNL     1      45.924   5.436  13.760  0.00  0.00    +0.000 C 
BRANCH   7   8
ATOM      8  N   UNL     1      45.755   4.117  13.137  0.00  0.00    +0.000 NA
ATOM      9  H   UNL     1      45.770   3.413  13.877  0.00  0.00    +0.000 HD
BRANCH   8  10
ATOM     10  C   UNL     1      44.450   3.998  12.428  0.00  0.00    +0.000 C 
BRANCH  10  11
ATOM     11  C   UNL     1      44.651   3.786  10.924  0.00  0.00    +0.000 A 
ATOM     12  C   UNL     1      44.299   2.579  10.310  0.00  0.00    +0.000 A 
ATOM     13  C   UNL     1      44.554   2.406   8.952  0.00  0.00    +0.000 A 
ATOM     14  C   UNL     1      45.126   3.443   8.226  0.00  0.00    +0.000 A 
ATOM     15  C   UNL     1      45.421   4.618   8.896  0.00  0.00    +0.000 A 
ATOM     16  N   UNL     1      45.206   4.808  10.219  0.00  0.00    +0.000 NA
ENDBRANCH  10  11
BRANCH  10  17
ATOM     17  C   UNL     1      43.559   5.228  12.724  0.00  0.00    +0.000 C 
BRANCH  17  18
ATOM     18  C   UNL     1      42.366   5.419  11.795  0.00  0.00    +0.000 C 
BRANCH  18  19
ATOM     19  N   UNL     1      42.587   6.651  11.033  0.00  0.00    +0.000 NA
ATOM     20  H   UNL     1      42.328   6.509  10.060  0.00  0.00    +0.000 HD
ATOM     21  H   UNL     1      43.579   6.886  11.042  0.00  0.00    +0.000 HD
ENDBRANCH  18  19
ENDBRANCH  17  18
ENDBRANCH  10  17
ENDBRANCH   8  10
ENDBRANCH   7   8
ENDBRANCH   1   7
BRANCH   4  22
ATOM     22  C   UNL     1      50.760   8.229  12.091  0.00  0.00    +0.000 C 
BRANCH  22  23
ATOM     23  N   UNL     1      51.354   7.591  10.947  0.00  0.00    +0.000 N 
ATOM     24  C   UNL     1      52.451   8.130  10.328  0.00  0.00    +0.000 C 
ATOM     25  O   UNL     1      52.997   9.149  10.742  0.00  0.00    +0.000 OA
ATOM     26  H   UNL     1      50.790   6.901  10.461  0.00  0.00    +0.000 HD
BRANCH  24  27
ATOM     27  C   UNL     1      52.981   7.387   9.179  0.00  0.00    +0.000 A 
ATOM     28  C   UNL     1      53.374   6.065   9.343  0.00  0.00    +0.000 A 
ATOM     29  S   UNL     1      53.897   5.327   7.896  0.00  0.00    +0.000 S 
ATOM     30  C   UNL     1      53.665   6.764   7.013  0.00  0.00    +0.000 A 
ATOM     31  N   UNL     1      53.945   6.820   5.684  0.00  0.00    +0.000 NA
ATOM     32  C   UNL     1      53.751   7.977   5.147  0.00  0.00    +0.000 A 
ATOM     33  N   UNL     1      53.301   9.088   5.818  0.00  0.00    +0.000 N 
ATOM     34  C   UNL     1      52.988   9.072   7.157  0.00  0.00    +0.000 A 
ATOM     35  O   UNL     1      52.567  10.078   7.719  0.00  0.00    +0.000 OA
ATOM     36  C   UNL     1      53.187   7.792   7.809  0.00  0.00    +0.000 A 
ATOM     37  H   UNL     1      53.172   9.963   5.339  0.00  0.00    +0.000 HD
ENDBRANCH  24  27
ENDBRANCH  22  23
ENDBRANCH   4  22
TORSDOF 10
ENDMDL
