MODEL 1
REMARK VINA RESULT:    -8.327      0.000      0.000
REMARK INTER + INTRA:         -10.721
REMARK INTER:                 -10.274
REMARK INTRA:                  -0.447
REMARK UNBOUND:                -0.447
REMARK  Name = 
REMARK  4 active torsions:
REMARK  status: ('A' for Active; 'I' for Inactive)
REMARK    1  A    between atoms: C_2  and  C_4
REMARK    2  A    between atoms: C_7  and  N_8
REMARK    3  A    between atoms: N_8  and  C_9
REMARK    4  A    between atoms: C_9  and  C_10
REMARK                            x       y       z     vdW  Elec       q    Type
REMARK                         _______ _______ _______ _____ _____    ______ ____
ROOT
ATOM      1  C   UNL     1      46.428   2.319   7.720  0.00  0.00    +0.000 A 
ATOM      2  C   UNL     1      46.435   3.677   7.454  0.00  0.00    +0.000 A 
ATOM      3  N   UNL     1      45.594   4.548   8.075  0.00  0.00    +0.000 NA
ATOM      4  C   UNL     1      44.742   4.032   8.989  0.00  0.00    +0.000 A 
ATOM      5  C   UNL     1      44.729   2.646   9.212  0.00  0.00    +0.000 A 
ATOM      6  N   UNL     1      45.565   1.757   8.609  0.00  0.00    +0.000 NA
ENDROOT
BRANCH   1   8
ATOM      7  N   UNL     1      48.525   2.019   6.545  0.00  0.00    +0.000 N 
ATOM      8  C   UNL     1      47.390   1.420   7.022  0.00  0.00    +0.000 C 
ATOM      9  O   UNL     1      47.186   0.220   6.878  0.00  0.00    +0.000 OA
ATOM     10  H   UNL     1      49.218   1.465   6.062  0.00  0.00    +0.000 HD
ATOM     11  H   UNL     1      48.669   3.014   6.682  0.00  0.00    +0.000 HD
ENDBRANCH   1   8
BRANCH   4  12
ATOM     12  N   UNL     1      43.828   4.858   9.683  0.00  0.00    +0.000 N 
ATOM     13  H   UNL     1      42.891   4.779   9.302  0.00  0.00    +0.000 HD
BRANCH  12  14
ATOM     14  C   UNL     1      43.858   4.940  11.166  0.00  0.00    +0.000 C 
ATOM     15  C   UNL     1      42.876   4.163  12.033  0.00  0.00    +0.000 C 
ATOM     16  C   UNL     1      42.664   5.624  11.840  0.00  0.00    +0.000 C 
BRANCH  14  17
ATOM     17  C   UNL     1      45.220   5.311  11.751  0.00  0.00    +0.000 A 
ATOM     18  C   UNL     1      45.958   6.401  11.250  0.00  0.00    +0.000 A 
ATOM     19  C   UNL     1      47.131   6.838  11.871  0.00  0.00    +0.000 A 
ATOM     20  C   UNL     1      47.600   6.183  13.005  0.00  0.00    +0.000 A 
ATOM     21  C   UNL     1      46.919   5.070  13.492  0.00  0.00    +0.000 A 
ATOM     22  C   UNL     1      45.751   4.634  12.860  0.00  0.00    +0.000 A 
ENDBRANCH  14  17
ENDBRANCH  12  14
ENDBRANCH   4  12
TORSDOF 4
ENDMDL
MODEL 2
REMARK VINA RESULT:    -8.057      0.665      1.584
REMARK INTER + INTRA:         -10.388
REMARK INTER:                  -9.909
REMARK INTRA:                  -0.479
REMARK UNBOUND:                -0.447
REMARK  Name = 
REMARK  4 active torsions:
REMARK  status: ('A' for Active; 'I' for Inactive)
REMARK    1  A    between atoms: C_2  and  C_4
REMARK    2  A    between atoms: C_7  and  N_8
REMARK    3  A    between atoms: N_8  and  C_9
REMARK    4  A    between atoms: C_9  and  C_10
REMARK                            x       y       z     vdW  Elec       q    Type
REMARK                         _______ _______ _______ _____ _____    ______ ____
ROOT
ATOM      1  C   UNL     1      46.488   2.572   7.700  0.00  0.00    +0.000 A 
ATOM      2  C   UNL     1      45.645   1.960   8.611  0.00  0.00    +0.000 A 
ATOM      3  N   UNL     1      44.763   2.658   9.375  0.00  0.00    +0.000 NA
ATOM      4  C   UNL     1      44.726   3.998   9.201  0.00  0.00    +0.000 A 
ATOM      5  C   UNL     1      45.618   4.598   8.297  0.00  0.00    +0.000 A 
ATOM      6  N   UNL     1      46.503   3.920   7.517  0.00  0.00    +0.000 NA
ENDROOT
BRANCH   1   8
ATOM      7  N   UNL     1      48.524   2.397   6.400  0.00  0.00    +0.000 N 
ATOM      8  C   UNL     1      47.417   1.748   6.877  0.00  0.00    +0.000 C 
ATOM      9  O   UNL     1      47.211   0.564   6.636  0.00  0.00    +0.000 OA
ATOM     10  H   UNL     1      49.194   1.895   5.835  0.00  0.00    +0.000 HD
ATOM     11  H   UNL     1      48.671   3.378   6.618  0.00  0.00    +0.000 HD
ENDBRANCH   1   8
BRANCH   4  12
ATOM     12  N   UNL     1      43.845   4.809   9.952  0.00  0.00    +0.000 N 
ATOM     13  H   UNL     1      42.894   4.746   9.607  0.00  0.00    +0.000 HD
BRANCH  12  14
ATOM     14  C   UNL     1      43.934   4.851  11.435  0.00  0.00    +0.000 C 
ATOM     15  C   UNL     1      43.150   3.885  12.313  0.00  0.00    +0.000 C 
ATOM     16  C   UNL     1      42.673   5.289  12.186  0.00  0.00    +0.000 C 
BRANCH  14  17
ATOM     17  C   UNL     1      45.236   5.441  11.974  0.00  0.00    +0.000 A 
ATOM     18  C   UNL     1      45.939   4.824  13.026  0.00  0.00    +0.000 A 
ATOM     19  C   UNL     1      47.201   5.271  13.425  0.00  0.00    +0.000 A 
ATOM     20  C   UNL     1      47.785   6.360  12.786  0.00  0.00    +0.000 A 
ATOM     21  C   UNL     1      47.090   7.023  11.778  0.00  0.00    +0.000 A 
ATOM     22  C   UNL     1      45.824   6.575  11.389  0.00  0.00    +0.000 A 
ENDBRANCH  14  17
ENDBRANCH  12  14
ENDBRANCH   4  12
TORSDOF 4
ENDMDL
MODEL 3
REMARK VINA RESULT:    -6.480      3.815      6.229
REMARK INTER + INTRA:          -8.442
REMARK INTER:                  -8.300
REMARK INTRA:                  -0.142
REMARK UNBOUND:                -0.447
REMARK  Name = 
REMARK  4 active torsions:
REMARK  status: ('A' for Active; 'I' for Inactive)
REMARK    1  A    between atoms: C_2  and  C_4
REMARK    2  A    between atoms: C_7  and  N_8
REMARK    3  A    between atoms: N_8  and  C_9
REMARK    4  A    between atoms: C_9  and  C_10
REMARK                            x       y       z     vdW  Elec       q    Type
REMARK                         _______ _______ _______ _____ _____    ______ ____
ROOT
ATOM      1  C   UNL     1      47.768   5.833  14.459  0.00  0.00    +0.000 A 
ATOM      2  C   UNL     1      47.416   4.643  15.071  0.00  0.00    +0.000 A 
ATOM      3  N   UNL     1      46.645   3.705  14.458  0.00  0.00    +0.000 NA
ATOM      4  C   UNL     1      46.236   3.974  13.198  0.00  0.00    +0.000 A 
ATOM      5  C   UNL     1      46.575   5.205  12.614  0.00  0.00    +0.000 A 
ATOM      6  N   UNL     1      47.351   6.155  13.204  0.00  0.00    +0.000 NA
ENDROOT
BRANCH   1   8
ATOM      7  N   UNL     1      48.082   8.043  15.398  0.00  0.00    +0.000 N 
ATOM      8  C   UNL     1      48.634   6.810  15.176  0.00  0.00    +0.000 C 
ATOM      9  O   UNL     1      49.770   6.537  15.547  0.00  0.00    +0.000 OA
ATOM     10  H   UNL     1      48.617   8.752  15.880  0.00  0.00    +0.000 HD
ATOM     11  H   UNL     1      47.137   8.241  15.083  0.00  0.00    +0.000 HD
ENDBRANCH   1   8
BRANCH   4  12
ATOM     12  N   UNL     1      45.428   3.062  12.481  0.00  0.00    +0.000 N 
ATOM     13  H   UNL     1      45.040   2.350  13.089  0.00  0.00    +0.000 HD
BRANCH  12  14
ATOM     14  C   UNL     1      44.471   3.546  11.452  0.00  0.00    +0.000 C 
ATOM     15  C   UNL     1      43.400   4.578  11.775  0.00  0.00    +0.000 C 
ATOM     16  C   UNL     1      43.004   3.150  11.639  0.00  0.00    +0.000 C 
BRANCH  14  17
ATOM     17  C   UNL     1      44.983   3.443  10.015  0.00  0.00    +0.000 A 
ATOM     18  C   UNL     1      45.292   4.594   9.265  0.00  0.00    +0.000 A 
ATOM     19  C   UNL     1      45.898   4.508   8.009  0.00  0.00    +0.000 A 
ATOM     20  C   UNL     1      46.196   3.262   7.467  0.00  0.00    +0.000 A 
ATOM     21  C   UNL     1      45.853   2.106   8.164  0.00  0.00    +0.000 A 
ATOM     22  C   UNL     1      45.240   2.200   9.416  0.00  0.00    +0.000 A 
ENDBRANCH  14  17
ENDBRANCH  12  14
ENDBRANCH   4  12
TORSDOF 4
ENDMDL
MODEL 4
REMARK VINA RESULT:    -5.976      3.704      6.291
REMARK INTER + INTRA:          -7.820
REMARK INTER:                  -8.416
REMARK INTRA:                   0.596
REMARK UNBOUND:                -0.447
REMARK  Name = 
REMARK  4 active torsions:
REMARK  status: ('A' for Active; 'I' for Inactive)
REMARK    1  A    between atoms: C_2  and  C_4
REMARK    2  A    between atoms: C_7  and  N_8
REMARK    3  A    between atoms: N_8  and  C_9
REMARK    4  A    between atoms: C_9  and  C_10
REMARK                            x       y       z     vdW  Elec       q    Type
REMARK                         _______ _______ _______ _____ _____    ______ ____
ROOT
ATOM      1  C   UNL     1      47.202   7.829  13.434  0.00  0.00    +0.000 A 
ATOM      2  C   UNL     1      47.578   6.706  12.716  0.00  0.00    +0.000 A 
ATOM      3  N   UNL     1      46.767   6.123  11.794  0.00  0.00    +0.000 NA
ATOM      4  C   UNL     1      45.561   6.696  11.586  0.00  0.00    +0.000 A 
ATOM      5  C   UNL     1      45.189   7.812  12.353  0.00  0.00    +0.000 A 
ATOM      6  N   UNL     1      45.985   8.417  13.276  0.00  0.00    +0.000 NA
ENDROOT
BRANCH   1   8
ATOM      7  N   UNL     1      47.570   9.165  15.420  0.00  0.00    +0.000 N 
ATOM      8  C   UNL     1      48.145   8.434  14.415  0.00  0.00    +0.000 C 
ATOM      9  O   UNL     1      49.360   8.293  14.336  0.00  0.00    +0.000 OA
ATOM     10  H   UNL     1      48.155   9.601  16.119  0.00  0.00    +0.000 HD
ATOM     11  H   UNL     1      46.561   9.262  15.463  0.00  0.00    +0.000 HD
ENDBRANCH   1   8
BRANCH   4  12
ATOM     12  N   UNL     1      44.647   6.159  10.649  0.00  0.00    +0.000 N 
ATOM     13  H   UNL     1      44.815   6.519   9.716  0.00  0.00    +0.000 HD
BRANCH  12  14
ATOM     14  C   UNL     1      44.302   4.714  10.673  0.00  0.00    +0.000 C 
ATOM     15  C   UNL     1      43.018   4.206  11.313  0.00  0.00    +0.000 C 
ATOM     16  C   UNL     1      44.303   4.031  12.043  0.00  0.00    +0.000 C 
BRANCH  14  17
ATOM     17  C   UNL     1      44.937   3.895   9.550  0.00  0.00    +0.000 A 
ATOM     18  C   UNL     1      45.675   4.512   8.522  0.00  0.00    +0.000 A 
ATOM     19  C   UNL     1      46.381   3.764   7.576  0.00  0.00    +0.000 A 
ATOM     20  C   UNL     1      46.353   2.374   7.631  0.00  0.00    +0.000 A 
ATOM     21  C   UNL     1      45.588   1.736   8.605  0.00  0.00    +0.000 A 
ATOM     22  C   UNL     1      44.879   2.492   9.542  0.00  0.00    +0.000 A 
ENDBRANCH  14  17
ENDBRANCH  12  14
ENDBRANCH   4  12
TORSDOF 4
ENDMDL
MODEL 5
REMARK VINA RESULT:    -5.846      4.347      6.512
REMARK INTER + INTRA:          -7.660
REMARK INTER:                  -8.057
REMARK INTRA:                   0.397
REMARK UNBOUND:                -0.447
REMARK  Name = 
REMARK  4 active torsions:
REMARK  status: ('A' for Active; 'I' for Inactive)
REMARK    1  A    between atoms: C_2  and  C_4
REMARK    2  A    between atoms: C_7  and  N_8
REMARK    3  A    between atoms: N_8  and  C_9
REMARK    4  A    between atoms: C_9  and  C_10
REMARK                            x       y       z     vdW  Elec       q    Type
REMARK                         _______ _______ _______ _____ _____    ______ ____
ROOT
ATOM      1  C   UNL     1      47.652   4.142  15.914  0.00  0.00    +0.000 A 
ATOM      2  C   UNL     1      47.902   5.488  15.708  0.00  0.00    +0.000 A 
ATOM      3  N   UNL     1      47.701   6.093  14.506  0.00  0.00    +0.000 NA
ATOM      4  C   UNL     1      47.224   5.322  13.503  0.00  0.00    +0.000 A 
ATOM      5  C   UNL     1      47.015   3.953  13.728  0.00  0.00    +0.000 A 
ATOM      6  N   UNL     1      47.202   3.327  14.922  0.00  0.00    +0.000 NA
ENDROOT
BRANCH   1   8
ATOM      7  N   UNL     1      46.881   2.715  17.713  0.00  0.00    +0.000 N 
ATOM      8  C   UNL     1      47.872   3.543  17.260  0.00  0.00    +0.000 C 
ATOM      9  O   UNL     1      48.874   3.773  17.928  0.00  0.00    +0.000 OA
ATOM     10  H   UNL     1      46.970   2.276  18.618  0.00  0.00    +0.000 HD
ATOM     11  H   UNL     1      46.064   2.540  17.136  0.00  0.00    +0.000 HD
ENDBRANCH   1   8
BRANCH   4  12
ATOM     12  N   UNL     1      46.987   5.861  12.217  0.00  0.00    +0.000 N 
ATOM     13  H   UNL     1      47.653   5.512  11.538  0.00  0.00    +0.000 HD
BRANCH  12  14
ATOM     14  C   UNL     1      45.603   5.970  11.686  0.00  0.00    +0.000 C 
ATOM     15  C   UNL     1      44.843   7.290  11.692  0.00  0.00    +0.000 C 
ATOM     16  C   UNL     1      44.498   6.258  12.707  0.00  0.00    +0.000 C 
BRANCH  14  17
ATOM     17  C   UNL     1      45.245   4.921  10.635  0.00  0.00    +0.000 A 
ATOM     18  C   UNL     1      45.587   5.098   9.280  0.00  0.00    +0.000 A 
ATOM     19  C   UNL     1      45.397   4.083   8.339  0.00  0.00    +0.000 A 
ATOM     20  C   UNL     1      44.846   2.867   8.732  0.00  0.00    +0.000 A 
ATOM     21  C   UNL     1      44.450   2.683  10.054  0.00  0.00    +0.000 A 
ATOM     22  C   UNL     1      44.636   3.706  10.989  0.00  0.00    +0.000 A 
ENDBRANCH  14  17
ENDBRANCH  12  14
ENDBRANCH   4  12
TORSDOF 4
ENDMDL
MODEL 6
REMARK VINA RESULT:    -5.759      3.238      5.316
REMARK INTER + INTRA:          -7.552
REMARK INTER:                  -7.302
REMARK INTRA:                  -0.250
REMARK UNBOUND:                -0.447
REMARK  Name = 
REMARK  4 active torsions:
REMARK  status: ('A' for Active; 'I' for Inactive)
REMARK    1  A    between atoms: C_2  and  C_4
REMARK    2  A    between atoms: C_7  and  N_8
REMARK    3  A    between atoms: N_8  and  C_9
REMARK    4  A    between atoms: C_9  and  C_10
REMARK                            x       y       z     vdW  Elec       q    Type
REMARK                         _______ _______ _______ _____ _____    ______ ____
ROOT
ATOM      1  C   UNL     1      44.587   3.971  11.779  0.00  0.00    +0.000 A 
ATOM      2  C   UNL     1      44.509   5.225  11.199  0.00  0.00    +0.000 A 
ATOM      3  N   UNL     1      45.109   6.320  11.739  0.00  0.00    +0.000 NA
ATOM      4  C   UNL     1      45.812   6.135  12.879  0.00  0.00    +0.000 A 
ATOM      5  C   UNL     1      45.844   4.860  13.468  0.00  0.00    +0.000 A 
ATOM      6  N   UNL     1      45.258   3.750  12.942  0.00  0.00    +0.000 NA
ENDROOT
BRANCH   1   8
ATOM      7  N   UNL     1      44.561   2.303  10.023  0.00  0.00    +0.000 N 
ATOM      8  C   UNL     1      43.925   2.807  11.126  0.00  0.00    +0.000 C 
ATOM      9  O   UNL     1      42.878   2.326  11.541  0.00  0.00    +0.000 OA
ATOM     10  H   UNL     1      44.164   1.513   9.534  0.00  0.00    +0.000 HD
ATOM     11  H   UNL     1      45.430   2.720   9.703  0.00  0.00    +0.000 HD
ENDBRANCH   1   8
BRANCH   4  12
ATOM     12  N   UNL     1      46.467   7.213  13.517  0.00  0.00    +0.000 N 
ATOM     13  H   UNL     1      46.403   7.144  14.527  0.00  0.00    +0.000 HD
BRANCH  12  14
ATOM     14  C   UNL     1      47.794   7.681  13.040  0.00  0.00    +0.000 C 
ATOM     15  C   UNL     1      48.956   6.719  12.832  0.00  0.00    +0.000 C 
ATOM     16  C   UNL     1      48.953   7.591  14.038  0.00  0.00    +0.000 C 
BRANCH  14  17
ATOM     17  C   UNL     1      47.753   8.971  12.223  0.00  0.00    +0.000 A 
ATOM     18  C   UNL     1      46.593   9.767  12.170  0.00  0.00    +0.000 A 
ATOM     19  C   UNL     1      46.590  11.019  11.549  0.00  0.00    +0.000 A 
ATOM     20  C   UNL     1      47.752  11.498  10.953  0.00  0.00    +0.000 A 
ATOM     21  C   UNL     1      48.900  10.710  10.943  0.00  0.00    +0.000 A 
ATOM     22  C   UNL     1      48.892   9.456  11.559  0.00  0.00    +0.000 A 
ENDBRANCH  14  17
ENDBRANCH  12  14
ENDBRANCH   4  12
TORSDOF 4
ENDMDL
MODEL 7
REMARK VINA RESULT:    -5.627      2.650      4.499
REMARK INTER + INTRA:          -7.390
REMARK INTER:                  -7.183
REMARK INTRA:                  -0.207
REMARK UNBOUND:                -0.447
REMARK  Name = 
REMARK  4 active torsions:
REMARK  status: ('A' for Active; 'I' for Inactive)
REMARK    1  A    between atoms: C_2  and  C_4
REMARK    2  A    between atoms: C_7  and  N_8
REMARK    3  A    between atoms: N_8  and  C_9
REMARK    4  A    between atoms: C_9  and  C_10
REMARK                            x       y       z     vdW  Elec       q    Type
REMARK                         _______ _______ _______ _____ _____    ______ ____
ROOT
ATOM      1  C   UNL     1      44.957   3.808  10.197  0.00  0.00    +0.000 A 
ATOM      2  C   UNL     1      44.977   3.349  11.503  0.00  0.00    +0.000 A 
ATOM      3  N   UNL     1      45.308   4.148  12.553  0.00  0.00    +0.000 NA
ATOM      4  C   UNL     1      45.609   5.436  12.274  0.00  0.00    +0.000 A 
ATOM      5  C   UNL     1      45.617   5.866  10.938  0.00  0.00    +0.000 A 
ATOM      6  N   UNL     1      45.283   5.088   9.872  0.00  0.00    +0.000 NA
ENDROOT
BRANCH   1   8
ATOM      7  N   UNL     1      44.284   3.485   7.893  0.00  0.00    +0.000 N 
ATOM      8  C   UNL     1      44.565   2.888   9.093  0.00  0.00    +0.000 C 
ATOM      9  O   UNL     1      44.495   1.673   9.240  0.00  0.00    +0.000 OA
ATOM     10  H   UNL     1      44.012   2.917   7.103  0.00  0.00    +0.000 HD
ATOM     11  H   UNL     1      44.354   4.493   7.799  0.00  0.00    +0.000 HD
ENDBRANCH   1   8
BRANCH   4  12
ATOM     12  N   UNL     1      45.968   6.341  13.300  0.00  0.00    +0.000 N 
ATOM     13  H   UNL     1      45.896   5.914  14.216  0.00  0.00    +0.000 HD
BRANCH  12  14
ATOM     14  C   UNL     1      47.155   7.222  13.149  0.00  0.00    +0.000 C 
ATOM     15  C   UNL     1      48.545   6.657  12.889  0.00  0.00    +0.000 C 
ATOM     16  C   UNL     1      48.212   7.144  14.255  0.00  0.00    +0.000 C 
BRANCH  14  17
ATOM     17  C   UNL     1      46.836   8.637  12.669  0.00  0.00    +0.000 A 
ATOM     18  C   UNL     1      47.843   9.483  12.165  0.00  0.00    +0.000 A 
ATOM     19  C   UNL     1      47.540  10.719  11.589  0.00  0.00    +0.000 A 
ATOM     20  C   UNL     1      46.217  11.144  11.514  0.00  0.00    +0.000 A 
ATOM     21  C   UNL     1      45.206  10.351  12.051  0.00  0.00    +0.000 A 
ATOM     22  C   UNL     1      45.518   9.120  12.634  0.00  0.00    +0.000 A 
ENDBRANCH  14  17
ENDBRANCH  12  14
ENDBRANCH   4  12
TORSDOF 4
ENDMDL
