MODEL 1
REMARK VINA RESULT:    -6.841      0.000      0.000
REMARK INTER + INTRA:          -9.051
REMARK INTER:                  -8.641
REMARK INTRA:                  -0.410
REMARK UNBOUND:                -0.410
REMARK  Name = 
REMARK  7 active torsions:
REMARK  status: ('A' for Active; 'I' for Inactive)
REMARK    1  A    between atoms: C_1  and  C_2
REMARK    2  A    between atoms: C_2  and  C_3
REMARK    3  A    between atoms: C_2  and  N_4
REMARK    4  A    between atoms: C_2  and  C_5
REMARK    5  A    between atoms: C_8  and  N_9
REMARK    6  A    between atoms: N_9  and  C_10
REMARK    7  A    between atoms: C_10  and  C_11
REMARK                            x       y       z     vdW  Elec       q    Type
REMARK                         _______ _______ _______ _____ _____    ______ ____
ROOT
ATOM      1  C   UNL     1      46.833   6.174  12.683  0.00  0.00    +0.000 A 
ATOM      2  C   UNL     1      46.479   6.531  11.382  0.00  0.00    +0.000 A 
ATOM      3  N   UNL     1      45.656   5.792  10.587  0.00  0.00    +0.000 NA
ATOM      4  C   UNL     1      45.175   4.648  11.114  0.00  0.00    +0.000 A 
ATOM      5  C   UNL     1      45.561   4.276  12.406  0.00  0.00    +0.000 A 
ATOM      6  N   UNL     1      46.362   5.018  13.212  0.00  0.00    +0.000 NA
ENDROOT
BRANCH   1   8
ATOM      7  C   UNL     1      47.153   8.479  13.652  0.00  0.00    +0.000 C 
ATOM      8  C   UNL     1      47.741   7.061  13.541  0.00  0.00    +0.000 C 
ATOM      9  C   UNL     1      49.159   7.168  12.942  0.00  0.00    +0.000 C 
BRANCH   8  10
ATOM     10  N   UNL     1      47.880   6.510  14.908  0.00  0.00    +0.000 NA
ATOM     11  H   UNL     1      48.865   6.518  15.172  0.00  0.00    +0.000 HD
ATOM     12  H   UNL     1      47.616   5.524  14.883  0.00  0.00    +0.000 HD
ENDBRANCH   8  10
ENDBRANCH   1   8
BRANCH   4  13
ATOM     13  N   UNL     1      44.377   3.776  10.357  0.00  0.00    +0.000 N 
ATOM     14  H   UNL     1      43.424   3.776  10.711  0.00  0.00    +0.000 HD
BRANCH  13  15
ATOM     15  C   UNL     1      44.395   4.024   8.921  0.00  0.00    +0.000 C 
BRANCH  15  16
ATOM     16  C   UNL     1      45.398   3.099   8.276  0.00  0.00    +0.000 A 
ATOM     17  C   UNL     1      46.264   3.520   7.261  0.00  0.00    +0.000 A 
ATOM     18  C   UNL     1      47.176   2.625   6.715  0.00  0.00    +0.000 A 
ATOM     19  C   UNL     1      47.197   1.325   7.198  0.00  0.00    +0.000 A 
ATOM     20  N   UNL     1      46.374   0.878   8.169  0.00  0.00    +0.000 NA
ATOM     21  C   UNL     1      45.496   1.772   8.684  0.00  0.00    +0.000 A 
ENDBRANCH  15  16
ENDBRANCH  13  15
ENDBRANCH   4  13
TORSDOF 5
ENDMDL
MODEL 2
REMARK VINA RESULT:    -6.828      1.907      6.219
REMARK INTER + INTRA:          -9.035
REMARK INTER:                  -8.546
REMARK INTRA:                  -0.489
REMARK UNBOUND:                -0.410
REMARK  Name = 
REMARK  7 active torsions:
REMARK  status: ('A' for Active; 'I' for Inactive)
REMARK    1  A    between atoms: C_1  and  C_2
REMARK    2  A    between atoms: C_2  and  C_3
REMARK    3  A    between atoms: C_2  and  N_4
REMARK    4  A    between atoms: C_2  and  C_5
REMARK    5  A    between atoms: C_8  and  N_9
REMARK    6  A    between atoms: N_9  and  C_10
REMARK    7  A    between atoms: C_10  and  C_11
REMARK                            x       y       z     vdW  Elec       q    Type
REMARK                         _______ _______ _______ _____ _____    ______ ____
ROOT
ATOM      1  C   UNL     1      46.321   3.026   7.538  0.00  0.00    +0.000 A 
ATOM      2  C   UNL     1      45.287   2.375   8.212  0.00  0.00    +0.000 A 
ATOM      3  N   UNL     1      44.417   2.999   9.053  0.00  0.00    +0.000 NA
ATOM      4  C   UNL     1      44.594   4.324   9.232  0.00  0.00    +0.000 A 
ATOM      5  C   UNL     1      45.654   4.964   8.582  0.00  0.00    +0.000 A 
ATOM      6  N   UNL     1      46.510   4.355   7.725  0.00  0.00    +0.000 NA
ENDROOT
BRANCH   1   8
ATOM      7  C   UNL     1      46.830   2.523   5.121  0.00  0.00    +0.000 C 
ATOM      8  C   UNL     1      47.252   2.276   6.579  0.00  0.00    +0.000 C 
ATOM      9  C   UNL     1      47.229   0.755   6.842  0.00  0.00    +0.000 C 
BRANCH   8  10
ATOM     10  N   UNL     1      48.652   2.730   6.739  0.00  0.00    +0.000 NA
ATOM     11  H   UNL     1      49.012   3.026   5.832  0.00  0.00    +0.000 HD
ATOM     12  H   UNL     1      49.221   1.924   7.004  0.00  0.00    +0.000 HD
ENDBRANCH   8  10
ENDBRANCH   1   8
BRANCH   4  13
ATOM     13  N   UNL     1      43.799   5.051  10.133  0.00  0.00    +0.000 N 
ATOM     14  H   UNL     1      42.937   5.342   9.683  0.00  0.00    +0.000 HD
BRANCH  13  15
ATOM     15  C   UNL     1      43.522   4.368  11.390  0.00  0.00    +0.000 C 
BRANCH  15  16
ATOM     16  C   UNL     1      44.744   4.445  12.271  0.00  0.00    +0.000 A 
ATOM     17  C   UNL     1      45.268   5.661  12.724  0.00  0.00    +0.000 A 
ATOM     18  C   UNL     1      46.389   5.667  13.546  0.00  0.00    +0.000 A 
ATOM     19  C   UNL     1      46.962   4.453  13.892  0.00  0.00    +0.000 A 
ATOM     20  N   UNL     1      46.492   3.260  13.470  0.00  0.00    +0.000 NA
ATOM     21  C   UNL     1      45.399   3.284  12.671  0.00  0.00    +0.000 A 
ENDBRANCH  15  16
ENDBRANCH  13  15
ENDBRANCH   4  13
TORSDOF 5
ENDMDL
MODEL 3
REMARK VINA RESULT:    -6.781      0.935      1.424
REMARK INTER + INTRA:          -8.975
REMARK INTER:                  -8.588
REMARK INTRA:                  -0.388
REMARK UNBOUND:                -0.410
REMARK  Name = 
REMARK  7 active torsions:
REMARK  status: ('A' for Active; 'I' for Inactive)
REMARK    1  A    between atoms: C_1  and  C_2
REMARK    2  A    between atoms: C_2  and  C_3
REMARK    3  A    between atoms: C_2  and  N_4
REMARK    4  A    between atoms: C_2  and  C_5
REMARK    5  A    between atoms: C_8  and  N_9
REMARK    6  A    between atoms: N_9  and  C_10
REMARK    7  A    between atoms: C_10  and  C_11
REMARK                            x       y       z     vdW  Elec       q    Type
REMARK                         _______ _______ _______ _____ _____    ______ ____
ROOT
ATOM      1  C   UNL     1      46.745   6.396  12.646  0.00  0.00    +0.000 A 
ATOM      2  C   UNL     1      46.343   5.167  13.169  0.00  0.00    +0.000 A 
ATOM      3  N   UNL     1      45.600   4.255  12.483  0.00  0.00    +0.000 NA
ATOM      4  C   UNL     1      45.239   4.591  11.228  0.00  0.00    +0.000 A 
ATOM      5  C   UNL     1      45.615   5.840  10.721  0.00  0.00    +0.000 A 
ATOM      6  N   UNL     1      46.375   6.742  11.389  0.00  0.00    +0.000 NA
ENDROOT
BRANCH   1   8
ATOM      7  C   UNL     1      48.704   7.981  12.566  0.00  0.00    +0.000 C 
ATOM      8  C   UNL     1      47.608   7.370  13.456  0.00  0.00    +0.000 C 
ATOM      9  C   UNL     1      48.286   6.667  14.651  0.00  0.00    +0.000 C 
BRANCH   8  10
ATOM     10  N   UNL     1      46.787   8.474  14.002  0.00  0.00    +0.000 NA
ATOM     11  H   UNL     1      47.401   9.235  14.290  0.00  0.00    +0.000 HD
ATOM     12  H   UNL     1      46.342   8.146  14.861  0.00  0.00    +0.000 HD
ENDBRANCH   8  10
ENDBRANCH   1   8
BRANCH   4  13
ATOM     13  N   UNL     1      44.412   3.756  10.459  0.00  0.00    +0.000 N 
ATOM     14  H   UNL     1      43.465   3.767  10.826  0.00  0.00    +0.000 HD
BRANCH  13  15
ATOM     15  C   UNL     1      44.418   4.041   9.030  0.00  0.00    +0.000 C 
BRANCH  15  16
ATOM     16  C   UNL     1      45.393   3.113   8.348  0.00  0.00    +0.000 A 
ATOM     17  C   UNL     1      46.239   3.539   7.318  0.00  0.00    +0.000 A 
ATOM     18  C   UNL     1      47.126   2.640   6.738  0.00  0.00    +0.000 A 
ATOM     19  C   UNL     1      47.142   1.333   7.201  0.00  0.00    +0.000 A 
ATOM     20  N   UNL     1      46.337   0.882   8.186  0.00  0.00    +0.000 NA
ATOM     21  C   UNL     1      45.483   1.779   8.734  0.00  0.00    +0.000 A 
ENDBRANCH  15  16
ENDBRANCH  13  15
ENDBRANCH   4  13
TORSDOF 5
ENDMDL
MODEL 4
REMARK VINA RESULT:    -6.547      1.477      1.964
REMARK INTER + INTRA:          -8.679
REMARK INTER:                  -8.309
REMARK INTRA:                  -0.370
REMARK UNBOUND:                -0.410
REMARK  Name = 
REMARK  7 active torsions:
REMARK  status: ('A' for Active; 'I' for Inactive)
REMARK    1  A    between atoms: C_1  and  C_2
REMARK    2  A    between atoms: C_2  and  C_3
REMARK    3  A    between atoms: C_2  and  N_4
REMARK    4  A    between atoms: C_2  and  C_5
REMARK    5  A    between atoms: C_8  and  N_9
REMARK    6  A    between atoms: N_9  and  C_10
REMARK    7  A    between atoms: C_10  and  C_11
REMARK                            x       y       z     vdW  Elec       q    Type
REMARK                         _______ _______ _______ _____ _____    ______ ____
ROOT
ATOM      1  C   UNL     1      47.124   6.007  13.496  0.00  0.00    +0.000 A 
ATOM      2  C   UNL     1      45.983   6.311  12.754  0.00  0.00    +0.000 A 
ATOM      3  N   UNL     1      45.138   5.374  12.241  0.00  0.00    +0.000 NA
ATOM      4  C   UNL     1      45.455   4.084  12.471  0.00  0.00    +0.000 A 
ATOM      5  C   UNL     1      46.620   3.785  13.185  0.00  0.00    +0.000 A 
ATOM      6  N   UNL     1      47.453   4.712  13.720  0.00  0.00    +0.000 NA
ENDROOT
BRANCH   1   8
ATOM      7  C   UNL     1      49.105   7.504  13.057  0.00  0.00    +0.000 C 
ATOM      8  C   UNL     1      48.022   7.106  14.075  0.00  0.00    +0.000 C 
ATOM      9  C   UNL     1      48.720   6.643  15.371  0.00  0.00    +0.000 C 
BRANCH   8  10
ATOM     10  N   UNL     1      47.233   8.313  14.406  0.00  0.00    +0.000 NA
ATOM     11  H   UNL     1      46.977   8.792  13.543  0.00  0.00    +0.000 HD
ATOM     12  H   UNL     1      47.841   8.965  14.906  0.00  0.00    +0.000 HD
ENDBRANCH   8  10
ENDBRANCH   1   8
BRANCH   4  13
ATOM     13  N   UNL     1      44.692   3.038  11.926  0.00  0.00    +0.000 N 
ATOM     14  H   UNL     1      44.074   2.650  12.633  0.00  0.00    +0.000 HD
BRANCH  13  15
ATOM     15  C   UNL     1      43.949   3.388  10.723  0.00  0.00    +0.000 C 
BRANCH  15  16
ATOM     16  C   UNL     1      44.865   3.274   9.530  0.00  0.00    +0.000 A 
ATOM     17  C   UNL     1      45.333   2.043   9.056  0.00  0.00    +0.000 A 
ATOM     18  C   UNL     1      46.164   2.003   7.942  0.00  0.00    +0.000 A 
ATOM     19  C   UNL     1      46.511   3.198   7.331  0.00  0.00    +0.000 A 
ATOM     20  N   UNL     1      46.087   4.405   7.762  0.00  0.00    +0.000 NA
ATOM     21  C   UNL     1      45.278   4.415   8.848  0.00  0.00    +0.000 A 
ENDBRANCH  15  16
ENDBRANCH  13  15
ENDBRANCH   4  13
TORSDOF 5
ENDMDL
MODEL 5
REMARK VINA RESULT:    -6.453      3.568      7.090
REMARK INTER + INTRA:          -8.561
REMARK INTER:                  -8.193
REMARK INTRA:                  -0.369
REMARK UNBOUND:                -0.410
REMARK  Name = 
REMARK  7 active torsions:
REMARK  status: ('A' for Active; 'I' for Inactive)
REMARK    1  A    between atoms: C_1  and  C_2
REMARK    2  A    between atoms: C_2  and  C_3
REMARK    3  A    between atoms: C_2  and  N_4
REMARK    4  A    between atoms: C_2  and  C_5
REMARK    5  A    between atoms: C_8  and  N_9
REMARK    6  A    between atoms: N_9  and  C_10
REMARK    7  A    between atoms: C_10  and  C_11
REMARK                            x       y       z     vdW  Elec       q    Type
REMARK                         _______ _______ _______ _____ _____    ______ ____
ROOT
ATOM      1  C   UNL     1      45.311   4.561  11.670  0.00  0.00    +0.000 A 
ATOM      2  C   UNL     1      45.630   3.494  12.510  0.00  0.00    +0.000 A 
ATOM      3  N   UNL     1      46.261   3.632  13.709  0.00  0.00    +0.000 NA
ATOM      4  C   UNL     1      46.594   4.887  14.075  0.00  0.00    +0.000 A 
ATOM      5  C   UNL     1      46.304   5.949  13.213  0.00  0.00    +0.000 A 
ATOM      6  N   UNL     1      45.654   5.822  12.029  0.00  0.00    +0.000 NA
ENDROOT
BRANCH   1   8
ATOM      7  C   UNL     1      44.156   2.873  10.197  0.00  0.00    +0.000 C 
ATOM      8  C   UNL     1      44.572   4.347  10.345  0.00  0.00    +0.000 C 
ATOM      9  C   UNL     1      45.454   4.727   9.136  0.00  0.00    +0.000 C 
BRANCH   8  10
ATOM     10  N   UNL     1      43.351   5.181  10.280  0.00  0.00    +0.000 NA
ATOM     11  H   UNL     1      42.545   4.613  10.539  0.00  0.00    +0.000 HD
ATOM     12  H   UNL     1      43.194   5.442   9.305  0.00  0.00    +0.000 HD
ENDBRANCH   8  10
ENDBRANCH   1   8
BRANCH   4  13
ATOM     13  N   UNL     1      47.312   5.135  15.257  0.00  0.00    +0.000 N 
ATOM     14  H   UNL     1      47.117   6.073  15.594  0.00  0.00    +0.000 HD
BRANCH  13  15
ATOM     15  C   UNL     1      47.107   4.152  16.312  0.00  0.00    +0.000 C 
BRANCH  15  16
ATOM     16  C   UNL     1      48.441   3.560  16.697  0.00  0.00    +0.000 A 
ATOM     17  C   UNL     1      49.373   4.254  17.477  0.00  0.00    +0.000 A 
ATOM     18  C   UNL     1      50.580   3.649  17.811  0.00  0.00    +0.000 A 
ATOM     19  C   UNL     1      50.826   2.365  17.352  0.00  0.00    +0.000 A 
ATOM     20  N   UNL     1      49.956   1.666  16.592  0.00  0.00    +0.000 NA
ATOM     21  C   UNL     1      48.788   2.278  16.282  0.00  0.00    +0.000 A 
ENDBRANCH  15  16
ENDBRANCH  13  15
ENDBRANCH   4  13
TORSDOF 5
ENDMDL
MODEL 6
REMARK VINA RESULT:    -6.195      2.853      3.982
REMARK INTER + INTRA:          -8.235
REMARK INTER:                  -7.976
REMARK INTRA:                  -0.259
REMARK UNBOUND:                -0.410
REMARK  Name = 
REMARK  7 active torsions:
REMARK  status: ('A' for Active; 'I' for Inactive)
REMARK    1  A    between atoms: C_1  and  C_2
REMARK    2  A    between atoms: C_2  and  C_3
REMARK    3  A    between atoms: C_2  and  N_4
REMARK    4  A    between atoms: C_2  and  C_5
REMARK    5  A    between atoms: C_8  and  N_9
REMARK    6  A    between atoms: N_9  and  C_10
REMARK    7  A    between atoms: C_10  and  C_11
REMARK                            x       y       z     vdW  Elec       q    Type
REMARK                         _______ _______ _______ _____ _____    ______ ____
ROOT
ATOM      1  C   UNL     1      47.585   4.446  15.944  0.00  0.00    +0.000 A 
ATOM      2  C   UNL     1      48.168   5.639  15.516  0.00  0.00    +0.000 A 
ATOM      3  N   UNL     1      47.946   6.199  14.295  0.00  0.00    +0.000 NA
ATOM      4  C   UNL     1      47.113   5.535  13.468  0.00  0.00    +0.000 A 
ATOM      5  C   UNL     1      46.559   4.321  13.888  0.00  0.00    +0.000 A 
ATOM      6  N   UNL     1      46.757   3.769  15.111  0.00  0.00    +0.000 NA
ENDROOT
BRANCH   1   8
ATOM      7  C   UNL     1      47.922   5.016  18.376  0.00  0.00    +0.000 C 
ATOM      8  C   UNL     1      47.850   3.878  17.342  0.00  0.00    +0.000 C 
ATOM      9  C   UNL     1      49.177   3.091  17.392  0.00  0.00    +0.000 C 
BRANCH   8  10
ATOM     10  N   UNL     1      46.771   2.951  17.749  0.00  0.00    +0.000 NA
ATOM     11  H   UNL     1      46.557   3.100  18.735  0.00  0.00    +0.000 HD
ATOM     12  H   UNL     1      47.132   1.997  17.694  0.00  0.00    +0.000 HD
ENDBRANCH   8  10
ENDBRANCH   1   8
BRANCH   4  13
ATOM     13  N   UNL     1      46.871   5.986  12.160  0.00  0.00    +0.000 N 
ATOM     14  H   UNL     1      47.370   5.406  11.492  0.00  0.00    +0.000 HD
BRANCH  13  15
ATOM     15  C   UNL     1      45.463   6.094  11.803  0.00  0.00    +0.000 C 
BRANCH  15  16
ATOM     16  C   UNL     1      45.137   5.045  10.769  0.00  0.00    +0.000 A 
ATOM     17  C   UNL     1      45.625   5.105   9.458  0.00  0.00    +0.000 A 
ATOM     18  C   UNL     1      45.300   4.101   8.554  0.00  0.00    +0.000 A 
ATOM     19  C   UNL     1      44.490   3.061   8.983  0.00  0.00    +0.000 A 
ATOM     20  N   UNL     1      43.993   2.971  10.234  0.00  0.00    +0.000 NA
ATOM     21  C   UNL     1      44.326   3.963  11.095  0.00  0.00    +0.000 A 
ENDBRANCH  15  16
ENDBRANCH  13  15
ENDBRANCH   4  13
TORSDOF 5
ENDMDL
MODEL 7
REMARK VINA RESULT:    -6.179      1.646      1.954
REMARK INTER + INTRA:          -8.216
REMARK INTER:                  -7.875
REMARK INTRA:                  -0.340
REMARK UNBOUND:                -0.410
REMARK  Name = 
REMARK  7 active torsions:
REMARK  status: ('A' for Active; 'I' for Inactive)
REMARK    1  A    between atoms: C_1  and  C_2
REMARK    2  A    between atoms: C_2  and  C_3
REMARK    3  A    between atoms: C_2  and  N_4
REMARK    4  A    between atoms: C_2  and  C_5
REMARK    5  A    between atoms: C_8  and  N_9
REMARK    6  A    between atoms: N_9  and  C_10
REMARK    7  A    between atoms: C_10  and  C_11
REMARK                            x       y       z     vdW  Elec       q    Type
REMARK                         _______ _______ _______ _____ _____    ______ ____
ROOT
ATOM      1  C   UNL     1      46.481   4.597  13.707  0.00  0.00    +0.000 A 
ATOM      2  C   UNL     1      46.693   5.738  12.935  0.00  0.00    +0.000 A 
ATOM      3  N   UNL     1      46.137   5.940  11.707  0.00  0.00    +0.000 NA
ATOM      4  C   UNL     1      45.345   4.957  11.234  0.00  0.00    +0.000 A 
ATOM      5  C   UNL     1      45.165   3.799  11.997  0.00  0.00    +0.000 A 
ATOM      6  N   UNL     1      45.695   3.601  13.230  0.00  0.00    +0.000 NA
ENDROOT
BRANCH   1   8
ATOM      7  C   UNL     1      48.082   5.597  15.378  0.00  0.00    +0.000 C 
ATOM      8  C   UNL     1      47.110   4.438  15.096  0.00  0.00    +0.000 C 
ATOM      9  C   UNL     1      47.887   3.110  15.217  0.00  0.00    +0.000 C 
BRANCH   8  10
ATOM     10  N   UNL     1      46.071   4.439  16.150  0.00  0.00    +0.000 NA
ATOM     11  H   UNL     1      45.958   5.389  16.506  0.00  0.00    +0.000 HD
ATOM     12  H   UNL     1      46.418   3.895  16.942  0.00  0.00    +0.000 HD
ENDBRANCH   8  10
ENDBRANCH   1   8
BRANCH   4  13
ATOM     13  N   UNL     1      44.781   5.030   9.950  0.00  0.00    +0.000 N 
ATOM     14  H   UNL     1      45.454   5.413   9.293  0.00  0.00    +0.000 HD
BRANCH  13  15
ATOM     15  C   UNL     1      44.228   3.777   9.454  0.00  0.00    +0.000 C 
BRANCH  15  16
ATOM     16  C   UNL     1      45.270   3.079   8.616  0.00  0.00    +0.000 A 
ATOM     17  C   UNL     1      46.039   3.751   7.659  0.00  0.00    +0.000 A 
ATOM     18  C   UNL     1      46.993   3.055   6.927  0.00  0.00    +0.000 A 
ATOM     19  C   UNL     1      47.153   1.699   7.168  0.00  0.00    +0.000 A 
ATOM     20  N   UNL     1      46.427   1.013   8.075  0.00  0.00    +0.000 NA
ATOM     21  C   UNL     1      45.504   1.716   8.775  0.00  0.00    +0.000 A 
ENDBRANCH  15  16
ENDBRANCH  13  15
ENDBRANCH   4  13
TORSDOF 5
ENDMDL
MODEL 8
REMARK VINA RESULT:    -5.903      2.674      3.797
REMARK INTER + INTRA:          -7.866
REMARK INTER:                  -7.500
REMARK INTRA:                  -0.366
REMARK UNBOUND:                -0.410
REMARK  Name = 
REMARK  7 active torsions:
REMARK  status: ('A' for Active; 'I' for Inactive)
REMARK    1  A    between atoms: C_1  and  C_2
REMARK    2  A    between atoms: C_2  and  C_3
REMARK    3  A    between atoms: C_2  and  N_4
REMARK    4  A    between atoms: C_2  and  C_5
REMARK    5  A    between atoms: C_8  and  N_9
REMARK    6  A    between atoms: N_9  and  C_10
REMARK    7  A    between atoms: C_10  and  C_11
REMARK                            x       y       z     vdW  Elec       q    Type
REMARK                         _______ _______ _______ _____ _____    ______ ____
ROOT
ATOM      1  C   UNL     1      47.765   4.765  15.692  0.00  0.00    +0.000 A 
ATOM      2  C   UNL     1      46.759   4.023  15.074  0.00  0.00    +0.000 A 
ATOM      3  N   UNL     1      46.246   4.313  13.845  0.00  0.00    +0.000 NA
ATOM      4  C   UNL     1      46.755   5.392  13.218  0.00  0.00    +0.000 A 
ATOM      5  C   UNL     1      47.738   6.154  13.858  0.00  0.00    +0.000 A 
ATOM      6  N   UNL     1      48.271   5.858  15.070  0.00  0.00    +0.000 NA
ENDROOT
BRANCH   1   8
ATOM      7  C   UNL     1      47.711   3.041  17.531  0.00  0.00    +0.000 C 
ATOM      8  C   UNL     1      48.324   4.373  17.064  0.00  0.00    +0.000 C 
ATOM      9  C   UNL     1      48.018   5.449  18.129  0.00  0.00    +0.000 C 
BRANCH   8  10
ATOM     10  N   UNL     1      49.794   4.212  17.010  0.00  0.00    +0.000 NA
ATOM     11  H   UNL     1      50.235   5.112  17.199  0.00  0.00    +0.000 HD
ATOM     12  H   UNL     1      50.054   3.982  16.049  0.00  0.00    +0.000 HD
ENDBRANCH   8  10
ENDBRANCH   1   8
BRANCH   4  13
ATOM     13  N   UNL     1      46.248   5.822  11.980  0.00  0.00    +0.000 N 
ATOM     14  H   UNL     1      46.928   5.650  11.245  0.00  0.00    +0.000 HD
BRANCH  13  15
ATOM     15  C   UNL     1      44.950   5.265  11.627  0.00  0.00    +0.000 C 
BRANCH  15  16
ATOM     16  C   UNL     1      45.089   4.460  10.358  0.00  0.00    +0.000 A 
ATOM     17  C   UNL     1      44.701   3.119  10.273  0.00  0.00    +0.000 A 
ATOM     18  C   UNL     1      44.842   2.434   9.071  0.00  0.00    +0.000 A 
ATOM     19  C   UNL     1      45.373   3.110   7.983  0.00  0.00    +0.000 A 
ATOM     20  N   UNL     1      45.765   4.400   8.026  0.00  0.00    +0.000 NA
ATOM     21  C   UNL     1      45.616   5.043   9.209  0.00  0.00    +0.000 A 
ENDBRANCH  15  16
ENDBRANCH  13  15
ENDBRANCH   4  13
TORSDOF 5
ENDMDL
MODEL 9
REMARK VINA RESULT:    -5.413      3.378      7.785
REMARK INTER + INTRA:          -7.248
REMARK INTER:                  -6.962
REMARK INTRA:                  -0.286
REMARK UNBOUND:                -0.410
REMARK  Name = 
REMARK  7 active torsions:
REMARK  status: ('A' for Active; 'I' for Inactive)
REMARK    1  A    between atoms: C_1  and  C_2
REMARK    2  A    between atoms: C_2  and  C_3
REMARK    3  A    between atoms: C_2  and  N_4
REMARK    4  A    between atoms: C_2  and  C_5
REMARK    5  A    between atoms: C_8  and  N_9
REMARK    6  A    between atoms: N_9  and  C_10
REMARK    7  A    between atoms: C_10  and  C_11
REMARK                            x       y       z     vdW  Elec       q    Type
REMARK                         _______ _______ _______ _____ _____    ______ ____
ROOT
ATOM      1  C   UNL     1      45.099   4.069  12.025  0.00  0.00    +0.000 A 
ATOM      2  C   UNL     1      45.221   5.421  12.346  0.00  0.00    +0.000 A 
ATOM      3  N   UNL     1      46.019   5.897  13.342  0.00  0.00    +0.000 NA
ATOM      4  C   UNL     1      46.715   4.983  14.048  0.00  0.00    +0.000 A 
ATOM      5  C   UNL     1      46.561   3.626  13.745  0.00  0.00    +0.000 A 
ATOM      6  N   UNL     1      45.787   3.146  12.740  0.00  0.00    +0.000 NA
ENDROOT
BRANCH   1   8
ATOM      7  C   UNL     1      44.972   2.607   9.976  0.00  0.00    +0.000 C 
ATOM      8  C   UNL     1      44.207   3.595  10.873  0.00  0.00    +0.000 C 
ATOM      9  C   UNL     1      43.731   4.776  10.001  0.00  0.00    +0.000 C 
BRANCH   8  10
ATOM     10  N   UNL     1      42.998   2.912  11.387  0.00  0.00    +0.000 NA
ATOM     11  H   UNL     1      43.264   2.000  11.759  0.00  0.00    +0.000 HD
ATOM     12  H   UNL     1      42.384   2.711  10.596  0.00  0.00    +0.000 HD
ENDBRANCH   8  10
ENDBRANCH   1   8
BRANCH   4  13
ATOM     13  N   UNL     1      47.511   5.358  15.142  0.00  0.00    +0.000 N 
ATOM     14  H   UNL     1      47.240   6.280  15.472  0.00  0.00    +0.000 HD
BRANCH  13  15
ATOM     15  C   UNL     1      47.532   4.400  16.239  0.00  0.00    +0.000 C 
BRANCH  15  16
ATOM     16  C   UNL     1      48.711   4.701  17.131  0.00  0.00    +0.000 A 
ATOM     17  C   UNL     1      49.667   3.735  17.464  0.00  0.00    +0.000 A 
ATOM     18  C   UNL     1      50.739   4.077  18.281  0.00  0.00    +0.000 A 
ATOM     19  C   UNL     1      50.825   5.379  18.748  0.00  0.00    +0.000 A 
ATOM     20  N   UNL     1      49.920   6.337  18.457  0.00  0.00    +0.000 NA
ATOM     21  C   UNL     1      48.887   5.976  17.659  0.00  0.00    +0.000 A 
ENDBRANCH  15  16
ENDBRANCH  13  15
ENDBRANCH   4  13
TORSDOF 5
ENDMDL
