MODEL 1
REMARK VINA RESULT:    -8.127      0.000      0.000
REMARK INTER + INTRA:         -12.478
REMARK INTER:                 -11.690
REMARK INTRA:                  -0.788
REMARK UNBOUND:                -0.788
REMARK  Name = 
REMARK  9 active torsions:
REMARK  status: ('A' for Active; 'I' for Inactive)
REMARK    1  A    between atoms: N_1  and  C_2
REMARK    2  A    between atoms: C_2  and  C_3
REMARK    3  A    between atoms: C_6  and  O_7
REMARK    4  A    between atoms: O_7  and  C_8
REMARK    5  A    between atoms: C_8  and  C_9
REMARK    6  A    between atoms: C_9  and  O_10
REMARK    7  A    between atoms: C_9  and  C_11
REMARK    8  A    between atoms: CA_15  and  C_16
REMARK    9  A    between atoms: C_16  and  OXT_18
REMARK                            x       y       z     vdW  Elec       q    Type
REMARK                         _______ _______ _______ _____ _____    ______ ____
ROOT
ATOM      1  C   UNL     1      43.406   4.733  10.738  0.00  0.00    +0.000 C 
ENDROOT
BRANCH   1   2
ATOM      2  O   UNL     1      44.160   3.513  10.773  0.00  0.00    +0.000 OA
BRANCH   2   6
ATOM      3  C   UNL     1      46.413   2.866   7.285  0.00  0.00    +0.000 A 
ATOM      4  C   UNL     1      45.985   4.142   7.687  0.00  0.00    +0.000 A 
ATOM      5  C   UNL     1      45.230   4.315   8.853  0.00  0.00    +0.000 A 
ATOM      6  C   UNL     1      44.893   3.221   9.651  0.00  0.00    +0.000 A 
ATOM      7  C   UNL     1      45.324   1.951   9.268  0.00  0.00    +0.000 A 
ATOM      8  C   UNL     1      46.081   1.776   8.101  0.00  0.00    +0.000 A 
ATOM      9 CL   UNL     1      46.594   0.165   7.728  0.00  0.00    +0.000 Cl
BRANCH   3  10
ATOM     10  C   UNL     1      47.231   2.728   6.027  0.00  0.00    +0.000 C 
BRANCH  10  11
ATOM     11  N   UNL     1      48.647   2.557   6.330  0.00  0.00    +0.000 NA
ATOM     12  H   UNL     1      48.794   2.716   7.326  0.00  0.00    +0.000 HD
ATOM     13  H   UNL     1      49.174   3.287   5.851  0.00  0.00    +0.000 HD
ENDBRANCH  10  11
ENDBRANCH   3  10
ENDBRANCH   2   6
ENDBRANCH   1   2
BRANCH   1  14
ATOM     14  C   UNL     1      43.689   5.606  11.977  0.00  0.00    +0.000 C 
BRANCH  14  15
ATOM     15  C   UNL     1      45.110   5.548  12.492  0.00  0.00    +0.000 A 
ATOM     16  C   UNL     1      46.103   6.362  11.931  0.00  0.00    +0.000 A 
ATOM     17  C   UNL     1      47.394   6.315  12.444  0.00  0.00    +0.000 A 
ATOM     18  N   UNL     1      47.770   5.522  13.471  0.00  0.00    +0.000 NA
ATOM     19  CA  UNL     1      46.785   4.742  14.003  0.00  0.00    +0.000 A 
ATOM     20  C   UNL     1      45.470   4.719  13.559  0.00  0.00    +0.000 A 
BRANCH  19  21
ATOM     21  C   UNL     1      47.196   3.876  15.146  0.00  0.00    +0.000 C 
ATOM     22  O   UNL     1      47.867   2.865  15.050  0.00  0.00    +0.000 OA
BRANCH  21  23
ATOM     23  OXT UNL     1      46.717   4.373  16.310  0.00  0.00    +0.000 OA
ATOM     24  HXT UNL     1      46.557   5.338  16.196  0.00  0.00    +0.000 HD
ENDBRANCH  21  23
ENDBRANCH  19  21
ENDBRANCH  14  15
BRANCH  14  25
ATOM     25  O   UNL     1      42.799   5.295  13.047  0.00  0.00    +0.000 OA
ATOM     26  H   UNL     1      41.997   5.831  12.915  0.00  0.00    +0.000 HD
ENDBRANCH  14  25
ENDBRANCH   1  14
TORSDOF 9
ENDMDL
MODEL 2
REMARK VINA RESULT:    -7.376      2.961      6.372
REMARK INTER + INTRA:         -11.398
REMARK INTER:                 -10.694
REMARK INTRA:                  -0.705
REMARK UNBOUND:                -0.788
REMARK  Name = 
REMARK  9 active torsions:
REMARK  status: ('A' for Active; 'I' for Inactive)
REMARK    1  A    between atoms: N_1  and  C_2
REMARK    2  A    between atoms: C_2  and  C_3
REMARK    3  A    between atoms: C_6  and  O_7
REMARK    4  A    between atoms: O_7  and  C_8
REMARK    5  A    between atoms: C_8  and  C_9
REMARK    6  A    between atoms: C_9  and  O_10
REMARK    7  A    between atoms: C_9  and  C_11
REMARK    8  A    between atoms: CA_15  and  C_16
REMARK    9  A    between atoms: C_16  and  OXT_18
REMARK                            x       y       z     vdW  Elec       q    Type
REMARK                         _______ _______ _______ _____ _____    ______ ____
ROOT
ATOM      1  C   UNL     1      43.416   4.480  11.286  0.00  0.00    +0.000 C 
ENDROOT
BRANCH   1   2
ATOM      2  O   UNL     1      43.641   4.914  12.636  0.00  0.00    +0.000 OA
BRANCH   2   6
ATOM      3  C   UNL     1      47.416   6.537  13.515  0.00  0.00    +0.000 A 
ATOM      4  C   UNL     1      47.034   5.245  13.912  0.00  0.00    +0.000 A 
ATOM      5  C   UNL     1      45.763   4.743  13.606  0.00  0.00    +0.000 A 
ATOM      6  C   UNL     1      44.850   5.514  12.886  0.00  0.00    +0.000 A 
ATOM      7  C   UNL     1      45.224   6.793  12.475  0.00  0.00    +0.000 A 
ATOM      8  C   UNL     1      46.495   7.297  12.781  0.00  0.00    +0.000 A 
ATOM      9 CL   UNL     1      46.876   8.883  12.201  0.00  0.00    +0.000 Cl
BRANCH   3  10
ATOM     10  C   UNL     1      48.797   7.033  13.860  0.00  0.00    +0.000 C 
BRANCH  10  11
ATOM     11  N   UNL     1      49.724   6.836  12.753  0.00  0.00    +0.000 NA
ATOM     12  H   UNL     1      50.520   6.289  13.081  0.00  0.00    +0.000 HD
ATOM     13  H   UNL     1      50.104   7.741  12.478  0.00  0.00    +0.000 HD
ENDBRANCH  10  11
ENDBRANCH   3  10
ENDBRANCH   2   6
ENDBRANCH   1   2
BRANCH   1  14
ATOM     14  C   UNL     1      44.173   3.171  10.982  0.00  0.00    +0.000 C 
BRANCH  14  15
ATOM     15  C   UNL     1      44.982   3.179   9.705  0.00  0.00    +0.000 A 
ATOM     16  C   UNL     1      45.220   4.380   9.022  0.00  0.00    +0.000 A 
ATOM     17  C   UNL     1      45.994   4.366   7.868  0.00  0.00    +0.000 A 
ATOM     18  N   UNL     1      46.550   3.251   7.345  0.00  0.00    +0.000 NA
ATOM     19  CA  UNL     1      46.308   2.096   8.029  0.00  0.00    +0.000 A 
ATOM     20  C   UNL     1      45.548   2.010   9.187  0.00  0.00    +0.000 A 
BRANCH  19  21
ATOM     21  C   UNL     1      46.933   0.868   7.459  0.00  0.00    +0.000 C 
ATOM     22  O   UNL     1      46.655  -0.272   7.783  0.00  0.00    +0.000 OA
BRANCH  21  23
ATOM     23  OXT UNL     1      47.856   1.197   6.526  0.00  0.00    +0.000 OA
ATOM     24  HXT UNL     1      47.572   0.822   5.660  0.00  0.00    +0.000 HD
ENDBRANCH  21  23
ENDBRANCH  19  21
ENDBRANCH  14  15
BRANCH  14  25
ATOM     25  O   UNL     1      43.288   2.052  10.959  0.00  0.00    +0.000 OA
ATOM     26  H   UNL     1      43.817   1.266  11.185  0.00  0.00    +0.000 HD
ENDBRANCH  14  25
ENDBRANCH   1  14
TORSDOF 9
ENDMDL
MODEL 3
REMARK VINA RESULT:    -7.266      1.703      2.099
REMARK INTER + INTRA:         -11.239
REMARK INTER:                 -10.714
REMARK INTRA:                  -0.526
REMARK UNBOUND:                -0.788
REMARK  Name = 
REMARK  9 active torsions:
REMARK  status: ('A' for Active; 'I' for Inactive)
REMARK    1  A    between atoms: N_1  and  C_2
REMARK    2  A    between atoms: C_2  and  C_3
REMARK    3  A    between atoms: C_6  and  O_7
REMARK    4  A    between atoms: O_7  and  C_8
REMARK    5  A    between atoms: C_8  and  C_9
REMARK    6  A    between atoms: C_9  and  O_10
REMARK    7  A    between atoms: C_9  and  C_11
REMARK    8  A    between atoms: CA_15  and  C_16
REMARK    9  A    between atoms: C_16  and  OXT_18
REMARK                            x       y       z     vdW  Elec       q    Type
REMARK                         _______ _______ _______ _____ _____    ______ ____
ROOT
ATOM      1  C   UNL     1      44.141   5.143  11.332  0.00  0.00    +0.000 C 
ENDROOT
BRANCH   1   2
ATOM      2  O   UNL     1      43.606   4.622  10.107  0.00  0.00    +0.000 OA
BRANCH   2   6
ATOM      3  C   UNL     1      46.081   1.975   7.979  0.00  0.00    +0.000 A 
ATOM      4  C   UNL     1      45.217   1.551   9.003  0.00  0.00    +0.000 A 
ATOM      5  C   UNL     1      44.413   2.465   9.694  0.00  0.00    +0.000 A 
ATOM      6  C   UNL     1      44.443   3.822   9.371  0.00  0.00    +0.000 A 
ATOM      7  C   UNL     1      45.287   4.252   8.347  0.00  0.00    +0.000 A 
ATOM      8  C   UNL     1      46.092   3.338   7.654  0.00  0.00    +0.000 A 
ATOM      9 CL   UNL     1      47.082   3.965   6.381  0.00  0.00    +0.000 Cl
BRANCH   3  10
ATOM     10  C   UNL     1      46.922   0.954   7.257  0.00  0.00    +0.000 C 
BRANCH  10  11
ATOM     11  N   UNL     1      46.783  -0.368   7.854  0.00  0.00    +0.000 NA
ATOM     12  H   UNL     1      47.417  -1.013   7.384  0.00  0.00    +0.000 HD
ATOM     13  H   UNL     1      45.843  -0.716   7.667  0.00  0.00    +0.000 HD
ENDBRANCH  10  11
ENDBRANCH   3  10
ENDBRANCH   2   6
ENDBRANCH   1   2
BRANCH   1  14
ATOM     14  C   UNL     1      45.240   6.193  11.064  0.00  0.00    +0.000 C 
BRANCH  14  15
ATOM     15  C   UNL     1      46.391   6.181  12.044  0.00  0.00    +0.000 A 
ATOM     16  C   UNL     1      47.512   6.997  11.835  0.00  0.00    +0.000 A 
ATOM     17  C   UNL     1      48.542   6.993  12.767  0.00  0.00    +0.000 A 
ATOM     18  N   UNL     1      48.541   6.242  13.891  0.00  0.00    +0.000 NA
ATOM     19  CA  UNL     1      47.439   5.460  14.075  0.00  0.00    +0.000 A 
ATOM     20  C   UNL     1      46.362   5.395  13.200  0.00  0.00    +0.000 A 
BRANCH  19  21
ATOM     21  C   UNL     1      47.432   4.641  15.321  0.00  0.00    +0.000 C 
ATOM     22  O   UNL     1      46.573   3.833  15.621  0.00  0.00    +0.000 OA
BRANCH  21  23
ATOM     23  OXT UNL     1      48.518   4.923  16.077  0.00  0.00    +0.000 OA
ATOM     24  HXT UNL     1      48.248   5.546  16.791  0.00  0.00    +0.000 HD
ENDBRANCH  21  23
ENDBRANCH  19  21
ENDBRANCH  14  15
BRANCH  14  25
ATOM     25  O   UNL     1      44.697   7.511  11.008  0.00  0.00    +0.000 OA
ATOM     26  H   UNL     1      45.354   8.070  10.556  0.00  0.00    +0.000 HD
ENDBRANCH  14  25
ENDBRANCH   1  14
TORSDOF 9
ENDMDL
MODEL 4
REMARK VINA RESULT:    -6.505      3.372      7.055
REMARK INTER + INTRA:         -10.145
REMARK INTER:                  -9.610
REMARK INTRA:                  -0.536
REMARK UNBOUND:                -0.788
REMARK  Name = 
REMARK  9 active torsions:
REMARK  status: ('A' for Active; 'I' for Inactive)
REMARK    1  A    between atoms: N_1  and  C_2
REMARK    2  A    between atoms: C_2  and  C_3
REMARK    3  A    between atoms: C_6  and  O_7
REMARK    4  A    between atoms: O_7  and  C_8
REMARK    5  A    between atoms: C_8  and  C_9
REMARK    6  A    between atoms: C_9  and  O_10
REMARK    7  A    between atoms: C_9  and  C_11
REMARK    8  A    between atoms: CA_15  and  C_16
REMARK    9  A    between atoms: C_16  and  OXT_18
REMARK                            x       y       z     vdW  Elec       q    Type
REMARK                         _______ _______ _______ _____ _____    ______ ____
ROOT
ATOM      1  C   UNL     1      44.908   4.057  12.168  0.00  0.00    +0.000 C 
ENDROOT
BRANCH   1   2
ATOM      2  O   UNL     1      45.958   3.443  12.929  0.00  0.00    +0.000 OA
BRANCH   2   6
ATOM      3  C   UNL     1      48.225   6.172  15.182  0.00  0.00    +0.000 A 
ATOM      4  C   UNL     1      47.854   6.411  13.849  0.00  0.00    +0.000 A 
ATOM      5  C   UNL     1      47.104   5.474  13.129  0.00  0.00    +0.000 A 
ATOM      6  C   UNL     1      46.697   4.280  13.727  0.00  0.00    +0.000 A 
ATOM      7  C   UNL     1      47.048   4.038  15.055  0.00  0.00    +0.000 A 
ATOM      8  C   UNL     1      47.799   4.976  15.777  0.00  0.00    +0.000 A 
ATOM      9 CL   UNL     1      48.158   4.598  17.427  0.00  0.00    +0.000 Cl
BRANCH   3  10
ATOM     10  C   UNL     1      49.026   7.213  15.921  0.00  0.00    +0.000 C 
BRANCH  10  11
ATOM     11  N   UNL     1      48.176   8.023  16.785  0.00  0.00    +0.000 NA
ATOM     12  H   UNL     1      47.349   8.311  16.262  0.00  0.00    +0.000 HD
ATOM     13  H   UNL     1      48.671   8.884  17.018  0.00  0.00    +0.000 HD
ENDBRANCH  10  11
ENDBRANCH   3  10
ENDBRANCH   2   6
ENDBRANCH   1   2
BRANCH   1  14
ATOM     14  C   UNL     1      44.367   3.102  11.084  0.00  0.00    +0.000 C 
BRANCH  14  15
ATOM     15  C   UNL     1      45.099   3.151   9.762  0.00  0.00    +0.000 A 
ATOM     16  C   UNL     1      45.258   4.366   9.081  0.00  0.00    +0.000 A 
ATOM     17  C   UNL     1      45.964   4.390   7.885  0.00  0.00    +0.000 A 
ATOM     18  N   UNL     1      46.525   3.300   7.316  0.00  0.00    +0.000 NA
ATOM     19  CA  UNL     1      46.361   2.130   7.999  0.00  0.00    +0.000 A 
ATOM     20  C   UNL     1      45.672   2.006   9.198  0.00  0.00    +0.000 A 
BRANCH  19  21
ATOM     21  C   UNL     1      46.990   0.929   7.379  0.00  0.00    +0.000 C 
ATOM     22  O   UNL     1      46.749  -0.223   7.686  0.00  0.00    +0.000 OA
BRANCH  21  23
ATOM     23  OXT UNL     1      47.874   1.300   6.423  0.00  0.00    +0.000 OA
ATOM     24  HXT UNL     1      47.391   1.816   5.736  0.00  0.00    +0.000 HD
ENDBRANCH  21  23
ENDBRANCH  19  21
ENDBRANCH  14  15
BRANCH  14  25
ATOM     25  O   UNL     1      42.977   3.320  10.847  0.00  0.00    +0.000 OA
ATOM     26  H   UNL     1      42.600   3.677  11.672  0.00  0.00    +0.000 HD
ENDBRANCH  14  25
ENDBRANCH   1  14
TORSDOF 9
ENDMDL
MODEL 5
REMARK VINA RESULT:    -6.446      4.133      8.256
REMARK INTER + INTRA:         -10.061
REMARK INTER:                  -9.607
REMARK INTRA:                  -0.453
REMARK UNBOUND:                -0.788
REMARK  Name = 
REMARK  9 active torsions:
REMARK  status: ('A' for Active; 'I' for Inactive)
REMARK    1  A    between atoms: N_1  and  C_2
REMARK    2  A    between atoms: C_2  and  C_3
REMARK    3  A    between atoms: C_6  and  O_7
REMARK    4  A    between atoms: O_7  and  C_8
REMARK    5  A    between atoms: C_8  and  C_9
REMARK    6  A    between atoms: C_9  and  O_10
REMARK    7  A    between atoms: C_9  and  C_11
REMARK    8  A    between atoms: CA_15  and  C_16
REMARK    9  A    between atoms: C_16  and  OXT_18
REMARK                            x       y       z     vdW  Elec       q    Type
REMARK                         _______ _______ _______ _____ _____    ______ ____
ROOT
ATOM      1  C   UNL     1      47.098   4.676  13.870  0.00  0.00    +0.000 C 
ENDROOT
BRANCH   1   2
ATOM      2  O   UNL     1      47.201   3.644  14.862  0.00  0.00    +0.000 OA
BRANCH   2   6
ATOM      3  C   UNL     1      48.631   4.585  18.700  0.00  0.00    +0.000 A 
ATOM      4  C   UNL     1      48.089   3.330  18.378  0.00  0.00    +0.000 A 
ATOM      5  C   UNL     1      47.616   3.058  17.089  0.00  0.00    +0.000 A 
ATOM      6  C   UNL     1      47.684   4.028  16.088  0.00  0.00    +0.000 A 
ATOM      7  C   UNL     1      48.234   5.273  16.393  0.00  0.00    +0.000 A 
ATOM      8  C   UNL     1      48.708   5.547  17.683  0.00  0.00    +0.000 A 
ATOM      9 CL   UNL     1      49.400   7.110  17.953  0.00  0.00    +0.000 Cl
BRANCH   3  10
ATOM     10  C   UNL     1      49.136   4.831  20.098  0.00  0.00    +0.000 C 
BRANCH  10  11
ATOM     11  N   UNL     1      48.406   4.032  21.075  0.00  0.00    +0.000 NA
ATOM     12  H   UNL     1      47.471   3.844  20.717  0.00  0.00    +0.000 HD
ATOM     13  H   UNL     1      48.274   4.588  21.920  0.00  0.00    +0.000 HD
ENDBRANCH  10  11
ENDBRANCH   3  10
ENDBRANCH   2   6
ENDBRANCH   1   2
BRANCH   1  14
ATOM     14  C   UNL     1      45.629   5.073  13.620  0.00  0.00    +0.000 C 
BRANCH  14  15
ATOM     15  C   UNL     1      44.960   4.364  12.464  0.00  0.00    +0.000 A 
ATOM     16  C   UNL     1      43.922   3.451  12.695  0.00  0.00    +0.000 A 
ATOM     17  C   UNL     1      43.301   2.837  11.614  0.00  0.00    +0.000 A 
ATOM     18  N   UNL     1      43.633   3.064  10.324  0.00  0.00    +0.000 NA
ATOM     19  CA  UNL     1      44.642   3.959  10.124  0.00  0.00    +0.000 A 
ATOM     20  C   UNL     1      45.323   4.620  11.138  0.00  0.00    +0.000 A 
BRANCH  19  21
ATOM     21  C   UNL     1      44.999   4.219   8.700  0.00  0.00    +0.000 C 
ATOM     22  O   UNL     1      45.870   4.983   8.327  0.00  0.00    +0.000 OA
BRANCH  21  23
ATOM     23  OXT UNL     1      44.216   3.486   7.875  0.00  0.00    +0.000 OA
ATOM     24  HXT UNL     1      43.532   4.078   7.486  0.00  0.00    +0.000 HD
ENDBRANCH  21  23
ENDBRANCH  19  21
ENDBRANCH  14  15
BRANCH  14  25
ATOM     25  O   UNL     1      45.495   6.481  13.435  0.00  0.00    +0.000 OA
ATOM     26  H   UNL     1      45.588   6.653  12.480  0.00  0.00    +0.000 HD
ENDBRANCH  14  25
ENDBRANCH   1  14
TORSDOF 9
ENDMDL
MODEL 6
REMARK VINA RESULT:    -6.307      3.346      4.725
REMARK INTER + INTRA:          -9.860
REMARK INTER:                  -9.023
REMARK INTRA:                  -0.837
REMARK UNBOUND:                -0.788
REMARK  Name = 
REMARK  9 active torsions:
REMARK  status: ('A' for Active; 'I' for Inactive)
REMARK    1  A    between atoms: N_1  and  C_2
REMARK    2  A    between atoms: C_2  and  C_3
REMARK    3  A    between atoms: C_6  and  O_7
REMARK    4  A    between atoms: O_7  and  C_8
REMARK    5  A    between atoms: C_8  and  C_9
REMARK    6  A    between atoms: C_9  and  O_10
REMARK    7  A    between atoms: C_9  and  C_11
REMARK    8  A    between atoms: CA_15  and  C_16
REMARK    9  A    between atoms: C_16  and  OXT_18
REMARK                            x       y       z     vdW  Elec       q    Type
REMARK                         _______ _______ _______ _____ _____    ______ ____
ROOT
ATOM      1  C   UNL     1      47.937   7.727  12.515  0.00  0.00    +0.000 C 
ENDROOT
BRANCH   1   2
ATOM      2  O   UNL     1      46.564   7.903  12.137  0.00  0.00    +0.000 OA
BRANCH   2   6
ATOM      3  C   UNL     1      44.312   4.412  11.502  0.00  0.00    +0.000 A 
ATOM      4  C   UNL     1      44.285   5.123  12.713  0.00  0.00    +0.000 A 
ATOM      5  C   UNL     1      45.056   6.279  12.888  0.00  0.00    +0.000 A 
ATOM      6  C   UNL     1      45.862   6.758  11.855  0.00  0.00    +0.000 A 
ATOM      7  C   UNL     1      45.885   6.067  10.643  0.00  0.00    +0.000 A 
ATOM      8  C   UNL     1      45.114   4.910  10.466  0.00  0.00    +0.000 A 
ATOM      9 CL   UNL     1      45.187   4.142   8.917  0.00  0.00    +0.000 Cl
BRANCH   3  10
ATOM     10  C   UNL     1      43.459   3.178  11.355  0.00  0.00    +0.000 C 
BRANCH  10  11
ATOM     11  N   UNL     1      43.557   2.321  12.530  0.00  0.00    +0.000 NA
ATOM     12  H   UNL     1      42.702   2.408  13.077  0.00  0.00    +0.000 HD
ATOM     13  H   UNL     1      44.307   2.669  13.128  0.00  0.00    +0.000 HD
ENDBRANCH  10  11
ENDBRANCH   3  10
ENDBRANCH   2   6
ENDBRANCH   1   2
BRANCH   1  14
ATOM     14  C   UNL     1      48.183   8.181  13.969  0.00  0.00    +0.000 C 
BRANCH  14  15
ATOM     15  C   UNL     1      48.586   7.081  14.925  0.00  0.00    +0.000 A 
ATOM     16  C   UNL     1      49.707   7.233  15.752  0.00  0.00    +0.000 A 
ATOM     17  C   UNL     1      50.038   6.223  16.646  0.00  0.00    +0.000 A 
ATOM     18  N   UNL     1      49.337   5.075  16.781  0.00  0.00    +0.000 NA
ATOM     19  CA  UNL     1      48.247   4.952  15.970  0.00  0.00    +0.000 A 
ATOM     20  C   UNL     1      47.840   5.904  15.046  0.00  0.00    +0.000 A 
BRANCH  19  21
ATOM     21  C   UNL     1      47.466   3.692  16.129  0.00  0.00    +0.000 C 
ATOM     22  O   UNL     1      46.711   3.450  17.052  0.00  0.00    +0.000 OA
BRANCH  21  23
ATOM     23  OXT UNL     1      47.715   2.849  15.099  0.00  0.00    +0.000 OA
ATOM     24  HXT UNL     1      46.853   2.542  14.732  0.00  0.00    +0.000 HD
ENDBRANCH  21  23
ENDBRANCH  19  21
ENDBRANCH  14  15
BRANCH  14  25
ATOM     25  O   UNL     1      47.047   8.860  14.501  0.00  0.00    +0.000 OA
ATOM     26  H   UNL     1      46.371   8.877  13.799  0.00  0.00    +0.000 HD
ENDBRANCH  14  25
ENDBRANCH   1  14
TORSDOF 9
ENDMDL
MODEL 7
REMARK VINA RESULT:    -6.150      3.695      7.012
REMARK INTER + INTRA:          -9.634
REMARK INTER:                  -9.061
REMARK INTRA:                  -0.573
REMARK UNBOUND:                -0.788
REMARK  Name = 
REMARK  9 active torsions:
REMARK  status: ('A' for Active; 'I' for Inactive)
REMARK    1  A    between atoms: N_1  and  C_2
REMARK    2  A    between atoms: C_2  and  C_3
REMARK    3  A    between atoms: C_6  and  O_7
REMARK    4  A    between atoms: O_7  and  C_8
REMARK    5  A    between atoms: C_8  and  C_9
REMARK    6  A    between atoms: C_9  and  O_10
REMARK    7  A    between atoms: C_9  and  C_11
REMARK    8  A    between atoms: CA_15  and  C_16
REMARK    9  A    between atoms: C_16  and  OXT_18
REMARK                            x       y       z     vdW  Elec       q    Type
REMARK                         _______ _______ _______ _____ _____    ______ ____
ROOT
ATOM      1  C   UNL     1      46.038   7.062  12.052  0.00  0.00    +0.000 C 
ENDROOT
BRANCH   1   2
ATOM      2  O   UNL     1      46.869   5.911  12.261  0.00  0.00    +0.000 OA
BRANCH   2   6
ATOM      3  C   UNL     1      47.913   4.938  16.214  0.00  0.00    +0.000 A 
ATOM      4  C   UNL     1      47.114   4.106  15.412  0.00  0.00    +0.000 A 
ATOM      5  C   UNL     1      46.783   4.469  14.102  0.00  0.00    +0.000 A 
ATOM      6  C   UNL     1      47.250   5.665  13.557  0.00  0.00    +0.000 A 
ATOM      7  C   UNL     1      48.055   6.493  14.339  0.00  0.00    +0.000 A 
ATOM      8  C   UNL     1      48.388   6.131  15.651  0.00  0.00    +0.000 A 
ATOM      9 CL   UNL     1      49.417   7.209  16.530  0.00  0.00    +0.000 Cl
BRANCH   3  10
ATOM     10  C   UNL     1      48.252   4.503  17.616  0.00  0.00    +0.000 C 
BRANCH  10  11
ATOM     11  N   UNL     1      47.137   3.802  18.240  0.00  0.00    +0.000 NA
ATOM     12  H   UNL     1      46.742   4.392  18.971  0.00  0.00    +0.000 HD
ATOM     13  H   UNL     1      47.494   2.973  18.715  0.00  0.00    +0.000 HD
ENDBRANCH  10  11
ENDBRANCH   3  10
ENDBRANCH   2   6
ENDBRANCH   1   2
BRANCH   1  14
ATOM     14  C   UNL     1      44.544   6.678  12.015  0.00  0.00    +0.000 C 
BRANCH  14  15
ATOM     15  C   UNL     1      44.258   5.250  11.607  0.00  0.00    +0.000 A 
ATOM     16  C   UNL     1      43.510   4.409  12.441  0.00  0.00    +0.000 A 
ATOM     17  C   UNL     1      43.232   3.111  12.030  0.00  0.00    +0.000 A 
ATOM     18  N   UNL     1      43.640   2.589  10.852  0.00  0.00    +0.000 NA
ATOM     19  CA  UNL     1      44.363   3.428  10.056  0.00  0.00    +0.000 A 
ATOM     20  C   UNL     1      44.692   4.736  10.381  0.00  0.00    +0.000 A 
BRANCH  19  21
ATOM     21  C   UNL     1      44.802   2.856   8.750  0.00  0.00    +0.000 C 
ATOM     22  O   UNL     1      45.545   1.900   8.621  0.00  0.00    +0.000 OA
BRANCH  21  23
ATOM     23  OXT UNL     1      44.258   3.550   7.724  0.00  0.00    +0.000 OA
ATOM     24  HXT UNL     1      44.412   4.511   7.881  0.00  0.00    +0.000 HD
ENDBRANCH  21  23
ENDBRANCH  19  21
ENDBRANCH  14  15
BRANCH  14  25
ATOM     25  O   UNL     1      43.804   7.555  11.167  0.00  0.00    +0.000 OA
ATOM     26  H   UNL     1      43.368   7.001  10.495  0.00  0.00    +0.000 HD
ENDBRANCH  14  25
ENDBRANCH   1  14
TORSDOF 9
ENDMDL
MODEL 8
REMARK VINA RESULT:    -6.052      3.376      7.134
REMARK INTER + INTRA:          -9.494
REMARK INTER:                  -8.992
REMARK INTRA:                  -0.502
REMARK UNBOUND:                -0.788
REMARK  Name = 
REMARK  9 active torsions:
REMARK  status: ('A' for Active; 'I' for Inactive)
REMARK    1  A    between atoms: N_1  and  C_2
REMARK    2  A    between atoms: C_2  and  C_3
REMARK    3  A    between atoms: C_6  and  O_7
REMARK    4  A    between atoms: O_7  and  C_8
REMARK    5  A    between atoms: C_8  and  C_9
REMARK    6  A    between atoms: C_9  and  O_10
REMARK    7  A    between atoms: C_9  and  C_11
REMARK    8  A    between atoms: CA_15  and  C_16
REMARK    9  A    between atoms: C_16  and  OXT_18
REMARK                            x       y       z     vdW  Elec       q    Type
REMARK                         _______ _______ _______ _____ _____    ______ ____
ROOT
ATOM      1  C   UNL     1      44.877   5.510  12.691  0.00  0.00    +0.000 C 
ENDROOT
BRANCH   1   2
ATOM      2  O   UNL     1      46.294   5.296  12.619  0.00  0.00    +0.000 OA
BRANCH   2   6
ATOM      3  C   UNL     1      48.470   5.532  16.207  0.00  0.00    +0.000 A 
ATOM      4  C   UNL     1      48.598   6.479  15.178  0.00  0.00    +0.000 A 
ATOM      5  C   UNL     1      47.860   6.362  13.994  0.00  0.00    +0.000 A 
ATOM      6  C   UNL     1      46.969   5.303  13.814  0.00  0.00    +0.000 A 
ATOM      7  C   UNL     1      46.825   4.364  14.836  0.00  0.00    +0.000 A 
ATOM      8  C   UNL     1      47.562   4.480  16.021  0.00  0.00    +0.000 A 
ATOM      9 CL   UNL     1      47.290   3.283  17.241  0.00  0.00    +0.000 Cl
BRANCH   3  10
ATOM     10  C   UNL     1      49.278   5.704  17.468  0.00  0.00    +0.000 C 
BRANCH  10  11
ATOM     11  N   UNL     1      50.681   5.961  17.169  0.00  0.00    +0.000 NA
ATOM     12  H   UNL     1      51.170   5.071  17.082  0.00  0.00    +0.000 HD
ATOM     13  H   UNL     1      51.105   6.434  17.967  0.00  0.00    +0.000 HD
ENDBRANCH  10  11
ENDBRANCH   3  10
ENDBRANCH   2   6
ENDBRANCH   1   2
BRANCH   1  14
ATOM     14  C   UNL     1      44.249   5.596  11.285  0.00  0.00    +0.000 C 
BRANCH  14  15
ATOM     15  C   UNL     1      44.555   4.430  10.373  0.00  0.00    +0.000 A 
ATOM     16  C   UNL     1      44.016   3.162  10.635  0.00  0.00    +0.000 A 
ATOM     17  C   UNL     1      44.285   2.114   9.764  0.00  0.00    +0.000 A 
ATOM     18  N   UNL     1      45.045   2.231   8.653  0.00  0.00    +0.000 NA
ATOM     19  CA  UNL     1      45.554   3.474   8.417  0.00  0.00    +0.000 A 
ATOM     20  C   UNL     1      45.344   4.580   9.228  0.00  0.00    +0.000 A 
BRANCH  19  21
ATOM     21  C   UNL     1      46.382   3.606   7.184  0.00  0.00    +0.000 C 
ATOM     22  O   UNL     1      46.331   2.859   6.224  0.00  0.00    +0.000 OA
BRANCH  21  23
ATOM     23  OXT UNL     1      47.205   4.677   7.280  0.00  0.00    +0.000 OA
ATOM     24  HXT UNL     1      47.923   4.462   7.919  0.00  0.00    +0.000 HD
ENDBRANCH  21  23
ENDBRANCH  19  21
ENDBRANCH  14  15
BRANCH  14  25
ATOM     25  O   UNL     1      44.618   6.805  10.624  0.00  0.00    +0.000 OA
ATOM     26  H   UNL     1      44.802   6.577   9.695  0.00  0.00    +0.000 HD
ENDBRANCH  14  25
ENDBRANCH   1  14
TORSDOF 9
ENDMDL
MODEL 9
REMARK VINA RESULT:    -5.972      4.167      6.191
REMARK INTER + INTRA:          -9.378
REMARK INTER:                  -8.936
REMARK INTRA:                  -0.443
REMARK UNBOUND:                -0.788
REMARK  Name = 
REMARK  9 active torsions:
REMARK  status: ('A' for Active; 'I' for Inactive)
REMARK    1  A    between atoms: N_1  and  C_2
REMARK    2  A    between atoms: C_2  and  C_3
REMARK    3  A    between atoms: C_6  and  O_7
REMARK    4  A    between atoms: O_7  and  C_8
REMARK    5  A    between atoms: C_8  and  C_9
REMARK    6  A    between atoms: C_9  and  O_10
REMARK    7  A    between atoms: C_9  and  C_11
REMARK    8  A    between atoms: CA_15  and  C_16
REMARK    9  A    between atoms: C_16  and  OXT_18
REMARK                            x       y       z     vdW  Elec       q    Type
REMARK                         _______ _______ _______ _____ _____    ______ ____
ROOT
ATOM      1  C   UNL     1      47.453   3.340  15.325  0.00  0.00    +0.000 C 
ENDROOT
BRANCH   1   2
ATOM      2  O   UNL     1      47.574   4.487  14.471  0.00  0.00    +0.000 OA
BRANCH   2   6
ATOM      3  C   UNL     1      44.385   5.510  11.933  0.00  0.00    +0.000 A 
ATOM      4  C   UNL     1      45.306   6.455  12.415  0.00  0.00    +0.000 A 
ATOM      5  C   UNL     1      46.351   6.076  13.265  0.00  0.00    +0.000 A 
ATOM      6  C   UNL     1      46.509   4.742  13.644  0.00  0.00    +0.000 A 
ATOM      7  C   UNL     1      45.610   3.793  13.160  0.00  0.00    +0.000 A 
ATOM      8  C   UNL     1      44.563   4.171  12.309  0.00  0.00    +0.000 A 
ATOM      9 CL   UNL     1      43.518   2.916  11.737  0.00  0.00    +0.000 Cl
BRANCH   3  10
ATOM     10  C   UNL     1      43.281   5.962  11.012  0.00  0.00    +0.000 C 
BRANCH  10  11
ATOM     11  N   UNL     1      42.037   6.178  11.741  0.00  0.00    +0.000 NA
ATOM     12  H   UNL     1      41.365   6.630  11.122  0.00  0.00    +0.000 HD
ATOM     13  H   UNL     1      42.210   6.842  12.495  0.00  0.00    +0.000 HD
ENDBRANCH  10  11
ENDBRANCH   3  10
ENDBRANCH   2   6
ENDBRANCH   1   2
BRANCH   1  14
ATOM     14  C   UNL     1      47.637   3.720  16.809  0.00  0.00    +0.000 C 
BRANCH  14  15
ATOM     15  C   UNL     1      49.066   3.706  17.303  0.00  0.00    +0.000 A 
ATOM     16  C   UNL     1      49.625   4.847  17.895  0.00  0.00    +0.000 A 
ATOM     17  C   UNL     1      50.929   4.798  18.372  0.00  0.00    +0.000 A 
ATOM     18  N   UNL     1      51.717   3.703  18.306  0.00  0.00    +0.000 NA
ATOM     19  CA  UNL     1      51.150   2.604  17.729  0.00  0.00    +0.000 A 
ATOM     20  C   UNL     1      49.858   2.557  17.223  0.00  0.00    +0.000 A 
BRANCH  19  21
ATOM     21  C   UNL     1      52.015   1.391  17.668  0.00  0.00    +0.000 C 
ATOM     22  O   UNL     1      53.176   1.379  17.303  0.00  0.00    +0.000 OA
BRANCH  21  23
ATOM     23  OXT UNL     1      51.326   0.299  18.075  0.00  0.00    +0.000 OA
ATOM     24  HXT UNL     1      50.886  -0.102  17.290  0.00  0.00    +0.000 HD
ENDBRANCH  21  23
ENDBRANCH  19  21
ENDBRANCH  14  15
BRANCH  14  25
ATOM     25  O   UNL     1      46.848   2.890  17.659  0.00  0.00    +0.000 OA
ATOM     26  H   UNL     1      46.087   2.585  17.132  0.00  0.00    +0.000 HD
ENDBRANCH  14  25
ENDBRANCH   1  14
TORSDOF 9
ENDMDL
