MODEL 1
REMARK VINA RESULT:    -8.934      0.000      0.000
REMARK INTER + INTRA:         -13.610
REMARK INTER:                 -12.590
REMARK INTRA:                  -1.020
REMARK UNBOUND:                -1.020
REMARK  Name = 
REMARK  8 active torsions:
REMARK  status: ('A' for Active; 'I' for Inactive)
REMARK    1  A    between atoms: C_1  and  C_2
REMARK    2  A    between atoms: C_4  and  O_5
REMARK    3  A    between atoms: O_5  and  C_6
REMARK    4  A    between atoms: C_6  and  C_7
REMARK    5  A    between atoms: C_7  and  C_10
REMARK    6  A    between atoms: C_14  and  C_15
REMARK    7  A    between atoms: C_15  and  C_16
REMARK    8  A    between atoms: C_23  and  C_24
REMARK                            x       y       z     vdW  Elec       q    Type
REMARK                         _______ _______ _______ _____ _____    ______ ____
ROOT
ATOM      1  C   UNL     1      43.789   4.484  12.335  0.00  0.00    +0.000 C 
ATOM      2  F   UNL     1      42.804   5.227  12.921  0.00  0.00    +0.000 F 
ATOM      3  F   UNL     1      43.687   3.239  12.890  0.00  0.00    +0.000 F 
ENDROOT
BRANCH   1   4
ATOM      4  C   UNL     1      45.167   5.092  12.552  0.00  0.00    +0.000 A 
ATOM      5  C   UNL     1      45.705   5.972  11.601  0.00  0.00    +0.000 A 
ATOM      6  C   UNL     1      46.946   6.571  11.816  0.00  0.00    +0.000 A 
ATOM      7  C   UNL     1      47.662   6.305  12.983  0.00  0.00    +0.000 A 
ATOM      8  C   UNL     1      47.151   5.427  13.947  0.00  0.00    +0.000 A 
ATOM      9  C   UNL     1      45.901   4.825  13.722  0.00  0.00    +0.000 A 
BRANCH   8  10
ATOM     10  C   UNL     1      47.935   5.139  15.205  0.00  0.00    +0.000 C 
BRANCH  10  11
ATOM     11  C   UNL     1      47.184   4.174  16.111  0.00  0.00    +0.000 C 
ATOM     12  C   UNL     1      47.115   4.463  17.627  0.00  0.00    +0.000 C 
ATOM     13  N   UNL     1      47.406   3.036  17.886  0.00  0.00    +0.000 NA
ATOM     14  C   UNL     1      47.987   2.924  16.533  0.00  0.00    +0.000 C 
ATOM     15  H   UNL     1      46.567   2.470  18.012  0.00  0.00    +0.000 HD
ENDBRANCH  10  11
ENDBRANCH   8  10
ENDBRANCH   1   4
BRANCH   1  16
ATOM     16  C   UNL     1      43.505   4.379  10.829  0.00  0.00    +0.000 C 
BRANCH  16  17
ATOM     17  O   UNL     1      43.646   3.030  10.343  0.00  0.00    +0.000 OA
BRANCH  17  21
ATOM     18  C   UNL     1      46.671   0.252   7.702  0.00  0.00    +0.000 C 
ATOM     19  C   UNL     1      46.068   1.596   8.003  0.00  0.00    +0.000 A 
ATOM     20  C   UNL     1      45.121   1.710   9.039  0.00  0.00    +0.000 A 
ATOM     21  C   UNL     1      44.570   2.954   9.317  0.00  0.00    +0.000 A 
ATOM     22  N   UNL     1      44.888   4.073   8.640  0.00  0.00    +0.000 NA
ATOM     23  C   UNL     1      45.791   3.945   7.639  0.00  0.00    +0.000 A 
ATOM     24  C   UNL     1      46.420   2.756   7.289  0.00  0.00    +0.000 A 
BRANCH  24  25
ATOM     25  C   UNL     1      47.393   2.755   6.163  0.00  0.00    +0.000 C 
ATOM     26  N   UNL     1      48.720   2.622   6.475  0.00  0.00    +0.000 N 
ATOM     27  O   UNL     1      47.046   2.859   4.995  0.00  0.00    +0.000 OA
ATOM     28  H   UNL     1      49.066   2.334   7.377  0.00  0.00    +0.000 HD
ATOM     29  H   UNL     1      49.359   2.557   5.689  0.00  0.00    +0.000 HD
ENDBRANCH  24  25
ENDBRANCH  17  21
ENDBRANCH  16  17
ENDBRANCH   1  16
TORSDOF 7
ENDMDL
MODEL 2
REMARK VINA RESULT:    -8.511      2.209      3.580
REMARK INTER + INTRA:         -13.014
REMARK INTER:                 -12.163
REMARK INTRA:                  -0.851
REMARK UNBOUND:                -1.020
REMARK  Name = 
REMARK  8 active torsions:
REMARK  status: ('A' for Active; 'I' for Inactive)
REMARK    1  A    between atoms: C_1  and  C_2
REMARK    2  A    between atoms: C_4  and  O_5
REMARK    3  A    between atoms: O_5  and  C_6
REMARK    4  A    between atoms: C_6  and  C_7
REMARK    5  A    between atoms: C_7  and  C_10
REMARK    6  A    between atoms: C_14  and  C_15
REMARK    7  A    between atoms: C_15  and  C_16
REMARK    8  A    between atoms: C_23  and  C_24
REMARK                            x       y       z     vdW  Elec       q    Type
REMARK                         _______ _______ _______ _____ _____    ______ ____
ROOT
ATOM      1  C   UNL     1      43.617   4.456  12.373  0.00  0.00    +0.000 C 
ATOM      2  F   UNL     1      42.558   5.177  12.847  0.00  0.00    +0.000 F 
ATOM      3  F   UNL     1      43.470   3.203  12.898  0.00  0.00    +0.000 F 
ENDROOT
BRANCH   1   4
ATOM      4  C   UNL     1      44.949   5.082  12.758  0.00  0.00    +0.000 A 
ATOM      5  C   UNL     1      45.806   4.420  13.650  0.00  0.00    +0.000 A 
ATOM      6  C   UNL     1      47.049   4.964  13.970  0.00  0.00    +0.000 A 
ATOM      7  C   UNL     1      47.455   6.171  13.401  0.00  0.00    +0.000 A 
ATOM      8  C   UNL     1      46.618   6.856  12.510  0.00  0.00    +0.000 A 
ATOM      9  C   UNL     1      45.366   6.302  12.196  0.00  0.00    +0.000 A 
BRANCH   8  10
ATOM     10  C   UNL     1      47.063   8.165  11.903  0.00  0.00    +0.000 C 
BRANCH  10  11
ATOM     11  C   UNL     1      46.377   9.344  12.579  0.00  0.00    +0.000 C 
ATOM     12  C   UNL     1      44.976   9.779  12.094  0.00  0.00    +0.000 C 
ATOM     13  N   UNL     1      45.423  11.188  12.151  0.00  0.00    +0.000 NA
ATOM     14  C   UNL     1      46.825  10.732  12.070  0.00  0.00    +0.000 C 
ATOM     15  H   UNL     1      45.199  11.647  13.034  0.00  0.00    +0.000 HD
ENDBRANCH  10  11
ENDBRANCH   8  10
ENDBRANCH   1   4
BRANCH   1  16
ATOM     16  C   UNL     1      43.513   4.368  10.843  0.00  0.00    +0.000 C 
BRANCH  16  17
ATOM     17  O   UNL     1      43.676   3.018  10.366  0.00  0.00    +0.000 OA
BRANCH  17  21
ATOM     18  C   UNL     1      46.685   0.255   7.692  0.00  0.00    +0.000 C 
ATOM     19  C   UNL     1      46.093   1.599   8.011  0.00  0.00    +0.000 A 
ATOM     20  C   UNL     1      45.144   1.705   9.046  0.00  0.00    +0.000 A 
ATOM     21  C   UNL     1      44.603   2.950   9.342  0.00  0.00    +0.000 A 
ATOM     22  N   UNL     1      44.933   4.076   8.683  0.00  0.00    +0.000 NA
ATOM     23  C   UNL     1      45.839   3.955   7.684  0.00  0.00    +0.000 A 
ATOM     24  C   UNL     1      46.458   2.767   7.317  0.00  0.00    +0.000 A 
BRANCH  24  25
ATOM     25  C   UNL     1      47.435   2.775   6.194  0.00  0.00    +0.000 C 
ATOM     26  N   UNL     1      48.761   2.652   6.511  0.00  0.00    +0.000 N 
ATOM     27  O   UNL     1      47.091   2.877   5.025  0.00  0.00    +0.000 OA
ATOM     28  H   UNL     1      49.107   2.366   7.414  0.00  0.00    +0.000 HD
ATOM     29  H   UNL     1      49.404   2.594   5.727  0.00  0.00    +0.000 HD
ENDBRANCH  24  25
ENDBRANCH  17  21
ENDBRANCH  16  17
ENDBRANCH   1  16
TORSDOF 7
ENDMDL
MODEL 3
REMARK VINA RESULT:    -8.110      2.476      2.943
REMARK INTER + INTRA:         -12.448
REMARK INTER:                 -11.464
REMARK INTRA:                  -0.985
REMARK UNBOUND:                -1.020
REMARK  Name = 
REMARK  8 active torsions:
REMARK  status: ('A' for Active; 'I' for Inactive)
REMARK    1  A    between atoms: C_1  and  C_2
REMARK    2  A    between atoms: C_4  and  O_5
REMARK    3  A    between atoms: O_5  and  C_6
REMARK    4  A    between atoms: C_6  and  C_7
REMARK    5  A    between atoms: C_7  and  C_10
REMARK    6  A    between atoms: C_14  and  C_15
REMARK    7  A    between atoms: C_15  and  C_16
REMARK    8  A    between atoms: C_23  and  C_24
REMARK                            x       y       z     vdW  Elec       q    Type
REMARK                         _______ _______ _______ _____ _____    ______ ____
ROOT
ATOM      1  C   UNL     1      43.677   4.347  12.321  0.00  0.00    +0.000 C 
ATOM      2  F   UNL     1      42.441   4.626  11.810  0.00  0.00    +0.000 F 
ATOM      3  F   UNL     1      43.467   4.031  13.634  0.00  0.00    +0.000 F 
ENDROOT
BRANCH   1   4
ATOM      4  C   UNL     1      44.634   5.519  12.164  0.00  0.00    +0.000 A 
ATOM      5  C   UNL     1      44.172   6.743  11.658  0.00  0.00    +0.000 A 
ATOM      6  C   UNL     1      45.032   7.835  11.556  0.00  0.00    +0.000 A 
ATOM      7  C   UNL     1      46.362   7.723  11.962  0.00  0.00    +0.000 A 
ATOM      8  C   UNL     1      46.852   6.511  12.467  0.00  0.00    +0.000 A 
ATOM      9  C   UNL     1      45.979   5.414  12.563  0.00  0.00    +0.000 A 
BRANCH   8  10
ATOM     10  C   UNL     1      48.294   6.396  12.899  0.00  0.00    +0.000 C 
BRANCH  10  11
ATOM     11  C   UNL     1      49.050   7.691  12.636  0.00  0.00    +0.000 C 
ATOM     12  C   UNL     1      50.229   7.687  11.638  0.00  0.00    +0.000 C 
ATOM     13  N   UNL     1      51.009   8.500  12.595  0.00  0.00    +0.000 NA
ATOM     14  C   UNL     1      50.130   8.033  13.687  0.00  0.00    +0.000 C 
ATOM     15  H   UNL     1      50.939   9.503  12.423  0.00  0.00    +0.000 HD
ENDBRANCH  10  11
ENDBRANCH   8  10
ENDBRANCH   1   4
BRANCH   1  16
ATOM     16  C   UNL     1      44.247   3.116  11.600  0.00  0.00    +0.000 C 
BRANCH  16  17
ATOM     17  O   UNL     1      43.629   2.905  10.316  0.00  0.00    +0.000 OA
BRANCH  17  21
ATOM     18  C   UNL     1      46.729   0.224   7.662  0.00  0.00    +0.000 C 
ATOM     19  C   UNL     1      46.102   1.553   7.981  0.00  0.00    +0.000 A 
ATOM     20  C   UNL     1      45.141   1.633   9.006  0.00  0.00    +0.000 A 
ATOM     21  C   UNL     1      44.567   2.863   9.302  0.00  0.00    +0.000 A 
ATOM     22  N   UNL     1      44.878   4.000   8.650  0.00  0.00    +0.000 NA
ATOM     23  C   UNL     1      45.795   3.904   7.660  0.00  0.00    +0.000 A 
ATOM     24  C   UNL     1      46.447   2.732   7.295  0.00  0.00    +0.000 A 
BRANCH  24  25
ATOM     25  C   UNL     1      47.433   2.768   6.182  0.00  0.00    +0.000 C 
ATOM     26  N   UNL     1      48.761   2.699   6.513  0.00  0.00    +0.000 N 
ATOM     27  O   UNL     1      47.098   2.846   5.008  0.00  0.00    +0.000 OA
ATOM     28  H   UNL     1      49.108   2.434   7.422  0.00  0.00    +0.000 HD
ATOM     29  H   UNL     1      49.413   2.658   5.736  0.00  0.00    +0.000 HD
ENDBRANCH  24  25
ENDBRANCH  17  21
ENDBRANCH  16  17
ENDBRANCH   1  16
TORSDOF 7
ENDMDL
MODEL 4
REMARK VINA RESULT:    -7.943      2.831      8.189
REMARK INTER + INTRA:         -12.213
REMARK INTER:                 -11.361
REMARK INTRA:                  -0.852
REMARK UNBOUND:                -1.020
REMARK  Name = 
REMARK  8 active torsions:
REMARK  status: ('A' for Active; 'I' for Inactive)
REMARK    1  A    between atoms: C_1  and  C_2
REMARK    2  A    between atoms: C_4  and  O_5
REMARK    3  A    between atoms: O_5  and  C_6
REMARK    4  A    between atoms: C_6  and  C_7
REMARK    5  A    between atoms: C_7  and  C_10
REMARK    6  A    between atoms: C_14  and  C_15
REMARK    7  A    between atoms: C_15  and  C_16
REMARK    8  A    between atoms: C_23  and  C_24
REMARK                            x       y       z     vdW  Elec       q    Type
REMARK                         _______ _______ _______ _____ _____    ______ ____
ROOT
ATOM      1  C   UNL     1      44.643   5.861  11.623  0.00  0.00    +0.000 C 
ATOM      2  F   UNL     1      43.337   6.190  11.852  0.00  0.00    +0.000 F 
ATOM      3  F   UNL     1      45.236   7.007  11.175  0.00  0.00    +0.000 F 
ENDROOT
BRANCH   1   4
ATOM      4  C   UNL     1      44.776   4.723  10.621  0.00  0.00    +0.000 A 
ATOM      5  C   UNL     1      44.136   3.497  10.859  0.00  0.00    +0.000 A 
ATOM      6  C   UNL     1      44.214   2.466   9.924  0.00  0.00    +0.000 A 
ATOM      7  C   UNL     1      44.924   2.647   8.737  0.00  0.00    +0.000 A 
ATOM      8  C   UNL     1      45.576   3.860   8.474  0.00  0.00    +0.000 A 
ATOM      9  C   UNL     1      45.495   4.892   9.424  0.00  0.00    +0.000 A 
BRANCH   8  10
ATOM     10  C   UNL     1      46.348   4.045   7.190  0.00  0.00    +0.000 C 
BRANCH  10  11
ATOM     11  C   UNL     1      46.742   2.703   6.589  0.00  0.00    +0.000 C 
ATOM     12  C   UNL     1      48.133   2.112   6.914  0.00  0.00    +0.000 C 
ATOM     13  N   UNL     1      48.287   1.759   5.486  0.00  0.00    +0.000 NA
ATOM     14  C   UNL     1      47.272   2.774   5.140  0.00  0.00    +0.000 C 
ATOM     15  H   UNL     1      47.993   0.806   5.272  0.00  0.00    +0.000 HD
ENDBRANCH  10  11
ENDBRANCH   8  10
ENDBRANCH   1   4
BRANCH   1  16
ATOM     16  C   UNL     1      45.294   5.453  12.953  0.00  0.00    +0.000 C 
BRANCH  16  17
ATOM     17  O   UNL     1      46.727   5.353  12.847  0.00  0.00    +0.000 OA
BRANCH  17  21
ATOM     18  C   UNL     1      47.182   3.282  17.246  0.00  0.00    +0.000 C 
ATOM     19  C   UNL     1      47.568   4.357  16.268  0.00  0.00    +0.000 A 
ATOM     20  C   UNL     1      46.976   4.370  14.991  0.00  0.00    +0.000 A 
ATOM     21  C   UNL     1      47.330   5.368  14.091  0.00  0.00    +0.000 A 
ATOM     22  N   UNL     1      48.226   6.333  14.372  0.00  0.00    +0.000 NA
ATOM     23  C   UNL     1      48.795   6.298  15.599  0.00  0.00    +0.000 A 
ATOM     24  C   UNL     1      48.500   5.362  16.583  0.00  0.00    +0.000 A 
BRANCH  24  25
ATOM     25  C   UNL     1      49.204   5.438  17.891  0.00  0.00    +0.000 C 
ATOM     26  N   UNL     1      48.661   6.248  18.854  0.00  0.00    +0.000 N 
ATOM     27  O   UNL     1      50.224   4.806  18.127  0.00  0.00    +0.000 OA
ATOM     28  H   UNL     1      47.732   6.638  18.812  0.00  0.00    +0.000 HD
ATOM     29  H   UNL     1      49.120   6.234  19.759  0.00  0.00    +0.000 HD
ENDBRANCH  24  25
ENDBRANCH  17  21
ENDBRANCH  16  17
ENDBRANCH   1  16
TORSDOF 7
ENDMDL
MODEL 5
REMARK VINA RESULT:    -7.360      2.332      3.579
REMARK INTER + INTRA:         -11.392
REMARK INTER:                 -10.778
REMARK INTRA:                  -0.614
REMARK UNBOUND:                -1.020
REMARK  Name = 
REMARK  8 active torsions:
REMARK  status: ('A' for Active; 'I' for Inactive)
REMARK    1  A    between atoms: C_1  and  C_2
REMARK    2  A    between atoms: C_4  and  O_5
REMARK    3  A    between atoms: O_5  and  C_6
REMARK    4  A    between atoms: C_6  and  C_7
REMARK    5  A    between atoms: C_7  and  C_10
REMARK    6  A    between atoms: C_14  and  C_15
REMARK    7  A    between atoms: C_15  and  C_16
REMARK    8  A    between atoms: C_23  and  C_24
REMARK                            x       y       z     vdW  Elec       q    Type
REMARK                         _______ _______ _______ _____ _____    ______ ____
ROOT
ATOM      1  C   UNL     1      45.064   4.354  12.516  0.00  0.00    +0.000 C 
ATOM      2  F   UNL     1      43.904   4.328  13.239  0.00  0.00    +0.000 F 
ATOM      3  F   UNL     1      45.455   3.050  12.405  0.00  0.00    +0.000 F 
ENDROOT
BRANCH   1   4
ATOM      4  C   UNL     1      46.129   5.213  13.182  0.00  0.00    +0.000 A 
ATOM      5  C   UNL     1      46.802   4.744  14.320  0.00  0.00    +0.000 A 
ATOM      6  C   UNL     1      47.812   5.504  14.907  0.00  0.00    +0.000 A 
ATOM      7  C   UNL     1      48.168   6.738  14.363  0.00  0.00    +0.000 A 
ATOM      8  C   UNL     1      47.511   7.233  13.229  0.00  0.00    +0.000 A 
ATOM      9  C   UNL     1      46.491   6.462  12.646  0.00  0.00    +0.000 A 
BRANCH   8  10
ATOM     10  C   UNL     1      47.898   8.573  12.651  0.00  0.00    +0.000 C 
BRANCH  10  11
ATOM     11  C   UNL     1      49.409   8.689  12.501  0.00  0.00    +0.000 C 
ATOM     12  C   UNL     1      49.998   9.876  11.705  0.00  0.00    +0.000 C 
ATOM     13  N   UNL     1      50.926   8.935  11.040  0.00  0.00    +0.000 NA
ATOM     14  C   UNL     1      50.015   7.822  11.376  0.00  0.00    +0.000 C 
ATOM     15  H   UNL     1      51.832   8.868  11.503  0.00  0.00    +0.000 HD
ENDBRANCH  10  11
ENDBRANCH   8  10
ENDBRANCH   1   4
BRANCH   1  16
ATOM     16  C   UNL     1      44.764   4.903  11.113  0.00  0.00    +0.000 C 
BRANCH  16  17
ATOM     17  O   UNL     1      44.163   3.909  10.260  0.00  0.00    +0.000 OA
BRANCH  17  21
ATOM     18  C   UNL     1      46.444   0.300   7.890  0.00  0.00    +0.000 C 
ATOM     19  C   UNL     1      46.148   1.765   8.055  0.00  0.00    +0.000 A 
ATOM     20  C   UNL     1      45.282   2.181   9.084  0.00  0.00    +0.000 A 
ATOM     21  C   UNL     1      45.015   3.536   9.237  0.00  0.00    +0.000 A 
ATOM     22  N   UNL     1      45.539   4.488   8.443  0.00  0.00    +0.000 NA
ATOM     23  C   UNL     1      46.361   4.070   7.451  0.00  0.00    +0.000 A 
ATOM     24  C   UNL     1      46.713   2.746   7.220  0.00  0.00    +0.000 A 
BRANCH  24  25
ATOM     25  C   UNL     1      47.625   2.425   6.089  0.00  0.00    +0.000 C 
ATOM     26  N   UNL     1      47.493   3.165   4.943  0.00  0.00    +0.000 N 
ATOM     27  O   UNL     1      48.474   1.548   6.156  0.00  0.00    +0.000 OA
ATOM     28  H   UNL     1      46.967   4.022   4.877  0.00  0.00    +0.000 HD
ATOM     29  H   UNL     1      48.167   2.974   4.209  0.00  0.00    +0.000 HD
ENDBRANCH  24  25
ENDBRANCH  17  21
ENDBRANCH  16  17
ENDBRANCH   1  16
TORSDOF 7
ENDMDL
MODEL 6
REMARK VINA RESULT:    -7.274      2.874      8.371
REMARK INTER + INTRA:         -11.270
REMARK INTER:                 -10.580
REMARK INTRA:                  -0.690
REMARK UNBOUND:                -1.020
REMARK  Name = 
REMARK  8 active torsions:
REMARK  status: ('A' for Active; 'I' for Inactive)
REMARK    1  A    between atoms: C_1  and  C_2
REMARK    2  A    between atoms: C_4  and  O_5
REMARK    3  A    between atoms: O_5  and  C_6
REMARK    4  A    between atoms: C_6  and  C_7
REMARK    5  A    between atoms: C_7  and  C_10
REMARK    6  A    between atoms: C_14  and  C_15
REMARK    7  A    between atoms: C_15  and  C_16
REMARK    8  A    between atoms: C_23  and  C_24
REMARK                            x       y       z     vdW  Elec       q    Type
REMARK                         _______ _______ _______ _____ _____    ______ ____
ROOT
ATOM      1  C   UNL     1      45.623   5.616  12.121  0.00  0.00    +0.000 C 
ATOM      2  F   UNL     1      44.573   6.093  12.853  0.00  0.00    +0.000 F 
ATOM      3  F   UNL     1      46.122   6.697  11.450  0.00  0.00    +0.000 F 
ENDROOT
BRANCH   1   4
ATOM      4  C   UNL     1      45.197   4.505  11.173  0.00  0.00    +0.000 A 
ATOM      5  C   UNL     1      44.396   3.451  11.639  0.00  0.00    +0.000 A 
ATOM      6  C   UNL     1      43.961   2.455  10.765  0.00  0.00    +0.000 A 
ATOM      7  C   UNL     1      44.315   2.500   9.417  0.00  0.00    +0.000 A 
ATOM      8  C   UNL     1      45.116   3.538   8.925  0.00  0.00    +0.000 A 
ATOM      9  C   UNL     1      45.553   4.536   9.812  0.00  0.00    +0.000 A 
BRANCH   8  10
ATOM     10  C   UNL     1      45.499   3.576   7.465  0.00  0.00    +0.000 C 
BRANCH  10  11
ATOM     11  C   UNL     1      46.903   3.028   7.252  0.00  0.00    +0.000 C 
ATOM     12  C   UNL     1      47.383   2.724   5.815  0.00  0.00    +0.000 C 
ATOM     13  N   UNL     1      47.950   1.448   6.302  0.00  0.00    +0.000 NA
ATOM     14  C   UNL     1      47.041   1.504   7.465  0.00  0.00    +0.000 C 
ATOM     15  H   UNL     1      48.935   1.516   6.558  0.00  0.00    +0.000 HD
ENDBRANCH  10  11
ENDBRANCH   8  10
ENDBRANCH   1   4
BRANCH   1  16
ATOM     16  C   UNL     1      46.700   5.088  13.081  0.00  0.00    +0.000 C 
BRANCH  16  17
ATOM     17  O   UNL     1      46.137   4.616  14.320  0.00  0.00    +0.000 OA
BRANCH  17  21
ATOM     18  C   UNL     1      49.647   6.631  17.052  0.00  0.00    +0.000 C 
ATOM     19  C   UNL     1      48.846   5.425  16.645  0.00  0.00    +0.000 A 
ATOM     20  C   UNL     1      47.845   5.563  15.665  0.00  0.00    +0.000 A 
ATOM     21  C   UNL     1      47.110   4.446  15.287  0.00  0.00    +0.000 A 
ATOM     22  N   UNL     1      47.298   3.223  15.817  0.00  0.00    +0.000 NA
ATOM     23  C   UNL     1      48.257   3.110  16.767  0.00  0.00    +0.000 A 
ATOM     24  C   UNL     1      49.064   4.153  17.204  0.00  0.00    +0.000 A 
BRANCH  24  25
ATOM     25  C   UNL     1      50.079   3.890  18.260  0.00  0.00    +0.000 C 
ATOM     26  N   UNL     1      49.704   4.099  19.561  0.00  0.00    +0.000 N 
ATOM     27  O   UNL     1      51.207   3.493  18.004  0.00  0.00    +0.000 OA
ATOM     28  H   UNL     1      48.752   4.229  19.865  0.00  0.00    +0.000 HD
ATOM     29  H   UNL     1      50.389   3.851  20.268  0.00  0.00    +0.000 HD
ENDBRANCH  24  25
ENDBRANCH  17  21
ENDBRANCH  16  17
ENDBRANCH   1  16
TORSDOF 7
ENDMDL
MODEL 7
REMARK VINA RESULT:    -7.022      2.872      4.607
REMARK INTER + INTRA:         -10.915
REMARK INTER:                 -10.392
REMARK INTRA:                  -0.523
REMARK UNBOUND:                -1.020
REMARK  Name = 
REMARK  8 active torsions:
REMARK  status: ('A' for Active; 'I' for Inactive)
REMARK    1  A    between atoms: C_1  and  C_2
REMARK    2  A    between atoms: C_4  and  O_5
REMARK    3  A    between atoms: O_5  and  C_6
REMARK    4  A    between atoms: C_6  and  C_7
REMARK    5  A    between atoms: C_7  and  C_10
REMARK    6  A    between atoms: C_14  and  C_15
REMARK    7  A    between atoms: C_15  and  C_16
REMARK    8  A    between atoms: C_23  and  C_24
REMARK                            x       y       z     vdW  Elec       q    Type
REMARK                         _______ _______ _______ _____ _____    ______ ____
ROOT
ATOM      1  C   UNL     1      44.792   4.651  12.638  0.00  0.00    +0.000 C 
ATOM      2  F   UNL     1      43.842   4.721  13.618  0.00  0.00    +0.000 F 
ATOM      3  F   UNL     1      45.618   3.626  13.002  0.00  0.00    +0.000 F 
ENDROOT
BRANCH   1   4
ATOM      4  C   UNL     1      45.547   5.963  12.484  0.00  0.00    +0.000 A 
ATOM      5  C   UNL     1      46.950   5.970  12.463  0.00  0.00    +0.000 A 
ATOM      6  C   UNL     1      47.649   7.161  12.275  0.00  0.00    +0.000 A 
ATOM      7  C   UNL     1      46.958   8.360  12.100  0.00  0.00    +0.000 A 
ATOM      8  C   UNL     1      45.557   8.384  12.120  0.00  0.00    +0.000 A 
ATOM      9  C   UNL     1      44.861   7.179  12.314  0.00  0.00    +0.000 A 
BRANCH   8  10
ATOM     10  C   UNL     1      44.816   9.687  11.935  0.00  0.00    +0.000 C 
BRANCH  10  11
ATOM     11  C   UNL     1      43.723   9.552  10.885  0.00  0.00    +0.000 C 
ATOM     12  C   UNL     1      43.784  10.433   9.617  0.00  0.00    +0.000 C 
ATOM     13  N   UNL     1      42.336  10.699   9.764  0.00  0.00    +0.000 NA
ATOM     14  C   UNL     1      42.430  10.339  11.193  0.00  0.00    +0.000 C 
ATOM     15  H   UNL     1      41.752  10.060   9.225  0.00  0.00    +0.000 HD
ENDBRANCH  10  11
ENDBRANCH   8  10
ENDBRANCH   1   4
BRANCH   1  16
ATOM     16  C   UNL     1      44.111   4.292  11.309  0.00  0.00    +0.000 C 
BRANCH  16  17
ATOM     17  O   UNL     1      44.526   5.159  10.236  0.00  0.00    +0.000 OA
BRANCH  17  21
ATOM     18  C   UNL     1      45.773   0.869   8.263  0.00  0.00    +0.000 C 
ATOM     19  C   UNL     1      45.897   2.367   8.306  0.00  0.00    +0.000 A 
ATOM     20  C   UNL     1      45.150   3.094   9.252  0.00  0.00    +0.000 A 
ATOM     21  C   UNL     1      45.272   4.477   9.292  0.00  0.00    +0.000 A 
ATOM     22  N   UNL     1      46.070   5.174   8.461  0.00  0.00    +0.000 NA
ATOM     23  C   UNL     1      46.773   4.462   7.550  0.00  0.00    +0.000 A 
ATOM     24  C   UNL     1      46.744   3.077   7.435  0.00  0.00    +0.000 A 
BRANCH  24  25
ATOM     25  C   UNL     1      47.566   2.420   6.383  0.00  0.00    +0.000 C 
ATOM     26  N   UNL     1      47.406   2.856   5.094  0.00  0.00    +0.000 N 
ATOM     27  O   UNL     1      48.367   1.531   6.633  0.00  0.00    +0.000 OA
ATOM     28  H   UNL     1      46.926   3.704   4.835  0.00  0.00    +0.000 HD
ATOM     29  H   UNL     1      48.023   2.441   4.403  0.00  0.00    +0.000 HD
ENDBRANCH  24  25
ENDBRANCH  17  21
ENDBRANCH  16  17
ENDBRANCH   1  16
TORSDOF 7
ENDMDL
MODEL 8
REMARK VINA RESULT:    -6.994      3.059      3.968
REMARK INTER + INTRA:         -10.876
REMARK INTER:                  -9.931
REMARK INTRA:                  -0.945
REMARK UNBOUND:                -1.020
REMARK  Name = 
REMARK  8 active torsions:
REMARK  status: ('A' for Active; 'I' for Inactive)
REMARK    1  A    between atoms: C_1  and  C_2
REMARK    2  A    between atoms: C_4  and  O_5
REMARK    3  A    between atoms: O_5  and  C_6
REMARK    4  A    between atoms: C_6  and  C_7
REMARK    5  A    between atoms: C_7  and  C_10
REMARK    6  A    between atoms: C_14  and  C_15
REMARK    7  A    between atoms: C_15  and  C_16
REMARK    8  A    between atoms: C_23  and  C_24
REMARK                            x       y       z     vdW  Elec       q    Type
REMARK                         _______ _______ _______ _____ _____    ______ ____
ROOT
ATOM      1  C   UNL     1      45.652   6.292  12.126  0.00  0.00    +0.000 C 
ATOM      2  F   UNL     1      44.928   6.076  13.264  0.00  0.00    +0.000 F 
ATOM      3  F   UNL     1      46.684   5.398  12.174  0.00  0.00    +0.000 F 
ENDROOT
BRANCH   1   4
ATOM      4  C   UNL     1      46.147   7.728  12.031  0.00  0.00    +0.000 A 
ATOM      5  C   UNL     1      45.236   8.793  12.096  0.00  0.00    +0.000 A 
ATOM      6  C   UNL     1      45.686  10.112  12.058  0.00  0.00    +0.000 A 
ATOM      7  C   UNL     1      47.050  10.385  11.962  0.00  0.00    +0.000 A 
ATOM      8  C   UNL     1      47.983   9.342  11.891  0.00  0.00    +0.000 A 
ATOM      9  C   UNL     1      47.520   8.016  11.926  0.00  0.00    +0.000 A 
BRANCH   8  10
ATOM     10  C   UNL     1      49.458   9.647  11.780  0.00  0.00    +0.000 C 
BRANCH  10  11
ATOM     11  C   UNL     1      50.297   8.414  12.085  0.00  0.00    +0.000 C 
ATOM     12  C   UNL     1      51.524   8.549  13.013  0.00  0.00    +0.000 C 
ATOM     13  N   UNL     1      52.297   7.712  12.070  0.00  0.00    +0.000 NA
ATOM     14  C   UNL     1      51.338   8.056  11.001  0.00  0.00    +0.000 C 
ATOM     15  H   UNL     1      52.292   6.721  12.312  0.00  0.00    +0.000 HD
ENDBRANCH  10  11
ENDBRANCH   8  10
ENDBRANCH   1   4
BRANCH   1  16
ATOM     16  C   UNL     1      44.773   5.971  10.908  0.00  0.00    +0.000 C 
BRANCH  16  17
ATOM     17  O   UNL     1      44.598   4.552  10.725  0.00  0.00    +0.000 OA
BRANCH  17  21
ATOM     18  C   UNL     1      46.119   0.744   8.075  0.00  0.00    +0.000 C 
ATOM     19  C   UNL     1      46.019   2.230   8.278  0.00  0.00    +0.000 A 
ATOM     20  C   UNL     1      45.348   2.726   9.412  0.00  0.00    +0.000 A 
ATOM     21  C   UNL     1      45.262   4.100   9.600  0.00  0.00    +0.000 A 
ATOM     22  N   UNL     1      45.787   4.998   8.745  0.00  0.00    +0.000 NA
ATOM     23  C   UNL     1      46.419   4.505   7.654  0.00  0.00    +0.000 A 
ATOM     24  C   UNL     1      46.582   3.153   7.378  0.00  0.00    +0.000 A 
BRANCH  24  25
ATOM     25  C   UNL     1      47.297   2.748   6.137  0.00  0.00    +0.000 C 
ATOM     26  N   UNL     1      48.639   2.493   6.237  0.00  0.00    +0.000 N 
ATOM     27  O   UNL     1      46.730   2.630   5.060  0.00  0.00    +0.000 OA
ATOM     28  H   UNL     1      49.133   2.373   7.108  0.00  0.00    +0.000 HD
ATOM     29  H   UNL     1      49.093   2.155   5.395  0.00  0.00    +0.000 HD
ENDBRANCH  24  25
ENDBRANCH  17  21
ENDBRANCH  16  17
ENDBRANCH   1  16
TORSDOF 7
ENDMDL
MODEL 9
REMARK VINA RESULT:    -6.900      4.085      6.370
REMARK INTER + INTRA:         -10.743
REMARK INTER:                  -9.383
REMARK INTRA:                  -1.360
REMARK UNBOUND:                -1.020
REMARK  Name = 
REMARK  8 active torsions:
REMARK  status: ('A' for Active; 'I' for Inactive)
REMARK    1  A    between atoms: C_1  and  C_2
REMARK    2  A    between atoms: C_4  and  O_5
REMARK    3  A    between atoms: O_5  and  C_6
REMARK    4  A    between atoms: C_6  and  C_7
REMARK    5  A    between atoms: C_7  and  C_10
REMARK    6  A    between atoms: C_14  and  C_15
REMARK    7  A    between atoms: C_15  and  C_16
REMARK    8  A    between atoms: C_23  and  C_24
REMARK                            x       y       z     vdW  Elec       q    Type
REMARK                         _______ _______ _______ _____ _____    ______ ____
ROOT
ATOM      1  C   UNL     1      48.614   3.021  17.223  0.00  0.00    +0.000 C 
ATOM      2  F   UNL     1      48.032   2.816  18.442  0.00  0.00    +0.000 F 
ATOM      3  F   UNL     1      49.020   1.787  16.799  0.00  0.00    +0.000 F 
ENDROOT
BRANCH   1   4
ATOM      4  C   UNL     1      49.773   4.004  17.304  0.00  0.00    +0.000 A 
ATOM      5  C   UNL     1      51.048   3.560  17.685  0.00  0.00    +0.000 A 
ATOM      6  C   UNL     1      52.125   4.444  17.716  0.00  0.00    +0.000 A 
ATOM      7  C   UNL     1      51.945   5.781  17.361  0.00  0.00    +0.000 A 
ATOM      8  C   UNL     1      50.682   6.254  16.980  0.00  0.00    +0.000 A 
ATOM      9  C   UNL     1      49.602   5.356  16.956  0.00  0.00    +0.000 A 
BRANCH   8  10
ATOM     10  C   UNL     1      50.495   7.704  16.604  0.00  0.00    +0.000 C 
BRANCH  10  11
ATOM     11  C   UNL     1      49.043   7.997  16.255  0.00  0.00    +0.000 C 
ATOM     12  C   UNL     1      48.720   9.157  15.287  0.00  0.00    +0.000 C 
ATOM     13  N   UNL     1      47.628   9.574  16.193  0.00  0.00    +0.000 NA
ATOM     14  C   UNL     1      48.287   8.849  17.299  0.00  0.00    +0.000 C 
ATOM     15  H   UNL     1      46.721   9.183  15.940  0.00  0.00    +0.000 HD
ENDBRANCH  10  11
ENDBRANCH   8  10
ENDBRANCH   1   4
BRANCH   1  16
ATOM     16  C   UNL     1      47.554   3.556  16.248  0.00  0.00    +0.000 C 
BRANCH  16  17
ATOM     17  O   UNL     1      47.679   2.971  14.938  0.00  0.00    +0.000 OA
BRANCH  17  21
ATOM     18  C   UNL     1      46.562   7.283  12.936  0.00  0.00    +0.000 C 
ATOM     19  C   UNL     1      46.382   5.792  12.998  0.00  0.00    +0.000 A 
ATOM     20  C   UNL     1      47.117   5.047  13.940  0.00  0.00    +0.000 A 
ATOM     21  C   UNL     1      46.944   3.670  13.998  0.00  0.00    +0.000 A 
ATOM     22  N   UNL     1      46.107   2.995  13.188  0.00  0.00    +0.000 NA
ATOM     23  C   UNL     1      45.416   3.724  12.280  0.00  0.00    +0.000 A 
ATOM     24  C   UNL     1      45.495   5.105  12.149  0.00  0.00    +0.000 A 
BRANCH  24  25
ATOM     25  C   UNL     1      44.682   5.781  11.102  0.00  0.00    +0.000 C 
ATOM     26  N   UNL     1      45.198   5.826   9.834  0.00  0.00    +0.000 N 
ATOM     27  O   UNL     1      43.588   6.276  11.336  0.00  0.00    +0.000 OA
ATOM     28  H   UNL     1      45.982   5.277   9.518  0.00  0.00    +0.000 HD
ATOM     29  H   UNL     1      44.598   6.232   9.123  0.00  0.00    +0.000 HD
ENDBRANCH  24  25
ENDBRANCH  17  21
ENDBRANCH  16  17
ENDBRANCH   1  16
TORSDOF 7
ENDMDL
