MODEL 1
REMARK VINA RESULT:    -8.983      0.000      0.000
REMARK INTER + INTRA:         -13.161
REMARK INTER:                 -12.134
REMARK INTRA:                  -1.026
REMARK UNBOUND:                -1.026
REMARK  Name = 
REMARK  7 active torsions:
REMARK  status: ('A' for Active; 'I' for Inactive)
REMARK    1  A    between atoms: C_1  and  C_2
REMARK    2  A    between atoms: C_4  and  C_5
REMARK    3  A    between atoms: C_10  and  N_11
REMARK    4  A    between atoms: N_11  and  C_12
REMARK    5  A    between atoms: C_12  and  C_13
REMARK    6  A    between atoms: C_18  and  C_19
REMARK    7  A    between atoms: C_23  and  C_24
REMARK                            x       y       z     vdW  Elec       q    Type
REMARK                         _______ _______ _______ _____ _____    ______ ____
ROOT
ATOM      1  C   UNL     1      45.035   5.515  12.107  0.00  0.00    +0.000 A 
ATOM      2  C   UNL     1      45.425   4.619  13.107  0.00  0.00    +0.000 A 
ATOM      3  C   UNL     1      46.642   4.801  13.758  0.00  0.00    +0.000 A 
ATOM      4 CL   UNL     1      47.147   3.671  14.955  0.00  0.00    +0.000 Cl
ATOM      5  C   UNL     1      47.478   5.866  13.420  0.00  0.00    +0.000 A 
ATOM      6  C   UNL     1      47.106   6.800  12.437  0.00  0.00    +0.000 A 
ATOM      7  C   UNL     1      45.860   6.613  11.810  0.00  0.00    +0.000 A 
ENDROOT
BRANCH   6   8
ATOM      8  C   UNL     1      48.017   7.897  12.037  0.00  0.00    +0.000 A 
ATOM      9  C   UNL     1      47.604   9.241  12.069  0.00  0.00    +0.000 A 
ATOM     10  C   UNL     1      48.477  10.280  11.738  0.00  0.00    +0.000 A 
ATOM     11  C   UNL     1      49.789   9.998  11.369  0.00  0.00    +0.000 A 
ATOM     12  C   UNL     1      50.234   8.675  11.334  0.00  0.00    +0.000 A 
ATOM     13  C   UNL     1      49.345   7.635  11.646  0.00  0.00    +0.000 A 
BRANCH  12  14
ATOM     14  C   UNL     1      51.653   8.417  10.972  0.00  0.00    +0.000 C 
ATOM     15  N   UNL     1      52.038   7.113  10.821  0.00  0.00    +0.000 N 
ATOM     16  O   UNL     1      52.465   9.327  10.860  0.00  0.00    +0.000 OA
ATOM     17  H   UNL     1      51.481   6.338  11.143  0.00  0.00    +0.000 HD
ATOM     18  H   UNL     1      53.033   6.957  10.710  0.00  0.00    +0.000 HD
ENDBRANCH  12  14
ENDBRANCH   6   8
BRANCH   1  19
ATOM     19  C   UNL     1      43.800   5.258  11.280  0.00  0.00    +0.000 C 
BRANCH  19  20
ATOM     20  N   UNL     1      44.083   5.168   9.877  0.00  0.00    +0.000 N 
ATOM     21  H   UNL     1      43.637   5.817   9.239  0.00  0.00    +0.000 HD
BRANCH  20  28
ATOM     22  C   UNL     1      43.917   2.142  10.509  0.00  0.00    +0.000 C 
ATOM     23  C   UNL     1      44.780   2.823   9.486  0.00  0.00    +0.000 A 
ATOM     24  C   UNL     1      45.628   1.989   8.731  0.00  0.00    +0.000 A 
ATOM     25  C   UNL     1      46.475   2.511   7.759  0.00  0.00    +0.000 A 
ATOM     26  C   UNL     1      46.433   3.877   7.581  0.00  0.00    +0.000 A 
ATOM     27  N   UNL     1      45.628   4.715   8.289  0.00  0.00    +0.000 NA
ATOM     28  C   UNL     1      44.808   4.202   9.238  0.00  0.00    +0.000 A 
BRANCH  25  29
ATOM     29  C   UNL     1      47.345   1.577   7.002  0.00  0.00    +0.000 C 
ATOM     30  N   UNL     1      48.459   2.061   6.371  0.00  0.00    +0.000 N 
ATOM     31  O   UNL     1      47.082   0.383   6.931  0.00  0.00    +0.000 OA
ATOM     32  H   UNL     1      48.767   3.020   6.363  0.00  0.00    +0.000 HD
ATOM     33  H   UNL     1      49.015   1.386   5.867  0.00  0.00    +0.000 HD
ENDBRANCH  25  29
ENDBRANCH  20  28
ENDBRANCH  19  20
ENDBRANCH   1  19
TORSDOF 6
ENDMDL
MODEL 2
REMARK VINA RESULT:    -8.566      3.234      4.554
REMARK INTER + INTRA:         -12.597
REMARK INTER:                 -11.675
REMARK INTRA:                  -0.922
REMARK UNBOUND:                -1.026
REMARK  Name = 
REMARK  7 active torsions:
REMARK  status: ('A' for Active; 'I' for Inactive)
REMARK    1  A    between atoms: C_1  and  C_2
REMARK    2  A    between atoms: C_4  and  C_5
REMARK    3  A    between atoms: C_10  and  N_11
REMARK    4  A    between atoms: N_11  and  C_12
REMARK    5  A    between atoms: C_12  and  C_13
REMARK    6  A    between atoms: C_18  and  C_19
REMARK    7  A    between atoms: C_23  and  C_24
REMARK                            x       y       z     vdW  Elec       q    Type
REMARK                         _______ _______ _______ _____ _____    ______ ____
ROOT
ATOM      1  C   UNL     1      45.851   5.898  11.985  0.00  0.00    +0.000 A 
ATOM      2  C   UNL     1      46.731   6.825  11.417  0.00  0.00    +0.000 A 
ATOM      3  C   UNL     1      47.908   7.154  12.083  0.00  0.00    +0.000 A 
ATOM      4 CL   UNL     1      48.968   8.332  11.409  0.00  0.00    +0.000 Cl
ATOM      5  C   UNL     1      48.218   6.571  13.312  0.00  0.00    +0.000 A 
ATOM      6  C   UNL     1      47.369   5.617  13.900  0.00  0.00    +0.000 A 
ATOM      7  C   UNL     1      46.197   5.279  13.199  0.00  0.00    +0.000 A 
ENDROOT
BRANCH   6   8
ATOM      8  C   UNL     1      47.667   5.041  15.231  0.00  0.00    +0.000 A 
ATOM      9  C   UNL     1      47.233   3.751  15.585  0.00  0.00    +0.000 A 
ATOM     10  C   UNL     1      47.553   3.187  16.823  0.00  0.00    +0.000 A 
ATOM     11  C   UNL     1      48.324   3.902  17.736  0.00  0.00    +0.000 A 
ATOM     12  C   UNL     1      48.778   5.182  17.413  0.00  0.00    +0.000 A 
ATOM     13  C   UNL     1      48.433   5.751  16.178  0.00  0.00    +0.000 A 
BRANCH  12  14
ATOM     14  C   UNL     1      49.630   5.898  18.399  0.00  0.00    +0.000 C 
ATOM     15  N   UNL     1      49.012   6.772  19.250  0.00  0.00    +0.000 N 
ATOM     16  O   UNL     1      50.846   5.754  18.424  0.00  0.00    +0.000 OA
ATOM     17  H   UNL     1      48.072   7.106  19.103  0.00  0.00    +0.000 HD
ATOM     18  H   UNL     1      49.626   7.346  19.816  0.00  0.00    +0.000 HD
ENDBRANCH  12  14
ENDBRANCH   6   8
BRANCH   1  19
ATOM     19  C   UNL     1      44.500   5.637  11.367  0.00  0.00    +0.000 C 
BRANCH  19  20
ATOM     20  N   UNL     1      44.569   5.460   9.945  0.00  0.00    +0.000 N 
ATOM     21  H   UNL     1      44.058   6.093   9.342  0.00  0.00    +0.000 HD
BRANCH  20  28
ATOM     22  C   UNL     1      44.070   2.461  10.528  0.00  0.00    +0.000 C 
ATOM     23  C   UNL     1      44.975   3.058   9.489  0.00  0.00    +0.000 A 
ATOM     24  C   UNL     1      45.695   2.148   8.692  0.00  0.00    +0.000 A 
ATOM     25  C   UNL     1      46.567   2.588   7.702  0.00  0.00    +0.000 A 
ATOM     26  C   UNL     1      46.680   3.953   7.549  0.00  0.00    +0.000 A 
ATOM     27  N   UNL     1      46.001   4.863   8.299  0.00  0.00    +0.000 NA
ATOM     28  C   UNL     1      45.156   4.430   9.265  0.00  0.00    +0.000 A 
BRANCH  25  29
ATOM     29  C   UNL     1      47.298   1.575   6.901  0.00  0.00    +0.000 C 
ATOM     30  N   UNL     1      48.325   1.976   6.090  0.00  0.00    +0.000 N 
ATOM     31  O   UNL     1      46.996   0.390   6.950  0.00  0.00    +0.000 OA
ATOM     32  H   UNL     1      48.655   2.920   5.973  0.00  0.00    +0.000 HD
ATOM     33  H   UNL     1      48.788   1.249   5.564  0.00  0.00    +0.000 HD
ENDBRANCH  25  29
ENDBRANCH  20  28
ENDBRANCH  19  20
ENDBRANCH   1  19
TORSDOF 6
ENDMDL
MODEL 3
REMARK VINA RESULT:    -7.867      3.060      3.598
REMARK INTER + INTRA:         -11.653
REMARK INTER:                 -10.894
REMARK INTRA:                  -0.759
REMARK UNBOUND:                -1.026
REMARK  Name = 
REMARK  7 active torsions:
REMARK  status: ('A' for Active; 'I' for Inactive)
REMARK    1  A    between atoms: C_1  and  C_2
REMARK    2  A    between atoms: C_4  and  C_5
REMARK    3  A    between atoms: C_10  and  N_11
REMARK    4  A    between atoms: N_11  and  C_12
REMARK    5  A    between atoms: C_12  and  C_13
REMARK    6  A    between atoms: C_18  and  C_19
REMARK    7  A    between atoms: C_23  and  C_24
REMARK                            x       y       z     vdW  Elec       q    Type
REMARK                         _______ _______ _______ _____ _____    ______ ____
ROOT
ATOM      1  C   UNL     1      45.190   6.714  11.721  0.00  0.00    +0.000 A 
ATOM      2  C   UNL     1      44.586   7.950  11.469  0.00  0.00    +0.000 A 
ATOM      3  C   UNL     1      45.162   9.113  11.972  0.00  0.00    +0.000 A 
ATOM      4 CL   UNL     1      44.393  10.630  11.705  0.00  0.00    +0.000 Cl
ATOM      5  C   UNL     1      46.335   9.058  12.727  0.00  0.00    +0.000 A 
ATOM      6  C   UNL     1      46.982   7.836  12.978  0.00  0.00    +0.000 A 
ATOM      7  C   UNL     1      46.398   6.674  12.439  0.00  0.00    +0.000 A 
ENDROOT
BRANCH   6   8
ATOM      8  C   UNL     1      48.193   7.769  13.828  0.00  0.00    +0.000 A 
ATOM      9  C   UNL     1      49.177   8.773  13.780  0.00  0.00    +0.000 A 
ATOM     10  C   UNL     1      50.297   8.737  14.615  0.00  0.00    +0.000 A 
ATOM     11  C   UNL     1      50.457   7.693  15.523  0.00  0.00    +0.000 A 
ATOM     12  C   UNL     1      49.495   6.685  15.601  0.00  0.00    +0.000 A 
ATOM     13  C   UNL     1      48.384   6.716  14.744  0.00  0.00    +0.000 A 
BRANCH  12  14
ATOM     14  C   UNL     1      49.680   5.608  16.610  0.00  0.00    +0.000 C 
ATOM     15  N   UNL     1      50.798   5.665  17.396  0.00  0.00    +0.000 N 
ATOM     16  O   UNL     1      48.893   4.675  16.708  0.00  0.00    +0.000 OA
ATOM     17  H   UNL     1      51.585   6.260  17.185  0.00  0.00    +0.000 HD
ATOM     18  H   UNL     1      50.971   4.853  17.977  0.00  0.00    +0.000 HD
ENDBRANCH  12  14
ENDBRANCH   6   8
BRANCH   1  19
ATOM     19  C   UNL     1      44.510   5.428  11.322  0.00  0.00    +0.000 C 
BRANCH  19  20
ATOM     20  N   UNL     1      44.444   5.256   9.900  0.00  0.00    +0.000 N 
ATOM     21  H   UNL     1      43.766   5.790   9.368  0.00  0.00    +0.000 HD
BRANCH  20  28
ATOM     22  C   UNL     1      44.110   2.190  10.158  0.00  0.00    +0.000 C 
ATOM     23  C   UNL     1      45.010   2.942   9.221  0.00  0.00    +0.000 A 
ATOM     24  C   UNL     1      45.810   2.161   8.364  0.00  0.00    +0.000 A 
ATOM     25  C   UNL     1      46.685   2.750   7.458  0.00  0.00    +0.000 A 
ATOM     26  C   UNL     1      46.719   4.127   7.448  0.00  0.00    +0.000 A 
ATOM     27  N   UNL     1      45.963   4.916   8.259  0.00  0.00    +0.000 NA
ATOM     28  C   UNL     1      45.114   4.337   9.143  0.00  0.00    +0.000 A 
BRANCH  25  29
ATOM     29  C   UNL     1      47.502   1.869   6.587  0.00  0.00    +0.000 C 
ATOM     30  N   UNL     1      48.431   2.427   5.752  0.00  0.00    +0.000 N 
ATOM     31  O   UNL     1      47.357   0.653   6.601  0.00  0.00    +0.000 OA
ATOM     32  H   UNL     1      48.632   3.409   5.660  0.00  0.00    +0.000 HD
ATOM     33  H   UNL     1      48.959   1.785   5.179  0.00  0.00    +0.000 HD
ENDBRANCH  25  29
ENDBRANCH  20  28
ENDBRANCH  19  20
ENDBRANCH   1  19
TORSDOF 6
ENDMDL
MODEL 4
REMARK VINA RESULT:    -7.469      5.049      8.308
REMARK INTER + INTRA:         -11.115
REMARK INTER:                  -9.854
REMARK INTRA:                  -1.260
REMARK UNBOUND:                -1.026
REMARK  Name = 
REMARK  7 active torsions:
REMARK  status: ('A' for Active; 'I' for Inactive)
REMARK    1  A    between atoms: C_1  and  C_2
REMARK    2  A    between atoms: C_4  and  C_5
REMARK    3  A    between atoms: C_10  and  N_11
REMARK    4  A    between atoms: N_11  and  C_12
REMARK    5  A    between atoms: C_12  and  C_13
REMARK    6  A    between atoms: C_18  and  C_19
REMARK    7  A    between atoms: C_23  and  C_24
REMARK                            x       y       z     vdW  Elec       q    Type
REMARK                         _______ _______ _______ _____ _____    ______ ____
ROOT
ATOM      1  C   UNL     1      49.107   7.178  15.261  0.00  0.00    +0.000 A 
ATOM      2  C   UNL     1      50.010   7.704  14.332  0.00  0.00    +0.000 A 
ATOM      3  C   UNL     1      49.784   7.522  12.971  0.00  0.00    +0.000 A 
ATOM      4 CL   UNL     1      50.921   8.126  11.828  0.00  0.00    +0.000 Cl
ATOM      5  C   UNL     1      48.665   6.817  12.524  0.00  0.00    +0.000 A 
ATOM      6  C   UNL     1      47.723   6.297  13.428  0.00  0.00    +0.000 A 
ATOM      7  C   UNL     1      47.957   6.515  14.799  0.00  0.00    +0.000 A 
ENDROOT
BRANCH   6   8
ATOM      8  C   UNL     1      46.567   5.499  12.958  0.00  0.00    +0.000 A 
ATOM      9  C   UNL     1      46.565   4.095  13.038  0.00  0.00    +0.000 A 
ATOM     10  C   UNL     1      45.457   3.343  12.640  0.00  0.00    +0.000 A 
ATOM     11  C   UNL     1      44.319   3.982  12.154  0.00  0.00    +0.000 A 
ATOM     12  C   UNL     1      44.285   5.375  12.069  0.00  0.00    +0.000 A 
ATOM     13  C   UNL     1      45.410   6.122  12.449  0.00  0.00    +0.000 A 
BRANCH  12  14
ATOM     14  C   UNL     1      43.039   6.022  11.581  0.00  0.00    +0.000 C 
ATOM     15  N   UNL     1      43.151   7.262  11.013  0.00  0.00    +0.000 N 
ATOM     16  O   UNL     1      41.942   5.495  11.721  0.00  0.00    +0.000 OA
ATOM     17  H   UNL     1      43.979   7.831  11.103  0.00  0.00    +0.000 HD
ATOM     18  H   UNL     1      42.279   7.737  10.815  0.00  0.00    +0.000 HD
ENDBRANCH  12  14
ENDBRANCH   6   8
BRANCH   1  19
ATOM     19  C   UNL     1      49.404   7.225  16.739  0.00  0.00    +0.000 C 
BRANCH  19  20
ATOM     20  N   UNL     1      49.021   6.021  17.418  0.00  0.00    +0.000 N 
ATOM     21  H   UNL     1      48.222   6.036  18.041  0.00  0.00    +0.000 HD
BRANCH  20  28
ATOM     22  C   UNL     1      47.699   3.253  17.005  0.00  0.00    +0.000 C 
ATOM     23  C   UNL     1      49.148   3.552  17.265  0.00  0.00    +0.000 A 
ATOM     24  C   UNL     1      50.009   2.440  17.346  0.00  0.00    +0.000 A 
ATOM     25  C   UNL     1      51.369   2.596  17.590  0.00  0.00    +0.000 A 
ATOM     26  C   UNL     1      51.818   3.890  17.742  0.00  0.00    +0.000 A 
ATOM     27  N   UNL     1      51.018   4.989  17.671  0.00  0.00    +0.000 NA
ATOM     28  C   UNL     1      49.693   4.831  17.438  0.00  0.00    +0.000 A 
BRANCH  25  29
ATOM     29  C   UNL     1      52.219   1.383  17.667  0.00  0.00    +0.000 C 
ATOM     30  N   UNL     1      51.672   0.208  18.109  0.00  0.00    +0.000 N 
ATOM     31  O   UNL     1      53.400   1.415  17.345  0.00  0.00    +0.000 OA
ATOM     32  H   UNL     1      50.718   0.070  18.398  0.00  0.00    +0.000 HD
ATOM     33  H   UNL     1      52.293  -0.587  18.145  0.00  0.00    +0.000 HD
ENDBRANCH  25  29
ENDBRANCH  20  28
ENDBRANCH  19  20
ENDBRANCH   1  19
TORSDOF 6
ENDMDL
MODEL 5
REMARK VINA RESULT:    -7.271      4.018      8.490
REMARK INTER + INTRA:         -10.848
REMARK INTER:                  -9.532
REMARK INTRA:                  -1.316
REMARK UNBOUND:                -1.026
REMARK  Name = 
REMARK  7 active torsions:
REMARK  status: ('A' for Active; 'I' for Inactive)
REMARK    1  A    between atoms: C_1  and  C_2
REMARK    2  A    between atoms: C_4  and  C_5
REMARK    3  A    between atoms: C_10  and  N_11
REMARK    4  A    between atoms: N_11  and  C_12
REMARK    5  A    between atoms: C_12  and  C_13
REMARK    6  A    between atoms: C_18  and  C_19
REMARK    7  A    between atoms: C_23  and  C_24
REMARK                            x       y       z     vdW  Elec       q    Type
REMARK                         _______ _______ _______ _____ _____    ______ ____
ROOT
ATOM      1  C   UNL     1      48.246   7.727  12.487  0.00  0.00    +0.000 A 
ATOM      2  C   UNL     1      47.710   9.013  12.367  0.00  0.00    +0.000 A 
ATOM      3  C   UNL     1      46.350   9.173  12.120  0.00  0.00    +0.000 A 
ATOM      4 CL   UNL     1      45.698  10.754  11.922  0.00  0.00    +0.000 Cl
ATOM      5  C   UNL     1      45.515   8.062  11.988  0.00  0.00    +0.000 A 
ATOM      6  C   UNL     1      46.015   6.756  12.128  0.00  0.00    +0.000 A 
ATOM      7  C   UNL     1      47.388   6.617  12.404  0.00  0.00    +0.000 A 
ENDROOT
BRANCH   6   8
ATOM      8  C   UNL     1      45.143   5.575  11.931  0.00  0.00    +0.000 A 
ATOM      9  C   UNL     1      44.170   5.216  12.882  0.00  0.00    +0.000 A 
ATOM     10  C   UNL     1      43.314   4.131  12.676  0.00  0.00    +0.000 A 
ATOM     11  C   UNL     1      43.409   3.380  11.507  0.00  0.00    +0.000 A 
ATOM     12  C   UNL     1      44.357   3.715  10.539  0.00  0.00    +0.000 A 
ATOM     13  C   UNL     1      45.229   4.792  10.763  0.00  0.00    +0.000 A 
BRANCH  12  14
ATOM     14  C   UNL     1      44.402   2.914   9.287  0.00  0.00    +0.000 C 
ATOM     15  N   UNL     1      44.403   3.595   8.101  0.00  0.00    +0.000 N 
ATOM     16  O   UNL     1      44.391   1.689   9.306  0.00  0.00    +0.000 OA
ATOM     17  H   UNL     1      44.163   4.572   8.032  0.00  0.00    +0.000 HD
ATOM     18  H   UNL     1      44.296   3.029   7.267  0.00  0.00    +0.000 HD
ENDBRANCH  12  14
ENDBRANCH   6   8
BRANCH   1  19
ATOM     19  C   UNL     1      49.735   7.519  12.601  0.00  0.00    +0.000 C 
BRANCH  19  20
ATOM     20  N   UNL     1      50.234   7.805  13.915  0.00  0.00    +0.000 N 
ATOM     21  H   UNL     1      51.185   8.138  14.023  0.00  0.00    +0.000 HD
BRANCH  20  28
ATOM     22  C   UNL     1      49.048   9.992  15.757  0.00  0.00    +0.000 C 
ATOM     23  C   UNL     1      49.068   8.508  15.985  0.00  0.00    +0.000 A 
ATOM     24  C   UNL     1      48.491   8.055  17.187  0.00  0.00    +0.000 A 
ATOM     25  C   UNL     1      48.458   6.702  17.507  0.00  0.00    +0.000 A 
ATOM     26  C   UNL     1      49.015   5.842  16.585  0.00  0.00    +0.000 A 
ATOM     27  N   UNL     1      49.581   6.242  15.414  0.00  0.00    +0.000 NA
ATOM     28  C   UNL     1      49.614   7.561  15.109  0.00  0.00    +0.000 A 
BRANCH  25  29
ATOM     29  C   UNL     1      47.839   6.292  18.791  0.00  0.00    +0.000 C 
ATOM     30  N   UNL     1      46.664   5.591  18.776  0.00  0.00    +0.000 N 
ATOM     31  O   UNL     1      48.359   6.573  19.864  0.00  0.00    +0.000 OA
ATOM     32  H   UNL     1      46.152   5.309  17.956  0.00  0.00    +0.000 HD
ATOM     33  H   UNL     1      46.283   5.339  19.676  0.00  0.00    +0.000 HD
ENDBRANCH  25  29
ENDBRANCH  20  28
ENDBRANCH  19  20
ENDBRANCH   1  19
TORSDOF 6
ENDMDL
MODEL 6
REMARK VINA RESULT:    -7.211      4.988      6.596
REMARK INTER + INTRA:         -10.767
REMARK INTER:                  -9.635
REMARK INTRA:                  -1.132
REMARK UNBOUND:                -1.026
REMARK  Name = 
REMARK  7 active torsions:
REMARK  status: ('A' for Active; 'I' for Inactive)
REMARK    1  A    between atoms: C_1  and  C_2
REMARK    2  A    between atoms: C_4  and  C_5
REMARK    3  A    between atoms: C_10  and  N_11
REMARK    4  A    between atoms: N_11  and  C_12
REMARK    5  A    between atoms: C_12  and  C_13
REMARK    6  A    between atoms: C_18  and  C_19
REMARK    7  A    between atoms: C_23  and  C_24
REMARK                            x       y       z     vdW  Elec       q    Type
REMARK                         _______ _______ _______ _____ _____    ______ ____
ROOT
ATOM      1  C   UNL     1      48.615   8.057  15.148  0.00  0.00    +0.000 A 
ATOM      2  C   UNL     1      48.265   9.082  16.033  0.00  0.00    +0.000 A 
ATOM      3  C   UNL     1      48.673   9.014  17.362  0.00  0.00    +0.000 A 
ATOM      4 CL   UNL     1      48.200  10.249  18.464  0.00  0.00    +0.000 Cl
ATOM      5  C   UNL     1      49.426   7.932  17.821  0.00  0.00    +0.000 A 
ATOM      6  C   UNL     1      49.817   6.897  16.953  0.00  0.00    +0.000 A 
ATOM      7  C   UNL     1      49.417   6.998  15.608  0.00  0.00    +0.000 A 
ENDROOT
BRANCH   6   8
ATOM      8  C   UNL     1      50.566   5.721  17.451  0.00  0.00    +0.000 A 
ATOM      9  C   UNL     1      51.581   5.853  18.416  0.00  0.00    +0.000 A 
ATOM     10  C   UNL     1      52.256   4.739  18.922  0.00  0.00    +0.000 A 
ATOM     11  C   UNL     1      51.927   3.462  18.476  0.00  0.00    +0.000 A 
ATOM     12  C   UNL     1      50.919   3.295  17.524  0.00  0.00    +0.000 A 
ATOM     13  C   UNL     1      50.261   4.420  17.003  0.00  0.00    +0.000 A 
BRANCH  12  14
ATOM     14  C   UNL     1      50.570   1.913  17.100  0.00  0.00    +0.000 C 
ATOM     15  N   UNL     1      51.239   0.881  17.698  0.00  0.00    +0.000 N 
ATOM     16  O   UNL     1      49.750   1.699  16.216  0.00  0.00    +0.000 OA
ATOM     17  H   UNL     1      52.082   1.015  18.235  0.00  0.00    +0.000 HD
ATOM     18  H   UNL     1      51.083  -0.037  17.298  0.00  0.00    +0.000 HD
ENDBRANCH  12  14
ENDBRANCH   6   8
BRANCH   1  19
ATOM     19  C   UNL     1      48.060   8.025  13.746  0.00  0.00    +0.000 C 
BRANCH  19  20
ATOM     20  N   UNL     1      46.665   7.694  13.711  0.00  0.00    +0.000 N 
ATOM     21  H   UNL     1      46.034   8.139  14.366  0.00  0.00    +0.000 HD
BRANCH  20  28
ATOM     22  C   UNL     1      46.889   4.658  14.273  0.00  0.00    +0.000 C 
ATOM     23  C   UNL     1      46.134   5.336  13.166  0.00  0.00    +0.000 A 
ATOM     24  C   UNL     1      45.457   4.491  12.265  0.00  0.00    +0.000 A 
ATOM     25  C   UNL     1      44.731   5.008  11.198  0.00  0.00    +0.000 A 
ATOM     26  C   UNL     1      44.712   6.381  11.079  0.00  0.00    +0.000 A 
ATOM     27  N   UNL     1      45.352   7.229  11.929  0.00  0.00    +0.000 NA
ATOM     28  C   UNL     1      46.062   6.721  12.964  0.00  0.00    +0.000 A 
BRANCH  25  29
ATOM     29  C   UNL     1      44.044   4.062  10.284  0.00  0.00    +0.000 C 
ATOM     30  N   UNL     1      44.067   4.296   8.936  0.00  0.00    +0.000 N 
ATOM     31  O   UNL     1      43.456   3.078  10.715  0.00  0.00    +0.000 OA
ATOM     32  H   UNL     1      44.518   5.070   8.476  0.00  0.00    +0.000 HD
ATOM     33  H   UNL     1      43.583   3.625   8.358  0.00  0.00    +0.000 HD
ENDBRANCH  25  29
ENDBRANCH  20  28
ENDBRANCH  19  20
ENDBRANCH   1  19
TORSDOF 6
ENDMDL
MODEL 7
REMARK VINA RESULT:    -7.117      3.991      5.420
REMARK INTER + INTRA:         -10.640
REMARK INTER:                  -9.761
REMARK INTRA:                  -0.879
REMARK UNBOUND:                -1.026
REMARK  Name = 
REMARK  7 active torsions:
REMARK  status: ('A' for Active; 'I' for Inactive)
REMARK    1  A    between atoms: C_1  and  C_2
REMARK    2  A    between atoms: C_4  and  C_5
REMARK    3  A    between atoms: C_10  and  N_11
REMARK    4  A    between atoms: N_11  and  C_12
REMARK    5  A    between atoms: C_12  and  C_13
REMARK    6  A    between atoms: C_18  and  C_19
REMARK    7  A    between atoms: C_23  and  C_24
REMARK                            x       y       z     vdW  Elec       q    Type
REMARK                         _______ _______ _______ _____ _____    ______ ____
ROOT
ATOM      1  C   UNL     1      47.093   8.237  12.729  0.00  0.00    +0.000 A 
ATOM      2  C   UNL     1      48.077   8.975  12.063  0.00  0.00    +0.000 A 
ATOM      3  C   UNL     1      49.402   8.892  12.483  0.00  0.00    +0.000 A 
ATOM      4 CL   UNL     1      50.607   9.838  11.696  0.00  0.00    +0.000 Cl
ATOM      5  C   UNL     1      49.757   8.083  13.563  0.00  0.00    +0.000 A 
ATOM      6  C   UNL     1      48.798   7.308  14.238  0.00  0.00    +0.000 A 
ATOM      7  C   UNL     1      47.469   7.386  13.782  0.00  0.00    +0.000 A 
ENDROOT
BRANCH   6   8
ATOM      8  C   UNL     1      49.164   6.494  15.420  0.00  0.00    +0.000 A 
ATOM      9  C   UNL     1      50.388   6.680  16.088  0.00  0.00    +0.000 A 
ATOM     10  C   UNL     1      50.714   5.947  17.232  0.00  0.00    +0.000 A 
ATOM     11  C   UNL     1      49.818   5.009  17.738  0.00  0.00    +0.000 A 
ATOM     12  C   UNL     1      48.591   4.805  17.104  0.00  0.00    +0.000 A 
ATOM     13  C   UNL     1      48.280   5.529  15.942  0.00  0.00    +0.000 A 
BRANCH  12  14
ATOM     14  C   UNL     1      47.644   3.824  17.696  0.00  0.00    +0.000 C 
ATOM     15  N   UNL     1      47.929   3.346  18.946  0.00  0.00    +0.000 N 
ATOM     16  O   UNL     1      46.669   3.415  17.077  0.00  0.00    +0.000 OA
ATOM     17  H   UNL     1      48.832   3.458  19.381  0.00  0.00    +0.000 HD
ATOM     18  H   UNL     1      47.348   2.582  19.269  0.00  0.00    +0.000 HD
ENDBRANCH  12  14
ENDBRANCH   6   8
BRANCH   1  19
ATOM     19  C   UNL     1      45.633   8.423  12.397  0.00  0.00    +0.000 C 
BRANCH  19  20
ATOM     20  N   UNL     1      44.867   7.227  12.591  0.00  0.00    +0.000 N 
ATOM     21  H   UNL     1      44.419   7.065  13.486  0.00  0.00    +0.000 HD
BRANCH  20  28
ATOM     22  C   UNL     1      42.971   4.819  13.024  0.00  0.00    +0.000 C 
ATOM     23  C   UNL     1      43.922   5.048  11.885  0.00  0.00    +0.000 A 
ATOM     24  C   UNL     1      43.970   4.042  10.901  0.00  0.00    +0.000 A 
ATOM     25  C   UNL     1      44.819   4.145   9.803  0.00  0.00    +0.000 A 
ATOM     26  C   UNL     1      45.598   5.280   9.738  0.00  0.00    +0.000 A 
ATOM     27  N   UNL     1      45.580   6.273  10.668  0.00  0.00    +0.000 NA
ATOM     28  C   UNL     1      44.754   6.166  11.737  0.00  0.00    +0.000 A 
BRANCH  25  29
ATOM     29  C   UNL     1      44.823   3.047   8.805  0.00  0.00    +0.000 C 
ATOM     30  N   UNL     1      44.698   1.753   9.232  0.00  0.00    +0.000 N 
ATOM     31  O   UNL     1      44.939   3.279   7.609  0.00  0.00    +0.000 OA
ATOM     32  H   UNL     1      44.598   1.450  10.187  0.00  0.00    +0.000 HD
ATOM     33  H   UNL     1      44.710   1.043   8.514  0.00  0.00    +0.000 HD
ENDBRANCH  25  29
ENDBRANCH  20  28
ENDBRANCH  19  20
ENDBRANCH   1  19
TORSDOF 6
ENDMDL
MODEL 8
REMARK VINA RESULT:    -6.867      5.967      7.403
REMARK INTER + INTRA:         -10.301
REMARK INTER:                  -9.563
REMARK INTRA:                  -0.738
REMARK UNBOUND:                -1.026
REMARK  Name = 
REMARK  7 active torsions:
REMARK  status: ('A' for Active; 'I' for Inactive)
REMARK    1  A    between atoms: C_1  and  C_2
REMARK    2  A    between atoms: C_4  and  C_5
REMARK    3  A    between atoms: C_10  and  N_11
REMARK    4  A    between atoms: N_11  and  C_12
REMARK    5  A    between atoms: C_12  and  C_13
REMARK    6  A    between atoms: C_18  and  C_19
REMARK    7  A    between atoms: C_23  and  C_24
REMARK                            x       y       z     vdW  Elec       q    Type
REMARK                         _______ _______ _______ _____ _____    ______ ____
ROOT
ATOM      1  C   UNL     1      48.062   4.517  17.215  0.00  0.00    +0.000 A 
ATOM      2  C   UNL     1      47.661   5.065  18.438  0.00  0.00    +0.000 A 
ATOM      3  C   UNL     1      48.579   5.172  19.478  0.00  0.00    +0.000 A 
ATOM      4 CL   UNL     1      48.074   5.800  21.000  0.00  0.00    +0.000 Cl
ATOM      5  C   UNL     1      49.895   4.737  19.315  0.00  0.00    +0.000 A 
ATOM      6  C   UNL     1      50.339   4.205  18.092  0.00  0.00    +0.000 A 
ATOM      7  C   UNL     1      49.402   4.129  17.044  0.00  0.00    +0.000 A 
ENDROOT
BRANCH   6   8
ATOM      8  C   UNL     1      51.718   3.689  17.934  0.00  0.00    +0.000 A 
ATOM      9  C   UNL     1      52.829   4.553  17.938  0.00  0.00    +0.000 A 
ATOM     10  C   UNL     1      54.134   4.065  17.838  0.00  0.00    +0.000 A 
ATOM     11  C   UNL     1      54.359   2.694  17.736  0.00  0.00    +0.000 A 
ATOM     12  C   UNL     1      53.280   1.809  17.737  0.00  0.00    +0.000 A 
ATOM     13  C   UNL     1      51.971   2.308  17.815  0.00  0.00    +0.000 A 
BRANCH  12  14
ATOM     14  C   UNL     1      53.563   0.351  17.665  0.00  0.00    +0.000 C 
ATOM     15  N   UNL     1      52.825  -0.476  18.466  0.00  0.00    +0.000 N 
ATOM     16  O   UNL     1      54.454  -0.098  16.954  0.00  0.00    +0.000 OA
ATOM     17  H   UNL     1      52.269  -0.137  19.236  0.00  0.00    +0.000 HD
ATOM     18  H   UNL     1      53.127  -1.442  18.501  0.00  0.00    +0.000 HD
ENDBRANCH  12  14
ENDBRANCH   6   8
BRANCH   1  19
ATOM     19  C   UNL     1      47.056   4.246  16.124  0.00  0.00    +0.000 C 
BRANCH  19  20
ATOM     20  N   UNL     1      47.162   5.172  15.034  0.00  0.00    +0.000 N 
ATOM     21  H   UNL     1      47.626   6.061  15.182  0.00  0.00    +0.000 HD
BRANCH  20  28
ATOM     22  C   UNL     1      47.508   7.241  12.758  0.00  0.00    +0.000 C 
ATOM     23  C   UNL     1      46.703   5.974  12.735  0.00  0.00    +0.000 A 
ATOM     24  C   UNL     1      46.009   5.697  11.541  0.00  0.00    +0.000 A 
ATOM     25  C   UNL     1      45.226   4.555  11.408  0.00  0.00    +0.000 A 
ATOM     26  C   UNL     1      45.175   3.719  12.503  0.00  0.00    +0.000 A 
ATOM     27  N   UNL     1      45.831   3.951  13.672  0.00  0.00    +0.000 NA
ATOM     28  C   UNL     1      46.588   5.067  13.798  0.00  0.00    +0.000 A 
BRANCH  25  29
ATOM     29  C   UNL     1      44.518   4.326  10.125  0.00  0.00    +0.000 C 
ATOM     30  N   UNL     1      45.053   4.823   8.967  0.00  0.00    +0.000 N 
ATOM     31  O   UNL     1      43.464   3.705  10.084  0.00  0.00    +0.000 OA
ATOM     32  H   UNL     1      45.909   5.346   8.885  0.00  0.00    +0.000 HD
ATOM     33  H   UNL     1      44.531   4.642   8.122  0.00  0.00    +0.000 HD
ENDBRANCH  25  29
ENDBRANCH  20  28
ENDBRANCH  19  20
ENDBRANCH   1  19
TORSDOF 6
ENDMDL
MODEL 9
REMARK VINA RESULT:    -6.599      4.357      6.868
REMARK INTER + INTRA:          -9.940
REMARK INTER:                  -8.775
REMARK INTRA:                  -1.164
REMARK UNBOUND:                -1.026
REMARK  Name = 
REMARK  7 active torsions:
REMARK  status: ('A' for Active; 'I' for Inactive)
REMARK    1  A    between atoms: C_1  and  C_2
REMARK    2  A    between atoms: C_4  and  C_5
REMARK    3  A    between atoms: C_10  and  N_11
REMARK    4  A    between atoms: N_11  and  C_12
REMARK    5  A    between atoms: C_12  and  C_13
REMARK    6  A    between atoms: C_18  and  C_19
REMARK    7  A    between atoms: C_23  and  C_24
REMARK                            x       y       z     vdW  Elec       q    Type
REMARK                         _______ _______ _______ _____ _____    ______ ____
ROOT
ATOM      1  C   UNL     1      46.501   5.069  13.729  0.00  0.00    +0.000 A 
ATOM      2  C   UNL     1      45.237   5.122  13.133  0.00  0.00    +0.000 A 
ATOM      3  C   UNL     1      44.972   6.087  12.166  0.00  0.00    +0.000 A 
ATOM      4 CL   UNL     1      43.401   6.185  11.466  0.00  0.00    +0.000 Cl
ATOM      5  C   UNL     1      45.953   7.004  11.787  0.00  0.00    +0.000 A 
ATOM      6  C   UNL     1      47.242   6.964  12.348  0.00  0.00    +0.000 A 
ATOM      7  C   UNL     1      47.498   5.964  13.304  0.00  0.00    +0.000 A 
ENDROOT
BRANCH   6   8
ATOM      8  C   UNL     1      48.266   7.972  11.990  0.00  0.00    +0.000 A 
ATOM      9  C   UNL     1      47.963   9.346  11.964  0.00  0.00    +0.000 A 
ATOM     10  C   UNL     1      48.940  10.302  11.673  0.00  0.00    +0.000 A 
ATOM     11  C   UNL     1      50.247   9.906  11.406  0.00  0.00    +0.000 A 
ATOM     12  C   UNL     1      50.583   8.551  11.432  0.00  0.00    +0.000 A 
ATOM     13  C   UNL     1      49.592   7.594  11.702  0.00  0.00    +0.000 A 
BRANCH  12  14
ATOM     14  C   UNL     1      51.997   8.169  11.180  0.00  0.00    +0.000 C 
ATOM     15  N   UNL     1      52.770   7.856  12.264  0.00  0.00    +0.000 N 
ATOM     16  O   UNL     1      52.475   8.178  10.051  0.00  0.00    +0.000 OA
ATOM     17  H   UNL     1      52.499   8.074  13.210  0.00  0.00    +0.000 HD
ATOM     18  H   UNL     1      53.759   7.733  12.080  0.00  0.00    +0.000 HD
ENDBRANCH  12  14
ENDBRANCH   6   8
BRANCH   1  19
ATOM     19  C   UNL     1      46.770   4.138  14.885  0.00  0.00    +0.000 C 
BRANCH  19  20
ATOM     20  N   UNL     1      47.308   4.817  16.027  0.00  0.00    +0.000 N 
ATOM     21  H   UNL     1      46.800   5.600  16.424  0.00  0.00    +0.000 HD
BRANCH  20  28
ATOM     22  C   UNL     1      49.264   7.092  16.792  0.00  0.00    +0.000 C 
ATOM     23  C   UNL     1      49.459   5.613  16.966  0.00  0.00    +0.000 A 
ATOM     24  C   UNL     1      50.683   5.209  17.532  0.00  0.00    +0.000 A 
ATOM     25  C   UNL     1      50.976   3.864  17.735  0.00  0.00    +0.000 A 
ATOM     26  C   UNL     1      50.004   2.964  17.356  0.00  0.00    +0.000 A 
ATOM     27  N   UNL     1      48.810   3.315  16.807  0.00  0.00    +0.000 NA
ATOM     28  C   UNL     1      48.532   4.626  16.607  0.00  0.00    +0.000 A 
BRANCH  25  29
ATOM     29  C   UNL     1      52.286   3.506  18.333  0.00  0.00    +0.000 C 
ATOM     30  N   UNL     1      52.552   2.197  18.630  0.00  0.00    +0.000 N 
ATOM     31  O   UNL     1      53.130   4.361  18.566  0.00  0.00    +0.000 OA
ATOM     32  H   UNL     1      51.932   1.418  18.481  0.00  0.00    +0.000 HD
ATOM     33  H   UNL     1      53.456   2.007  19.037  0.00  0.00    +0.000 HD
ENDBRANCH  25  29
ENDBRANCH  20  28
ENDBRANCH  19  20
ENDBRANCH   1  19
TORSDOF 6
ENDMDL
