MODEL 1
REMARK VINA RESULT:    -6.778      0.000      0.000
REMARK INTER + INTRA:          -9.309
REMARK INTER:                  -8.759
REMARK INTRA:                  -0.550
REMARK UNBOUND:                -0.550
REMARK  Name = 
REMARK  8 active torsions:
REMARK  status: ('A' for Active; 'I' for Inactive)
REMARK    1  A    between atoms: C_1  and  O_2
REMARK    2  A    between atoms: O_2  and  C_3
REMARK    3  A    between atoms: N_10  and  C_11
REMARK    4  A    between atoms: C_11  and  C_12
REMARK    5  A    between atoms: C_16  and  C_17
REMARK    6  A    between atoms: C_17  and  N_18
REMARK    7  A    between atoms: N_18  and  C_19
REMARK    8  A    between atoms: N_18  and  C_20
REMARK                            x       y       z     vdW  Elec       q    Type
REMARK                         _______ _______ _______ _____ _____    ______ ____
ROOT
ATOM      1  C   UNL     1      46.065   3.290   7.148  0.00  0.00    +0.000 A 
ATOM      2  C   UNL     1      46.447   4.535   7.642  0.00  0.00    +0.000 A 
ATOM      3  N   UNL     1      46.095   5.067   8.843  0.00  0.00    +0.000 NA
ATOM      4  C   UNL     1      45.297   4.252   9.566  0.00  0.00    +0.000 A 
ATOM      5  C   UNL     1      44.837   2.992   9.191  0.00  0.00    +0.000 A 
ATOM      6  C   UNL     1      44.023   2.511  10.249  0.00  0.00    +0.000 A 
ATOM      7  C   UNL     1      43.988   3.485  11.225  0.00  0.00    +0.000 A 
ATOM      8  N   UNL     1      44.764   4.537  10.802  0.00  0.00    +0.000 N 
ATOM      9  C   UNL     1      45.229   2.499   7.935  0.00  0.00    +0.000 A 
ENDROOT
BRANCH   1  11
ATOM     10  C   UNL     1      47.728   2.291   5.799  0.00  0.00    +0.000 C 
ATOM     11  O   UNL     1      46.393   2.767   5.929  0.00  0.00    +0.000 OA
ENDBRANCH   1  11
BRANCH   8  12
ATOM     12  C   UNL     1      44.871   5.817  11.486  0.00  0.00    +0.000 C 
BRANCH  12  13
ATOM     13  C   UNL     1      46.042   5.874  12.433  0.00  0.00    +0.000 A 
ATOM     14  C   UNL     1      47.169   6.657  12.164  0.00  0.00    +0.000 A 
ATOM     15  C   UNL     1      48.218   6.641  13.071  0.00  0.00    +0.000 A 
ATOM     16  N   UNL     1      48.228   5.899  14.198  0.00  0.00    +0.000 NA
ATOM     17  C   UNL     1      47.131   5.141  14.457  0.00  0.00    +0.000 A 
ATOM     18  C   UNL     1      46.026   5.119  13.607  0.00  0.00    +0.000 A 
BRANCH  17  19
ATOM     19  C   UNL     1      47.140   4.294  15.718  0.00  0.00    +0.000 C 
BRANCH  19  20
ATOM     20  N   UNL     1      48.484   4.047  16.293  0.00  0.00    +0.000 NA
ATOM     21  C   UNL     1      48.725   4.880  17.475  0.00  0.00    +0.000 C 
ATOM     22  C   UNL     1      48.606   2.634  16.665  0.00  0.00    +0.000 C 
ENDBRANCH  19  20
ENDBRANCH  17  19
ENDBRANCH  12  13
ENDBRANCH   8  12
TORSDOF 5
ENDMDL
MODEL 2
REMARK VINA RESULT:    -6.648      1.369      1.906
REMARK INTER + INTRA:          -9.142
REMARK INTER:                  -8.804
REMARK INTRA:                  -0.338
REMARK UNBOUND:                -0.550
REMARK  Name = 
REMARK  8 active torsions:
REMARK  status: ('A' for Active; 'I' for Inactive)
REMARK    1  A    between atoms: C_1  and  O_2
REMARK    2  A    between atoms: O_2  and  C_3
REMARK    3  A    between atoms: N_10  and  C_11
REMARK    4  A    between atoms: C_11  and  C_12
REMARK    5  A    between atoms: C_16  and  C_17
REMARK    6  A    between atoms: C_17  and  N_18
REMARK    7  A    between atoms: N_18  and  C_19
REMARK    8  A    between atoms: N_18  and  C_20
REMARK                            x       y       z     vdW  Elec       q    Type
REMARK                         _______ _______ _______ _____ _____    ______ ____
ROOT
ATOM      1  C   UNL     1      46.005   2.584   7.901  0.00  0.00    +0.000 A 
ATOM      2  C   UNL     1      46.050   3.977   7.900  0.00  0.00    +0.000 A 
ATOM      3  N   UNL     1      45.421   4.802   8.780  0.00  0.00    +0.000 NA
ATOM      4  C   UNL     1      44.704   4.134   9.709  0.00  0.00    +0.000 A 
ATOM      5  C   UNL     1      44.570   2.752   9.820  0.00  0.00    +0.000 A 
ATOM      6  C   UNL     1      43.719   2.501  10.927  0.00  0.00    +0.000 A 
ATOM      7  C   UNL     1      43.342   3.720  11.449  0.00  0.00    +0.000 A 
ATOM      8  N   UNL     1      43.945   4.705  10.703  0.00  0.00    +0.000 N 
ATOM      9  C   UNL     1      45.237   1.951   8.877  0.00  0.00    +0.000 A 
ENDROOT
BRANCH   1  11
ATOM     10  C   UNL     1      47.981   2.032   6.728  0.00  0.00    +0.000 C 
ATOM     11  O   UNL     1      46.612   1.755   7.000  0.00  0.00    +0.000 OA
ENDBRANCH   1  11
BRANCH   8  12
ATOM     12  C   UNL     1      43.688   6.130  10.848  0.00  0.00    +0.000 C 
BRANCH  12  13
ATOM     13  C   UNL     1      44.717   6.823  11.702  0.00  0.00    +0.000 A 
ATOM     14  C   UNL     1      44.838   8.215  11.726  0.00  0.00    +0.000 A 
ATOM     15  C   UNL     1      45.825   8.781  12.519  0.00  0.00    +0.000 A 
ATOM     16  N   UNL     1      46.694   8.067  13.264  0.00  0.00    +0.000 NA
ATOM     17  C   UNL     1      46.573   6.714  13.241  0.00  0.00    +0.000 A 
ATOM     18  C   UNL     1      45.592   6.069  12.487  0.00  0.00    +0.000 A 
BRANCH  17  19
ATOM     19  C   UNL     1      47.554   5.903  14.068  0.00  0.00    +0.000 C 
BRANCH  19  20
ATOM     20  N   UNL     1      46.966   4.728  14.757  0.00  0.00    +0.000 NA
ATOM     21  C   UNL     1      47.116   3.507  13.961  0.00  0.00    +0.000 C 
ATOM     22  C   UNL     1      47.623   4.543  16.055  0.00  0.00    +0.000 C 
ENDBRANCH  19  20
ENDBRANCH  17  19
ENDBRANCH  12  13
ENDBRANCH   8  12
TORSDOF 5
ENDMDL
MODEL 3
REMARK VINA RESULT:    -6.374      2.726      7.253
REMARK INTER + INTRA:          -8.788
REMARK INTER:                  -8.240
REMARK INTRA:                  -0.548
REMARK UNBOUND:                -0.550
REMARK  Name = 
REMARK  8 active torsions:
REMARK  status: ('A' for Active; 'I' for Inactive)
REMARK    1  A    between atoms: C_1  and  O_2
REMARK    2  A    between atoms: O_2  and  C_3
REMARK    3  A    between atoms: N_10  and  C_11
REMARK    4  A    between atoms: C_11  and  C_12
REMARK    5  A    between atoms: C_16  and  C_17
REMARK    6  A    between atoms: C_17  and  N_18
REMARK    7  A    between atoms: N_18  and  C_19
REMARK    8  A    between atoms: N_18  and  C_20
REMARK                            x       y       z     vdW  Elec       q    Type
REMARK                         _______ _______ _______ _____ _____    ______ ____
ROOT
ATOM      1  C   UNL     1      47.759   5.598  14.628  0.00  0.00    +0.000 A 
ATOM      2  C   UNL     1      46.861   4.601  14.250  0.00  0.00    +0.000 A 
ATOM      3  N   UNL     1      45.898   4.707  13.296  0.00  0.00    +0.000 NA
ATOM      4  C   UNL     1      45.870   5.921  12.707  0.00  0.00    +0.000 A 
ATOM      5  C   UNL     1      46.701   7.003  12.992  0.00  0.00    +0.000 A 
ATOM      6  C   UNL     1      46.306   8.069  12.144  0.00  0.00    +0.000 A 
ATOM      7  C   UNL     1      45.244   7.627  11.383  0.00  0.00    +0.000 A 
ATOM      8  N   UNL     1      44.986   6.323  11.732  0.00  0.00    +0.000 N 
ATOM      9  C   UNL     1      47.673   6.836  13.993  0.00  0.00    +0.000 A 
ENDROOT
BRANCH   1  11
ATOM     10  C   UNL     1      48.278   4.913  16.829  0.00  0.00    +0.000 C 
ATOM     11  O   UNL     1      48.708   5.503  15.607  0.00  0.00    +0.000 OA
ENDBRANCH   1  11
BRANCH   8  12
ATOM     12  C   UNL     1      43.852   5.545  11.257  0.00  0.00    +0.000 C 
BRANCH  12  13
ATOM     13  C   UNL     1      44.265   4.391  10.381  0.00  0.00    +0.000 A 
ATOM     14  C   UNL     1      43.808   3.090  10.614  0.00  0.00    +0.000 A 
ATOM     15  C   UNL     1      44.250   2.074   9.779  0.00  0.00    +0.000 A 
ATOM     16  N   UNL     1      45.112   2.259   8.758  0.00  0.00    +0.000 NA
ATOM     17  C   UNL     1      45.551   3.525   8.533  0.00  0.00    +0.000 A 
ATOM     18  C   UNL     1      45.137   4.605   9.313  0.00  0.00    +0.000 A 
BRANCH  17  19
ATOM     19  C   UNL     1      46.530   3.740   7.392  0.00  0.00    +0.000 C 
BRANCH  19  20
ATOM     20  N   UNL     1      46.751   2.554   6.529  0.00  0.00    +0.000 NA
ATOM     21  C   UNL     1      46.854   2.928   5.116  0.00  0.00    +0.000 C 
ATOM     22  C   UNL     1      47.983   1.872   6.940  0.00  0.00    +0.000 C 
ENDBRANCH  19  20
ENDBRANCH  17  19
ENDBRANCH  12  13
ENDBRANCH   8  12
TORSDOF 5
ENDMDL
MODEL 4
REMARK VINA RESULT:    -6.216      1.595      3.080
REMARK INTER + INTRA:          -8.582
REMARK INTER:                  -7.933
REMARK INTRA:                  -0.649
REMARK UNBOUND:                -0.550
REMARK  Name = 
REMARK  8 active torsions:
REMARK  status: ('A' for Active; 'I' for Inactive)
REMARK    1  A    between atoms: C_1  and  O_2
REMARK    2  A    between atoms: O_2  and  C_3
REMARK    3  A    between atoms: N_10  and  C_11
REMARK    4  A    between atoms: C_11  and  C_12
REMARK    5  A    between atoms: C_16  and  C_17
REMARK    6  A    between atoms: C_17  and  N_18
REMARK    7  A    between atoms: N_18  and  C_19
REMARK    8  A    between atoms: N_18  and  C_20
REMARK                            x       y       z     vdW  Elec       q    Type
REMARK                         _______ _______ _______ _____ _____    ______ ____
ROOT
ATOM      1  C   UNL     1      45.355   3.555   8.128  0.00  0.00    +0.000 A 
ATOM      2  C   UNL     1      45.781   4.755   8.693  0.00  0.00    +0.000 A 
ATOM      3  N   UNL     1      45.496   5.200   9.947  0.00  0.00    +0.000 NA
ATOM      4  C   UNL     1      44.720   4.344  10.645  0.00  0.00    +0.000 A 
ATOM      5  C   UNL     1      44.222   3.121  10.201  0.00  0.00    +0.000 A 
ATOM      6  C   UNL     1      43.450   2.574  11.259  0.00  0.00    +0.000 A 
ATOM      7  C   UNL     1      43.479   3.472  12.305  0.00  0.00    +0.000 A 
ATOM      8  N   UNL     1      44.252   4.543  11.923  0.00  0.00    +0.000 N 
ATOM      9  C   UNL     1      44.544   2.719   8.894  0.00  0.00    +0.000 A 
ENDROOT
BRANCH   1  11
ATOM     10  C   UNL     1      46.992   3.008   6.514  0.00  0.00    +0.000 C 
ATOM     11  O   UNL     1      45.615   3.121   6.858  0.00  0.00    +0.000 OA
ENDBRANCH   1  11
BRANCH   8  12
ATOM     12  C   UNL     1      44.413   5.766  12.694  0.00  0.00    +0.000 C 
BRANCH  12  13
ATOM     13  C   UNL     1      45.779   5.884  13.319  0.00  0.00    +0.000 A 
ATOM     14  C   UNL     1      46.316   4.865  14.112  0.00  0.00    +0.000 A 
ATOM     15  C   UNL     1      47.571   5.055  14.673  0.00  0.00    +0.000 A 
ATOM     16  N   UNL     1      48.305   6.175  14.515  0.00  0.00    +0.000 NA
ATOM     17  C   UNL     1      47.781   7.162  13.742  0.00  0.00    +0.000 A 
ATOM     18  C   UNL     1      46.537   7.040  13.124  0.00  0.00    +0.000 A 
BRANCH  17  19
ATOM     19  C   UNL     1      48.598   8.430  13.567  0.00  0.00    +0.000 C 
BRANCH  19  20
ATOM     20  N   UNL     1      49.623   8.369  12.497  0.00  0.00    +0.000 NA
ATOM     21  C   UNL     1      49.465   9.464  11.537  0.00  0.00    +0.000 C 
ATOM     22  C   UNL     1      50.960   8.440  13.096  0.00  0.00    +0.000 C 
ENDBRANCH  19  20
ENDBRANCH  17  19
ENDBRANCH  12  13
ENDBRANCH   8  12
TORSDOF 5
ENDMDL
MODEL 5
REMARK VINA RESULT:    -6.027      3.213      7.350
REMARK INTER + INTRA:          -8.338
REMARK INTER:                  -7.977
REMARK INTRA:                  -0.361
REMARK UNBOUND:                -0.550
REMARK  Name = 
REMARK  8 active torsions:
REMARK  status: ('A' for Active; 'I' for Inactive)
REMARK    1  A    between atoms: C_1  and  O_2
REMARK    2  A    between atoms: O_2  and  C_3
REMARK    3  A    between atoms: N_10  and  C_11
REMARK    4  A    between atoms: C_11  and  C_12
REMARK    5  A    between atoms: C_16  and  C_17
REMARK    6  A    between atoms: C_17  and  N_18
REMARK    7  A    between atoms: N_18  and  C_19
REMARK    8  A    between atoms: N_18  and  C_20
REMARK                            x       y       z     vdW  Elec       q    Type
REMARK                         _______ _______ _______ _____ _____    ______ ____
ROOT
ATOM      1  C   UNL     1      50.376   7.949  14.759  0.00  0.00    +0.000 A 
ATOM      2  C   UNL     1      49.703   6.976  15.495  0.00  0.00    +0.000 A 
ATOM      3  N   UNL     1      48.619   6.265  15.085  0.00  0.00    +0.000 NA
ATOM      4  C   UNL     1      48.215   6.591  13.838  0.00  0.00    +0.000 A 
ATOM      5  C   UNL     1      48.791   7.544  13.000  0.00  0.00    +0.000 A 
ATOM      6  C   UNL     1      48.035   7.558  11.800  0.00  0.00    +0.000 A 
ATOM      7  C   UNL     1      47.015   6.639  11.937  0.00  0.00    +0.000 A 
ATOM      8  N   UNL     1      47.133   6.057  13.177  0.00  0.00    +0.000 N 
ATOM      9  C   UNL     1      49.904   8.252  13.482  0.00  0.00    +0.000 A 
ENDROOT
BRANCH   1  11
ATOM     10  C   UNL     1      52.703   8.017  15.168  0.00  0.00    +0.000 C 
ATOM     11  O   UNL     1      51.447   8.686  15.181  0.00  0.00    +0.000 OA
ENDBRANCH   1  11
BRANCH   8  12
ATOM     12  C   UNL     1      46.166   5.138  13.758  0.00  0.00    +0.000 C 
BRANCH  12  13
ATOM     13  C   UNL     1      45.040   4.807  12.813  0.00  0.00    +0.000 A 
ATOM     14  C   UNL     1      43.786   5.414  12.921  0.00  0.00    +0.000 A 
ATOM     15  C   UNL     1      42.790   5.041  12.030  0.00  0.00    +0.000 A 
ATOM     16  N   UNL     1      42.952   4.110  11.067  0.00  0.00    +0.000 NA
ATOM     17  C   UNL     1      44.172   3.523  10.964  0.00  0.00    +0.000 A 
ATOM     18  C   UNL     1      45.232   3.859  11.806  0.00  0.00    +0.000 A 
BRANCH  17  19
ATOM     19  C   UNL     1      44.359   2.466   9.889  0.00  0.00    +0.000 C 
BRANCH  19  20
ATOM     20  N   UNL     1      45.502   2.702   8.975  0.00  0.00    +0.000 NA
ATOM     21  C   UNL     1      45.916   1.468   8.302  0.00  0.00    +0.000 C 
ATOM     22  C   UNL     1      45.127   3.700   7.969  0.00  0.00    +0.000 C 
ENDBRANCH  19  20
ENDBRANCH  17  19
ENDBRANCH  12  13
ENDBRANCH   8  12
TORSDOF 5
ENDMDL
MODEL 6
REMARK VINA RESULT:    -5.985      3.019      7.146
REMARK INTER + INTRA:          -8.284
REMARK INTER:                  -7.804
REMARK INTRA:                  -0.480
REMARK UNBOUND:                -0.550
REMARK  Name = 
REMARK  8 active torsions:
REMARK  status: ('A' for Active; 'I' for Inactive)
REMARK    1  A    between atoms: C_1  and  O_2
REMARK    2  A    between atoms: O_2  and  C_3
REMARK    3  A    between atoms: N_10  and  C_11
REMARK    4  A    between atoms: C_11  and  C_12
REMARK    5  A    between atoms: C_16  and  C_17
REMARK    6  A    between atoms: C_17  and  N_18
REMARK    7  A    between atoms: N_18  and  C_19
REMARK    8  A    between atoms: N_18  and  C_20
REMARK                            x       y       z     vdW  Elec       q    Type
REMARK                         _______ _______ _______ _____ _____    ______ ____
ROOT
ATOM      1  C   UNL     1      48.823   8.136  13.425  0.00  0.00    +0.000 A 
ATOM      2  C   UNL     1      47.903   8.533  12.457  0.00  0.00    +0.000 A 
ATOM      3  N   UNL     1      46.799   7.840  12.066  0.00  0.00    +0.000 NA
ATOM      4  C   UNL     1      46.652   6.669  12.720  0.00  0.00    +0.000 A 
ATOM      5  C   UNL     1      47.497   6.152  13.701  0.00  0.00    +0.000 A 
ATOM      6  C   UNL     1      46.964   4.899  14.096  0.00  0.00    +0.000 A 
ATOM      7  C   UNL     1      45.830   4.672  13.345  0.00  0.00    +0.000 A 
ATOM      8  N   UNL     1      45.649   5.751  12.513  0.00  0.00    +0.000 N 
ATOM      9  C   UNL     1      48.626   6.910  14.057  0.00  0.00    +0.000 A 
ENDROOT
BRANCH   1  11
ATOM     10  C   UNL     1      51.121   8.532  13.042  0.00  0.00    +0.000 C 
ATOM     11  O   UNL     1      49.949   8.816  13.797  0.00  0.00    +0.000 OA
ENDBRANCH   1  11
BRANCH   8  12
ATOM     12  C   UNL     1      44.643   5.832  11.465  0.00  0.00    +0.000 C 
BRANCH  12  13
ATOM     13  C   UNL     1      44.735   4.693  10.482  0.00  0.00    +0.000 A 
ATOM     14  C   UNL     1      44.030   3.501  10.668  0.00  0.00    +0.000 A 
ATOM     15  C   UNL     1      44.182   2.488   9.733  0.00  0.00    +0.000 A 
ATOM     16  N   UNL     1      44.988   2.574   8.654  0.00  0.00    +0.000 NA
ATOM     17  C   UNL     1      45.670   3.735   8.475  0.00  0.00    +0.000 A 
ATOM     18  C   UNL     1      45.554   4.809   9.357  0.00  0.00    +0.000 A 
BRANCH  17  19
ATOM     19  C   UNL     1      46.588   3.836   7.269  0.00  0.00    +0.000 C 
BRANCH  19  20
ATOM     20  N   UNL     1      46.749   2.577   6.502  0.00  0.00    +0.000 NA
ATOM     21  C   UNL     1      46.972   2.839   5.077  0.00  0.00    +0.000 C 
ATOM     22  C   UNL     1      47.884   1.819   7.039  0.00  0.00    +0.000 C 
ENDBRANCH  19  20
ENDBRANCH  17  19
ENDBRANCH  12  13
ENDBRANCH   8  12
TORSDOF 5
ENDMDL
MODEL 7
REMARK VINA RESULT:    -5.862      3.049      6.773
REMARK INTER + INTRA:          -8.125
REMARK INTER:                  -7.646
REMARK INTRA:                  -0.479
REMARK UNBOUND:                -0.550
REMARK  Name = 
REMARK  8 active torsions:
REMARK  status: ('A' for Active; 'I' for Inactive)
REMARK    1  A    between atoms: C_1  and  O_2
REMARK    2  A    between atoms: O_2  and  C_3
REMARK    3  A    between atoms: N_10  and  C_11
REMARK    4  A    between atoms: C_11  and  C_12
REMARK    5  A    between atoms: C_16  and  C_17
REMARK    6  A    between atoms: C_17  and  N_18
REMARK    7  A    between atoms: N_18  and  C_19
REMARK    8  A    between atoms: N_18  and  C_20
REMARK                            x       y       z     vdW  Elec       q    Type
REMARK                         _______ _______ _______ _____ _____    ______ ____
ROOT
ATOM      1  C   UNL     1      46.536   9.897  11.988  0.00  0.00    +0.000 A 
ATOM      2  C   UNL     1      45.443   9.258  12.570  0.00  0.00    +0.000 A 
ATOM      3  N   UNL     1      45.425   7.994  13.072  0.00  0.00    +0.000 NA
ATOM      4  C   UNL     1      46.613   7.363  12.956  0.00  0.00    +0.000 A 
ATOM      5  C   UNL     1      47.778   7.881  12.392  0.00  0.00    +0.000 A 
ATOM      6  C   UNL     1      48.769   6.868  12.473  0.00  0.00    +0.000 A 
ATOM      7  C   UNL     1      48.189   5.763  13.060  0.00  0.00    +0.000 A 
ATOM      8  N   UNL     1      46.881   6.073  13.349  0.00  0.00    +0.000 N 
ATOM      9  C   UNL     1      47.733   9.189  11.884  0.00  0.00    +0.000 A 
ENDROOT
BRANCH   1  11
ATOM     10  C   UNL     1      45.440  11.487  10.626  0.00  0.00    +0.000 C 
ATOM     11  O   UNL     1      46.548  11.156  11.455  0.00  0.00    +0.000 OA
ENDBRANCH   1  11
BRANCH   8  12
ATOM     12  C   UNL     1      45.895   5.126  13.845  0.00  0.00    +0.000 C 
BRANCH  12  13
ATOM     13  C   UNL     1      44.869   4.755  12.805  0.00  0.00    +0.000 A 
ATOM     14  C   UNL     1      43.592   5.322  12.795  0.00  0.00    +0.000 A 
ATOM     15  C   UNL     1      42.694   4.915  11.820  0.00  0.00    +0.000 A 
ATOM     16  N   UNL     1      42.971   3.986  10.882  0.00  0.00    +0.000 NA
ATOM     17  C   UNL     1      44.214   3.438  10.893  0.00  0.00    +0.000 A 
ATOM     18  C   UNL     1      45.182   3.811  11.825  0.00  0.00    +0.000 A 
BRANCH  17  19
ATOM     19  C   UNL     1      44.530   2.384   9.846  0.00  0.00    +0.000 C 
BRANCH  19  20
ATOM     20  N   UNL     1      45.611   2.751   8.899  0.00  0.00    +0.000 NA
ATOM     21  C   UNL     1      46.145   1.573   8.209  0.00  0.00    +0.000 C 
ATOM     22  C   UNL     1      45.093   3.699   7.908  0.00  0.00    +0.000 C 
ENDBRANCH  19  20
ENDBRANCH  17  19
ENDBRANCH  12  13
ENDBRANCH   8  12
TORSDOF 5
ENDMDL
MODEL 8
REMARK VINA RESULT:    -5.424      2.160      2.939
REMARK INTER + INTRA:          -7.559
REMARK INTER:                  -6.875
REMARK INTRA:                  -0.684
REMARK UNBOUND:                -0.550
REMARK  Name = 
REMARK  8 active torsions:
REMARK  status: ('A' for Active; 'I' for Inactive)
REMARK    1  A    between atoms: C_1  and  O_2
REMARK    2  A    between atoms: O_2  and  C_3
REMARK    3  A    between atoms: N_10  and  C_11
REMARK    4  A    between atoms: C_11  and  C_12
REMARK    5  A    between atoms: C_16  and  C_17
REMARK    6  A    between atoms: C_17  and  N_18
REMARK    7  A    between atoms: N_18  and  C_19
REMARK    8  A    between atoms: N_18  and  C_20
REMARK                            x       y       z     vdW  Elec       q    Type
REMARK                         _______ _______ _______ _____ _____    ______ ____
ROOT
ATOM      1  C   UNL     1      44.969   3.471   9.232  0.00  0.00    +0.000 A 
ATOM      2  C   UNL     1      45.654   4.649   8.942  0.00  0.00    +0.000 A 
ATOM      3  N   UNL     1      45.873   5.683   9.798  0.00  0.00    +0.000 NA
ATOM      4  C   UNL     1      45.344   5.475  11.023  0.00  0.00    +0.000 A 
ATOM      5  C   UNL     1      44.635   4.351  11.442  0.00  0.00    +0.000 A 
ATOM      6  C   UNL     1      44.262   4.571  12.793  0.00  0.00    +0.000 A 
ATOM      7  C   UNL     1      44.729   5.816  13.159  0.00  0.00    +0.000 A 
ATOM      8  N   UNL     1      45.385   6.356  12.078  0.00  0.00    +0.000 N 
ATOM      9  C   UNL     1      44.434   3.319  10.511  0.00  0.00    +0.000 A 
ENDROOT
BRANCH   1  11
ATOM     10  C   UNL     1      45.652   1.367   8.399  0.00  0.00    +0.000 C 
ATOM     11  O   UNL     1      44.722   2.444   8.364  0.00  0.00    +0.000 OA
ENDBRANCH   1  11
BRANCH   8  12
ATOM     12  C   UNL     1      45.899   7.716  12.014  0.00  0.00    +0.000 C 
BRANCH  12  13
ATOM     13  C   UNL     1      47.326   7.820  12.487  0.00  0.00    +0.000 A 
ATOM     14  C   UNL     1      48.405   7.612  11.623  0.00  0.00    +0.000 A 
ATOM     15  C   UNL     1      49.691   7.702  12.135  0.00  0.00    +0.000 A 
ATOM     16  N   UNL     1      49.969   7.964  13.429  0.00  0.00    +0.000 NA
ATOM     17  C   UNL     1      48.919   8.168  14.265  0.00  0.00    +0.000 A 
ATOM     18  C   UNL     1      47.597   8.118  13.824  0.00  0.00    +0.000 A 
BRANCH  17  19
ATOM     19  C   UNL     1      49.224   8.454  15.725  0.00  0.00    +0.000 C 
BRANCH  19  20
ATOM     20  N   UNL     1      48.796   7.394  16.670  0.00  0.00    +0.000 NA
ATOM     21  C   UNL     1      49.695   6.238  16.625  0.00  0.00    +0.000 C 
ATOM     22  C   UNL     1      48.769   7.935  18.033  0.00  0.00    +0.000 C 
ENDBRANCH  19  20
ENDBRANCH  17  19
ENDBRANCH  12  13
ENDBRANCH   8  12
TORSDOF 5
ENDMDL
MODEL 9
REMARK VINA RESULT:    -5.385      3.275      4.654
REMARK INTER + INTRA:          -7.509
REMARK INTER:                  -6.783
REMARK INTRA:                  -0.726
REMARK UNBOUND:                -0.550
REMARK  Name = 
REMARK  8 active torsions:
REMARK  status: ('A' for Active; 'I' for Inactive)
REMARK    1  A    between atoms: C_1  and  O_2
REMARK    2  A    between atoms: O_2  and  C_3
REMARK    3  A    between atoms: N_10  and  C_11
REMARK    4  A    between atoms: C_11  and  C_12
REMARK    5  A    between atoms: C_16  and  C_17
REMARK    6  A    between atoms: C_17  and  N_18
REMARK    7  A    between atoms: N_18  and  C_19
REMARK    8  A    between atoms: N_18  and  C_20
REMARK                            x       y       z     vdW  Elec       q    Type
REMARK                         _______ _______ _______ _____ _____    ______ ____
ROOT
ATOM      1  C   UNL     1      44.263   4.925  11.995  0.00  0.00    +0.000 A 
ATOM      2  C   UNL     1      45.445   4.460  12.569  0.00  0.00    +0.000 A 
ATOM      3  N   UNL     1      46.490   5.223  12.988  0.00  0.00    +0.000 NA
ATOM      4  C   UNL     1      46.290   6.544  12.793  0.00  0.00    +0.000 A 
ATOM      5  C   UNL     1      45.164   7.140  12.228  0.00  0.00    +0.000 A 
ATOM      6  C   UNL     1      45.395   8.540  12.212  0.00  0.00    +0.000 A 
ATOM      7  C   UNL     1      46.648   8.763  12.743  0.00  0.00    +0.000 A 
ATOM      8  N   UNL     1      47.183   7.546  13.093  0.00  0.00    +0.000 N 
ATOM      9  C   UNL     1      44.120   6.300  11.807  0.00  0.00    +0.000 A 
ENDROOT
BRANCH   1  11
ATOM     10  C   UNL     1      43.376   2.753  11.713  0.00  0.00    +0.000 C 
ATOM     11  O   UNL     1      43.225   4.159  11.545  0.00  0.00    +0.000 OA
ENDBRANCH   1  11
BRANCH   8  12
ATOM     12  C   UNL     1      48.547   7.341  13.558  0.00  0.00    +0.000 C 
BRANCH  12  13
ATOM     13  C   UNL     1      48.653   7.334  15.061  0.00  0.00    +0.000 A 
ATOM     14  C   UNL     1      48.649   8.518  15.805  0.00  0.00    +0.000 A 
ATOM     15  C   UNL     1      48.774   8.433  17.184  0.00  0.00    +0.000 A 
ATOM     16  N   UNL     1      48.918   7.273  17.858  0.00  0.00    +0.000 NA
ATOM     17  C   UNL     1      48.920   6.125  17.132  0.00  0.00    +0.000 A 
ATOM     18  C   UNL     1      48.776   6.123  15.744  0.00  0.00    +0.000 A 
BRANCH  17  19
ATOM     19  C   UNL     1      49.092   4.816  17.882  0.00  0.00    +0.000 C 
BRANCH  19  20
ATOM     20  N   UNL     1      48.948   3.597  17.049  0.00  0.00    +0.000 NA
ATOM     21  C   UNL     1      50.023   2.636  17.312  0.00  0.00    +0.000 C 
ATOM     22  C   UNL     1      47.654   2.965  17.326  0.00  0.00    +0.000 C 
ENDBRANCH  19  20
ENDBRANCH  17  19
ENDBRANCH  12  13
ENDBRANCH   8  12
TORSDOF 5
ENDMDL
