MODEL 1
REMARK VINA RESULT:    -7.750      0.000      0.000
REMARK INTER + INTRA:         -11.322
REMARK INTER:                 -10.469
REMARK INTRA:                  -0.853
REMARK UNBOUND:                -0.853
REMARK  Name = 
REMARK  7 active torsions:
REMARK  status: ('A' for Active; 'I' for Inactive)
REMARK    1  A    between atoms: C_1  and  C_2
REMARK    2  A    between atoms: C_2  and  N_3
REMARK    3  A    between atoms: C_2  and  C_26
REMARK    4  A    between atoms: C_4  and  C_6
REMARK    5  A    between atoms: C_9  and  C_10
REMARK    6  A    between atoms: C_10  and  N_11
REMARK    7  A    between atoms: C_12  and  C_14
REMARK                            x       y       z     vdW  Elec       q    Type
REMARK                         _______ _______ _______ _____ _____    ______ ____
ROOT
ATOM      1  C   UNL     1      44.195   6.369  11.856  0.00  0.00    +0.000 C 
ATOM      2  C   UNL     1      44.617   5.992  13.287  0.00  0.00    +0.000 C 
ATOM      3  C   UNL     1      45.953   5.249  13.356  0.00  0.00    +0.000 C 
ATOM      4  C   UNL     1      47.093   5.969  12.617  0.00  0.00    +0.000 C 
ATOM      5  C   UNL     1      46.662   6.278  11.178  0.00  0.00    +0.000 C 
ATOM      6  C   UNL     1      45.347   7.055  11.103  0.00  0.00    +0.000 C 
ENDROOT
BRANCH   1   8
ATOM      7  N   UNL     1      44.531   4.414  10.429  0.00  0.00    +0.000 N 
ATOM      8  C   UNL     1      43.600   5.181  11.086  0.00  0.00    +0.000 C 
ATOM      9  O   UNL     1      42.395   4.955  11.022  0.00  0.00    +0.000 OA
ATOM     10  H   UNL     1      45.494   4.728  10.350  0.00  0.00    +0.000 HD
BRANCH   7  12
ATOM     11  C   UNL     1      43.948   2.012  10.472  0.00  0.00    +0.000 C 
ATOM     12  C   UNL     1      44.221   3.245   9.606  0.00  0.00    +0.000 C 
BRANCH  12  13
ATOM     13  C   UNL     1      45.379   2.978   8.635  0.00  0.00    +0.000 A 
ATOM     14  C   UNL     1      45.931   4.013   7.879  0.00  0.00    +0.000 A 
ATOM     15  C   UNL     1      46.962   3.727   6.986  0.00  0.00    +0.000 A 
ATOM     16  C   UNL     1      47.427   2.423   6.875  0.00  0.00    +0.000 A 
ATOM     17  C   UNL     1      46.839   1.452   7.666  0.00  0.00    +0.000 A 
ATOM     18  N   UNL     1      45.835   1.694   8.538  0.00  0.00    +0.000 NA
ENDBRANCH  12  13
ENDBRANCH   7  12
ENDBRANCH   1   8
BRANCH   4  19
ATOM     19  C   UNL     1      47.578   7.248  13.328  0.00  0.00    +0.000 C 
BRANCH  19  20
ATOM     20  N   UNL     1      47.860   7.015  14.727  0.00  0.00    +0.000 N 
ATOM     21  C   UNL     1      49.135   6.950  15.231  0.00  0.00    +0.000 C 
ATOM     22  O   UNL     1      50.130   7.084  14.524  0.00  0.00    +0.000 OA
ATOM     23  H   UNL     1      47.074   6.773  15.323  0.00  0.00    +0.000 HD
BRANCH  21  24
ATOM     24  C   UNL     1      49.254   6.769  16.683  0.00  0.00    +0.000 A 
ATOM     25  C   UNL     1      49.815   7.781  17.452  0.00  0.00    +0.000 A 
ATOM     26  S   UNL     1      49.868   7.426  19.117  0.00  0.00    +0.000 S 
ATOM     27  C   UNL     1      49.186   5.889  18.866  0.00  0.00    +0.000 A 
ATOM     28  N   UNL     1      48.981   5.039  19.909  0.00  0.00    +0.000 NA
ATOM     29  C   UNL     1      48.486   3.894  19.573  0.00  0.00    +0.000 A 
ATOM     30  N   UNL     1      48.161   3.528  18.293  0.00  0.00    +0.000 N 
ATOM     31  C   UNL     1      48.294   4.375  17.217  0.00  0.00    +0.000 A 
ATOM     32  O   UNL     1      47.900   4.051  16.101  0.00  0.00    +0.000 OA
ATOM     33  C   UNL     1      48.886   5.661  17.534  0.00  0.00    +0.000 A 
ATOM     34  H   UNL     1      47.752   2.625  18.102  0.00  0.00    +0.000 HD
ENDBRANCH  21  24
ENDBRANCH  19  20
ENDBRANCH   4  19
TORSDOF 6
ENDMDL
MODEL 2
REMARK VINA RESULT:    -7.305      1.629      2.090
REMARK INTER + INTRA:         -10.721
REMARK INTER:                 -10.075
REMARK INTRA:                  -0.646
REMARK UNBOUND:                -0.853
REMARK  Name = 
REMARK  7 active torsions:
REMARK  status: ('A' for Active; 'I' for Inactive)
REMARK    1  A    between atoms: C_1  and  C_2
REMARK    2  A    between atoms: C_2  and  N_3
REMARK    3  A    between atoms: C_2  and  C_26
REMARK    4  A    between atoms: C_4  and  C_6
REMARK    5  A    between atoms: C_9  and  C_10
REMARK    6  A    between atoms: C_10  and  N_11
REMARK    7  A    between atoms: C_12  and  C_14
REMARK                            x       y       z     vdW  Elec       q    Type
REMARK                         _______ _______ _______ _____ _____    ______ ____
ROOT
ATOM      1  C   UNL     1      44.820   6.371  13.037  0.00  0.00    +0.000 C 
ATOM      2  C   UNL     1      45.849   5.443  13.706  0.00  0.00    +0.000 C 
ATOM      3  C   UNL     1      47.134   5.267  12.894  0.00  0.00    +0.000 C 
ATOM      4  C   UNL     1      47.781   6.598  12.477  0.00  0.00    +0.000 C 
ATOM      5  C   UNL     1      46.745   7.475  11.762  0.00  0.00    +0.000 C 
ATOM      6  C   UNL     1      45.475   7.687  12.585  0.00  0.00    +0.000 C 
ENDROOT
BRANCH   1   8
ATOM      7  N   UNL     1      44.360   4.346  11.749  0.00  0.00    +0.000 N 
ATOM      8  C   UNL     1      44.040   5.672  11.913  0.00  0.00    +0.000 C 
ATOM      9  O   UNL     1      43.233   6.250  11.192  0.00  0.00    +0.000 OA
ATOM     10  H   UNL     1      45.156   3.945  12.236  0.00  0.00    +0.000 HD
BRANCH   7  12
ATOM     11  C   UNL     1      43.390   2.112  11.332  0.00  0.00    +0.000 C 
ATOM     12  C   UNL     1      43.781   3.466  10.734  0.00  0.00    +0.000 C 
BRANCH  12  13
ATOM     13  C   UNL     1      44.779   3.280   9.584  0.00  0.00    +0.000 A 
ATOM     14  C   UNL     1      45.267   4.381   8.878  0.00  0.00    +0.000 A 
ATOM     15  C   UNL     1      46.150   4.171   7.820  0.00  0.00    +0.000 A 
ATOM     16  C   UNL     1      46.534   2.876   7.497  0.00  0.00    +0.000 A 
ATOM     17  C   UNL     1      46.018   1.836   8.250  0.00  0.00    +0.000 A 
ATOM     18  N   UNL     1      45.157   2.004   9.279  0.00  0.00    +0.000 NA
ENDBRANCH  12  13
ENDBRANCH   7  12
ENDBRANCH   1   8
BRANCH   4  19
ATOM     19  C   UNL     1      48.429   7.363  13.648  0.00  0.00    +0.000 C 
BRANCH  19  20
ATOM     20  N   UNL     1      48.266   6.667  14.905  0.00  0.00    +0.000 N 
ATOM     21  C   UNL     1      49.264   6.576  15.842  0.00  0.00    +0.000 C 
ATOM     22  O   UNL     1      50.371   7.079  15.676  0.00  0.00    +0.000 OA
ATOM     23  H   UNL     1      47.413   6.130  15.028  0.00  0.00    +0.000 HD
BRANCH  21  24
ATOM     24  C   UNL     1      48.922   5.889  17.094  0.00  0.00    +0.000 A 
ATOM     25  C   UNL     1      49.007   4.504  17.156  0.00  0.00    +0.000 A 
ATOM     26  S   UNL     1      48.593   3.860  18.678  0.00  0.00    +0.000 S 
ATOM     27  C   UNL     1      48.240   5.405  19.295  0.00  0.00    +0.000 A 
ATOM     28  N   UNL     1      47.794   5.560  20.572  0.00  0.00    +0.000 NA
ATOM     29  C   UNL     1      47.535   6.782  20.900  0.00  0.00    +0.000 A 
ATOM     30  N   UNL     1      47.697   7.864  20.075  0.00  0.00    +0.000 N 
ATOM     31  C   UNL     1      48.202   7.763  18.800  0.00  0.00    +0.000 A 
ATOM     32  O   UNL     1      48.428   8.762  18.125  0.00  0.00    +0.000 OA
ATOM     33  C   UNL     1      48.469   6.404  18.366  0.00  0.00    +0.000 A 
ATOM     34  H   UNL     1      47.501   8.798  20.404  0.00  0.00    +0.000 HD
ENDBRANCH  21  24
ENDBRANCH  19  20
ENDBRANCH   4  19
TORSDOF 6
ENDMDL
MODEL 3
REMARK VINA RESULT:    -7.166      2.051      2.563
REMARK INTER + INTRA:         -10.534
REMARK INTER:                  -9.525
REMARK INTRA:                  -1.008
REMARK UNBOUND:                -0.853
REMARK  Name = 
REMARK  7 active torsions:
REMARK  status: ('A' for Active; 'I' for Inactive)
REMARK    1  A    between atoms: C_1  and  C_2
REMARK    2  A    between atoms: C_2  and  N_3
REMARK    3  A    between atoms: C_2  and  C_26
REMARK    4  A    between atoms: C_4  and  C_6
REMARK    5  A    between atoms: C_9  and  C_10
REMARK    6  A    between atoms: C_10  and  N_11
REMARK    7  A    between atoms: C_12  and  C_14
REMARK                            x       y       z     vdW  Elec       q    Type
REMARK                         _______ _______ _______ _____ _____    ______ ____
ROOT
ATOM      1  C   UNL     1      45.537   6.600  13.126  0.00  0.00    +0.000 C 
ATOM      2  C   UNL     1      46.871   5.835  13.203  0.00  0.00    +0.000 C 
ATOM      3  C   UNL     1      47.875   6.244  12.124  0.00  0.00    +0.000 C 
ATOM      4  C   UNL     1      48.113   7.761  12.053  0.00  0.00    +0.000 C 
ATOM      5  C   UNL     1      46.769   8.490  11.917  0.00  0.00    +0.000 C 
ATOM      6  C   UNL     1      45.775   8.114  13.016  0.00  0.00    +0.000 C 
ENDROOT
BRANCH   1   8
ATOM      7  N   UNL     1      44.704   4.700  11.835  0.00  0.00    +0.000 N 
ATOM      8  C   UNL     1      44.611   6.057  12.028  0.00  0.00    +0.000 C 
ATOM      9  O   UNL     1      43.880   6.771  11.349  0.00  0.00    +0.000 OA
ATOM     10  H   UNL     1      45.443   4.166  12.283  0.00  0.00    +0.000 HD
BRANCH   7  12
ATOM     11  C   UNL     1      43.316   2.692  11.448  0.00  0.00    +0.000 C 
ATOM     12  C   UNL     1      43.950   3.944  10.835  0.00  0.00    +0.000 C 
BRANCH  12  13
ATOM     13  C   UNL     1      44.875   3.566   9.671  0.00  0.00    +0.000 A 
ATOM     14  C   UNL     1      45.457   4.552   8.873  0.00  0.00    +0.000 A 
ATOM     15  C   UNL     1      46.268   4.170   7.806  0.00  0.00    +0.000 A 
ATOM     16  C   UNL     1      46.489   2.820   7.564  0.00  0.00    +0.000 A 
ATOM     17  C   UNL     1      45.887   1.900   8.405  0.00  0.00    +0.000 A 
ATOM     18  N   UNL     1      45.092   2.237   9.446  0.00  0.00    +0.000 NA
ENDBRANCH  12  13
ENDBRANCH   7  12
ENDBRANCH   1   8
BRANCH   4  19
ATOM     19  C   UNL     1      48.917   8.317  13.244  0.00  0.00    +0.000 C 
BRANCH  19  20
ATOM     20  N   UNL     1      49.263   7.281  14.193  0.00  0.00    +0.000 N 
ATOM     21  C   UNL     1      49.023   7.391  15.539  0.00  0.00    +0.000 C 
ATOM     22  O   UNL     1      48.496   8.383  16.035  0.00  0.00    +0.000 OA
ATOM     23  H   UNL     1      49.814   6.502  13.844  0.00  0.00    +0.000 HD
BRANCH  21  24
ATOM     24  C   UNL     1      49.377   6.228  16.362  0.00  0.00    +0.000 A 
ATOM     25  C   UNL     1      48.367   5.431  16.885  0.00  0.00    +0.000 A 
ATOM     26  S   UNL     1      48.938   4.115  17.803  0.00  0.00    +0.000 S 
ATOM     27  C   UNL     1      50.555   4.588  17.573  0.00  0.00    +0.000 A 
ATOM     28  N   UNL     1      51.575   3.882  18.135  0.00  0.00    +0.000 NA
ATOM     29  C   UNL     1      52.748   4.369  17.905  0.00  0.00    +0.000 A 
ATOM     30  N   UNL     1      52.999   5.486  17.152  0.00  0.00    +0.000 N 
ATOM     31  C   UNL     1      52.006   6.195  16.515  0.00  0.00    +0.000 A 
ATOM     32  O   UNL     1      52.274   7.130  15.767  0.00  0.00    +0.000 OA
ATOM     33  C   UNL     1      50.662   5.714  16.776  0.00  0.00    +0.000 A 
ATOM     34  H   UNL     1      53.944   5.799  16.990  0.00  0.00    +0.000 HD
ENDBRANCH  21  24
ENDBRANCH  19  20
ENDBRANCH   4  19
TORSDOF 6
ENDMDL
MODEL 4
REMARK VINA RESULT:    -7.136      1.765      2.476
REMARK INTER + INTRA:         -10.492
REMARK INTER:                  -9.930
REMARK INTRA:                  -0.562
REMARK UNBOUND:                -0.853
REMARK  Name = 
REMARK  7 active torsions:
REMARK  status: ('A' for Active; 'I' for Inactive)
REMARK    1  A    between atoms: C_1  and  C_2
REMARK    2  A    between atoms: C_2  and  N_3
REMARK    3  A    between atoms: C_2  and  C_26
REMARK    4  A    between atoms: C_4  and  C_6
REMARK    5  A    between atoms: C_9  and  C_10
REMARK    6  A    between atoms: C_10  and  N_11
REMARK    7  A    between atoms: C_12  and  C_14
REMARK                            x       y       z     vdW  Elec       q    Type
REMARK                         _______ _______ _______ _____ _____    ______ ____
ROOT
ATOM      1  C   UNL     1      46.644   7.071  13.008  0.00  0.00    +0.000 C 
ATOM      2  C   UNL     1      47.957   6.495  12.446  0.00  0.00    +0.000 C 
ATOM      3  C   UNL     1      48.608   7.380  11.382  0.00  0.00    +0.000 C 
ATOM      4  C   UNL     1      48.794   8.839  11.829  0.00  0.00    +0.000 C 
ATOM      5  C   UNL     1      47.456   9.401  12.327  0.00  0.00    +0.000 C 
ATOM      6  C   UNL     1      46.819   8.541  13.419  0.00  0.00    +0.000 C 
ENDROOT
BRANCH   1   8
ATOM      7  N   UNL     1      45.368   5.576  11.555  0.00  0.00    +0.000 N 
ATOM      8  C   UNL     1      45.453   6.849  12.063  0.00  0.00    +0.000 C 
ATOM      9  O   UNL     1      44.667   7.738  11.750  0.00  0.00    +0.000 OA
ATOM     10  H   UNL     1      46.131   4.917  11.688  0.00  0.00    +0.000 HD
BRANCH   7  12
ATOM     11  C   UNL     1      43.189   4.429  11.347  0.00  0.00    +0.000 C 
ATOM     12  C   UNL     1      44.346   5.116  10.616  0.00  0.00    +0.000 C 
BRANCH  12  13
ATOM     13  C   UNL     1      44.978   4.165   9.591  0.00  0.00    +0.000 A 
ATOM     14  C   UNL     1      44.851   2.782   9.727  0.00  0.00    +0.000 A 
ATOM     15  C   UNL     1      45.464   1.950   8.792  0.00  0.00    +0.000 A 
ATOM     16  C   UNL     1      46.179   2.511   7.741  0.00  0.00    +0.000 A 
ATOM     17  C   UNL     1      46.251   3.891   7.666  0.00  0.00    +0.000 A 
ATOM     18  N   UNL     1      45.672   4.727   8.558  0.00  0.00    +0.000 NA
ENDBRANCH  12  13
ENDBRANCH   7  12
ENDBRANCH   1   8
BRANCH   4  19
ATOM     19  C   UNL     1      49.893   9.024  12.893  0.00  0.00    +0.000 C 
BRANCH  19  20
ATOM     20  N   UNL     1      49.377   8.877  14.236  0.00  0.00    +0.000 N 
ATOM     21  C   UNL     1      49.996   8.116  15.195  0.00  0.00    +0.000 C 
ATOM     22  O   UNL     1      51.036   7.501  14.977  0.00  0.00    +0.000 OA
ATOM     23  H   UNL     1      48.456   9.263  14.421  0.00  0.00    +0.000 HD
BRANCH  21  24
ATOM     24  C   UNL     1      49.380   8.118  16.528  0.00  0.00    +0.000 A 
ATOM     25  C   UNL     1      49.555   9.219  17.356  0.00  0.00    +0.000 A 
ATOM     26  S   UNL     1      48.767   9.075  18.860  0.00  0.00    +0.000 S 
ATOM     27  C   UNL     1      48.203   7.517  18.477  0.00  0.00    +0.000 A 
ATOM     28  N   UNL     1      47.464   6.804  19.369  0.00  0.00    +0.000 NA
ATOM     29  C   UNL     1      47.129   5.626  18.961  0.00  0.00    +0.000 A 
ATOM     30  N   UNL     1      47.448   5.102  17.736  0.00  0.00    +0.000 N 
ATOM     31  C   UNL     1      48.139   5.808  16.779  0.00  0.00    +0.000 A 
ATOM     32  O   UNL     1      48.321   5.346  15.657  0.00  0.00    +0.000 OA
ATOM     33  C   UNL     1      48.578   7.124  17.204  0.00  0.00    +0.000 A 
ATOM     34  H   UNL     1      47.131   4.182  17.469  0.00  0.00    +0.000 HD
ENDBRANCH  21  24
ENDBRANCH  19  20
ENDBRANCH   4  19
TORSDOF 6
ENDMDL
MODEL 5
REMARK VINA RESULT:    -7.062      2.562      3.391
REMARK INTER + INTRA:         -10.392
REMARK INTER:                  -9.178
REMARK INTRA:                  -1.214
REMARK UNBOUND:                -0.853
REMARK  Name = 
REMARK  7 active torsions:
REMARK  status: ('A' for Active; 'I' for Inactive)
REMARK    1  A    between atoms: C_1  and  C_2
REMARK    2  A    between atoms: C_2  and  N_3
REMARK    3  A    between atoms: C_2  and  C_26
REMARK    4  A    between atoms: C_4  and  C_6
REMARK    5  A    between atoms: C_9  and  C_10
REMARK    6  A    between atoms: C_10  and  N_11
REMARK    7  A    between atoms: C_12  and  C_14
REMARK                            x       y       z     vdW  Elec       q    Type
REMARK                         _______ _______ _______ _____ _____    ______ ____
ROOT
ATOM      1  C   UNL     1      47.898   7.605  12.129  0.00  0.00    +0.000 C 
ATOM      2  C   UNL     1      48.030   8.950  12.866  0.00  0.00    +0.000 C 
ATOM      3  C   UNL     1      47.713   8.865  14.360  0.00  0.00    +0.000 C 
ATOM      4  C   UNL     1      48.493   7.759  15.089  0.00  0.00    +0.000 C 
ATOM      5  C   UNL     1      48.293   6.421  14.364  0.00  0.00    +0.000 C 
ATOM      6  C   UNL     1      48.646   6.490  12.879  0.00  0.00    +0.000 C 
ENDROOT
BRANCH   1   8
ATOM      7  N   UNL     1      46.264   5.973  11.330  0.00  0.00    +0.000 N 
ATOM      8  C   UNL     1      46.437   7.245  11.821  0.00  0.00    +0.000 C 
ATOM      9  O   UNL     1      45.506   8.032  11.957  0.00  0.00    +0.000 OA
ATOM     10  H   UNL     1      47.067   5.413  11.058  0.00  0.00    +0.000 HD
BRANCH   7  12
ATOM     11  C   UNL     1      44.265   4.760  12.129  0.00  0.00    +0.000 C 
ATOM     12  C   UNL     1      44.980   5.397  10.934  0.00  0.00    +0.000 C 
BRANCH  12  13
ATOM     13  C   UNL     1      45.200   4.363   9.822  0.00  0.00    +0.000 A 
ATOM     14  C   UNL     1      44.822   3.031  10.000  0.00  0.00    +0.000 A 
ATOM     15  C   UNL     1      45.065   2.115   8.978  0.00  0.00    +0.000 A 
ATOM     16  C   UNL     1      45.667   2.545   7.802  0.00  0.00    +0.000 A 
ATOM     17  C   UNL     1      46.003   3.883   7.695  0.00  0.00    +0.000 A 
ATOM     18  N   UNL     1      45.785   4.797   8.667  0.00  0.00    +0.000 NA
ENDBRANCH  12  13
ENDBRANCH   7  12
ENDBRANCH   1   8
BRANCH   4  19
ATOM     19  C   UNL     1      49.993   8.069  15.257  0.00  0.00    +0.000 C 
BRANCH  19  20
ATOM     20  N   UNL     1      50.730   6.927  15.752  0.00  0.00    +0.000 N 
ATOM     21  C   UNL     1      50.993   6.730  17.084  0.00  0.00    +0.000 C 
ATOM     22  O   UNL     1      50.622   7.515  17.952  0.00  0.00    +0.000 OA
ATOM     23  H   UNL     1      51.163   6.322  15.061  0.00  0.00    +0.000 HD
BRANCH  21  24
ATOM     24  C   UNL     1      51.699   5.491  17.433  0.00  0.00    +0.000 A 
ATOM     25  C   UNL     1      53.021   5.555  17.854  0.00  0.00    +0.000 A 
ATOM     26  S   UNL     1      53.692   4.036  18.235  0.00  0.00    +0.000 S 
ATOM     27  C   UNL     1      52.256   3.234  17.807  0.00  0.00    +0.000 A 
ATOM     28  N   UNL     1      52.167   1.877  17.879  0.00  0.00    +0.000 NA
ATOM     29  C   UNL     1      51.031   1.397  17.496  0.00  0.00    +0.000 A 
ATOM     30  N   UNL     1      49.970   2.149  17.064  0.00  0.00    +0.000 N 
ATOM     31  C   UNL     1      49.992   3.524  17.032  0.00  0.00    +0.000 A 
ATOM     32  O   UNL     1      48.991   4.169  16.736  0.00  0.00    +0.000 OA
ATOM     33  C   UNL     1      51.263   4.113  17.414  0.00  0.00    +0.000 A 
ATOM     34  H   UNL     1      49.099   1.711  16.803  0.00  0.00    +0.000 HD
ENDBRANCH  21  24
ENDBRANCH  19  20
ENDBRANCH   4  19
TORSDOF 6
ENDMDL
MODEL 6
REMARK VINA RESULT:    -6.908      4.198      5.600
REMARK INTER + INTRA:         -10.185
REMARK INTER:                  -8.949
REMARK INTRA:                  -1.236
REMARK UNBOUND:                -0.853
REMARK  Name = 
REMARK  7 active torsions:
REMARK  status: ('A' for Active; 'I' for Inactive)
REMARK    1  A    between atoms: C_1  and  C_2
REMARK    2  A    between atoms: C_2  and  N_3
REMARK    3  A    between atoms: C_2  and  C_26
REMARK    4  A    between atoms: C_4  and  C_6
REMARK    5  A    between atoms: C_9  and  C_10
REMARK    6  A    between atoms: C_10  and  N_11
REMARK    7  A    between atoms: C_12  and  C_14
REMARK                            x       y       z     vdW  Elec       q    Type
REMARK                         _______ _______ _______ _____ _____    ______ ____
ROOT
ATOM      1  C   UNL     1      46.158   6.928  12.927  0.00  0.00    +0.000 C 
ATOM      2  C   UNL     1      47.590   6.508  12.552  0.00  0.00    +0.000 C 
ATOM      3  C   UNL     1      48.236   7.409  11.498  0.00  0.00    +0.000 C 
ATOM      4  C   UNL     1      48.175   8.904  11.850  0.00  0.00    +0.000 C 
ATOM      5  C   UNL     1      46.727   9.303  12.162  0.00  0.00    +0.000 C 
ATOM      6  C   UNL     1      46.089   8.431  13.243  0.00  0.00    +0.000 C 
ENDROOT
BRANCH   1   8
ATOM      7  N   UNL     1      45.014   5.124  11.741  0.00  0.00    +0.000 N 
ATOM      8  C   UNL     1      45.122   6.486  11.883  0.00  0.00    +0.000 C 
ATOM      9  O   UNL     1      44.475   7.273  11.200  0.00  0.00    +0.000 OA
ATOM     10  H   UNL     1      45.687   4.505  12.185  0.00  0.00    +0.000 HD
BRANCH   7  12
ATOM     11  C   UNL     1      43.267   3.392  11.501  0.00  0.00    +0.000 C 
ATOM     12  C   UNL     1      44.123   4.449  10.798  0.00  0.00    +0.000 C 
BRANCH  12  13
ATOM     13  C   UNL     1      44.950   3.813   9.673  0.00  0.00    +0.000 A 
ATOM     14  C   UNL     1      45.615   4.608   8.738  0.00  0.00    +0.000 A 
ATOM     15  C   UNL     1      46.333   3.995   7.713  0.00  0.00    +0.000 A 
ATOM     16  C   UNL     1      46.381   2.608   7.648  0.00  0.00    +0.000 A 
ATOM     17  C   UNL     1      45.706   1.886   8.616  0.00  0.00    +0.000 A 
ATOM     18  N   UNL     1      44.998   2.449   9.621  0.00  0.00    +0.000 NA
ENDBRANCH  12  13
ENDBRANCH   7  12
ENDBRANCH   1   8
BRANCH   4  19
ATOM     19  C   UNL     1      49.112   9.305  13.006  0.00  0.00    +0.000 C 
BRANCH  19  20
ATOM     20  N   UNL     1      50.505   9.241  12.620  0.00  0.00    +0.000 N 
ATOM     21  C   UNL     1      51.444   8.535  13.329  0.00  0.00    +0.000 C 
ATOM     22  O   UNL     1      51.166   7.907  14.347  0.00  0.00    +0.000 OA
ATOM     23  H   UNL     1      50.802   9.847  11.861  0.00  0.00    +0.000 HD
BRANCH  21  24
ATOM     24  C   UNL     1      52.803   8.518  12.773  0.00  0.00    +0.000 A 
ATOM     25  C   UNL     1      53.856   9.010  13.534  0.00  0.00    +0.000 A 
ATOM     26  S   UNL     1      55.368   8.907  12.757  0.00  0.00    +0.000 S 
ATOM     27  C   UNL     1      54.665   8.244  11.358  0.00  0.00    +0.000 A 
ATOM     28  N   UNL     1      55.427   7.939  10.272  0.00  0.00    +0.000 NA
ATOM     29  C   UNL     1      54.761   7.472   9.269  0.00  0.00    +0.000 A 
ATOM     30  N   UNL     1      53.406   7.266   9.258  0.00  0.00    +0.000 N 
ATOM     31  C   UNL     1      52.605   7.501  10.351  0.00  0.00    +0.000 A 
ATOM     32  O   UNL     1      51.413   7.211  10.340  0.00  0.00    +0.000 OA
ATOM     33  C   UNL     1      53.299   8.068  11.493  0.00  0.00    +0.000 A 
ATOM     34  H   UNL     1      52.950   6.872   8.448  0.00  0.00    +0.000 HD
ENDBRANCH  21  24
ENDBRANCH  19  20
ENDBRANCH   4  19
TORSDOF 6
ENDMDL
MODEL 7
REMARK VINA RESULT:    -6.855      2.942      8.944
REMARK INTER + INTRA:         -10.113
REMARK INTER:                  -8.771
REMARK INTRA:                  -1.341
REMARK UNBOUND:                -0.853
REMARK  Name = 
REMARK  7 active torsions:
REMARK  status: ('A' for Active; 'I' for Inactive)
REMARK    1  A    between atoms: C_1  and  C_2
REMARK    2  A    between atoms: C_2  and  N_3
REMARK    3  A    between atoms: C_2  and  C_26
REMARK    4  A    between atoms: C_4  and  C_6
REMARK    5  A    between atoms: C_9  and  C_10
REMARK    6  A    between atoms: C_10  and  N_11
REMARK    7  A    between atoms: C_12  and  C_14
REMARK                            x       y       z     vdW  Elec       q    Type
REMARK                         _______ _______ _______ _____ _____    ______ ____
ROOT
ATOM      1  C   UNL     1      49.879   8.054  12.955  0.00  0.00    +0.000 C 
ATOM      2  C   UNL     1      48.946   6.831  13.002  0.00  0.00    +0.000 C 
ATOM      3  C   UNL     1      47.623   7.099  13.723  0.00  0.00    +0.000 C 
ATOM      4  C   UNL     1      46.880   8.339  13.199  0.00  0.00    +0.000 C 
ATOM      5  C   UNL     1      47.821   9.551  13.220  0.00  0.00    +0.000 C 
ATOM      6  C   UNL     1      49.128   9.303  12.468  0.00  0.00    +0.000 C 
ENDROOT
BRANCH   1   8
ATOM      7  N   UNL     1      50.775   7.143  15.038  0.00  0.00    +0.000 N 
ATOM      8  C   UNL     1      50.622   8.279  14.280  0.00  0.00    +0.000 C 
ATOM      9  O   UNL     1      51.009   9.380  14.657  0.00  0.00    +0.000 OA
ATOM     10  H   UNL     1      50.288   6.287  14.787  0.00  0.00    +0.000 HD
BRANCH   7  12
ATOM     11  C   UNL     1      52.850   6.554  16.245  0.00  0.00    +0.000 C 
ATOM     12  C   UNL     1      51.421   7.093  16.349  0.00  0.00    +0.000 C 
BRANCH  12  13
ATOM     13  C   UNL     1      50.585   6.228  17.302  0.00  0.00    +0.000 A 
ATOM     14  C   UNL     1      49.333   5.748  16.917  0.00  0.00    +0.000 A 
ATOM     15  C   UNL     1      48.590   4.989  17.820  0.00  0.00    +0.000 A 
ATOM     16  C   UNL     1      49.113   4.718  19.078  0.00  0.00    +0.000 A 
ATOM     17  C   UNL     1      50.366   5.219  19.384  0.00  0.00    +0.000 A 
ATOM     18  N   UNL     1      51.111   5.961  18.534  0.00  0.00    +0.000 NA
ENDBRANCH  12  13
ENDBRANCH   7  12
ENDBRANCH   1   8
BRANCH   4  19
ATOM     19  C   UNL     1      46.269   8.147  11.798  0.00  0.00    +0.000 C 
BRANCH  19  20
ATOM     20  N   UNL     1      45.866   6.777  11.567  0.00  0.00    +0.000 N 
ATOM     21  C   UNL     1      44.563   6.409  11.349  0.00  0.00    +0.000 C 
ATOM     22  O   UNL     1      43.642   7.221  11.337  0.00  0.00    +0.000 OA
ATOM     23  H   UNL     1      46.574   6.060  11.695  0.00  0.00    +0.000 HD
BRANCH  21  24
ATOM     24  C   UNL     1      44.324   4.987  11.069  0.00  0.00    +0.000 A 
ATOM     25  C   UNL     1      43.529   4.247  11.933  0.00  0.00    +0.000 A 
ATOM     26  S   UNL     1      43.337   2.620  11.464  0.00  0.00    +0.000 S 
ATOM     27  C   UNL     1      44.348   2.835  10.113  0.00  0.00    +0.000 A 
ATOM     28  N   UNL     1      44.628   1.796   9.280  0.00  0.00    +0.000 NA
ATOM     29  C   UNL     1      45.432   2.091   8.314  0.00  0.00    +0.000 A 
ATOM     30  N   UNL     1      45.968   3.333   8.093  0.00  0.00    +0.000 N 
ATOM     31  C   UNL     1      45.665   4.426   8.871  0.00  0.00    +0.000 A 
ATOM     32  O   UNL     1      46.082   5.544   8.586  0.00  0.00    +0.000 OA
ATOM     33  C   UNL     1      44.797   4.139   9.998  0.00  0.00    +0.000 A 
ATOM     34  H   UNL     1      46.570   3.503   7.301  0.00  0.00    +0.000 HD
ENDBRANCH  21  24
ENDBRANCH  19  20
ENDBRANCH   4  19
TORSDOF 6
ENDMDL
MODEL 8
REMARK VINA RESULT:    -6.805      2.311      2.691
REMARK INTER + INTRA:         -10.046
REMARK INTER:                  -9.197
REMARK INTRA:                  -0.849
REMARK UNBOUND:                -0.853
REMARK  Name = 
REMARK  7 active torsions:
REMARK  status: ('A' for Active; 'I' for Inactive)
REMARK    1  A    between atoms: C_1  and  C_2
REMARK    2  A    between atoms: C_2  and  N_3
REMARK    3  A    between atoms: C_2  and  C_26
REMARK    4  A    between atoms: C_4  and  C_6
REMARK    5  A    between atoms: C_9  and  C_10
REMARK    6  A    between atoms: C_10  and  N_11
REMARK    7  A    between atoms: C_12  and  C_14
REMARK                            x       y       z     vdW  Elec       q    Type
REMARK                         _______ _______ _______ _____ _____    ______ ____
ROOT
ATOM      1  C   UNL     1      45.590   5.398  13.511  0.00  0.00    +0.000 C 
ATOM      2  C   UNL     1      46.997   5.249  14.118  0.00  0.00    +0.000 C 
ATOM      3  C   UNL     1      48.125   5.566  13.134  0.00  0.00    +0.000 C 
ATOM      4  C   UNL     1      47.967   6.928  12.439  0.00  0.00    +0.000 C 
ATOM      5  C   UNL     1      46.577   7.021  11.794  0.00  0.00    +0.000 C 
ATOM      6  C   UNL     1      45.444   6.744  12.782  0.00  0.00    +0.000 C 
ENDROOT
BRANCH   1   8
ATOM      7  N   UNL     1      44.258   4.486  11.677  0.00  0.00    +0.000 N 
ATOM      8  C   UNL     1      45.196   4.198  12.638  0.00  0.00    +0.000 C 
ATOM      9  O   UNL     1      45.643   3.067  12.806  0.00  0.00    +0.000 OA
ATOM     10  H   UNL     1      43.776   5.380  11.680  0.00  0.00    +0.000 HD
BRANCH   7  12
ATOM     11  C   UNL     1      43.334   2.205  11.443  0.00  0.00    +0.000 C 
ATOM     12  C   UNL     1      43.697   3.515  10.738  0.00  0.00    +0.000 C 
BRANCH  12  13
ATOM     13  C   UNL     1      44.698   3.259   9.603  0.00  0.00    +0.000 A 
ATOM     14  C   UNL     1      45.198   4.315   8.840  0.00  0.00    +0.000 A 
ATOM     15  C   UNL     1      46.083   4.040   7.799  0.00  0.00    +0.000 A 
ATOM     16  C   UNL     1      46.457   2.726   7.548  0.00  0.00    +0.000 A 
ATOM     17  C   UNL     1      45.928   1.733   8.354  0.00  0.00    +0.000 A 
ATOM     18  N   UNL     1      45.065   1.965   9.369  0.00  0.00    +0.000 NA
ENDBRANCH  12  13
ENDBRANCH   7  12
ENDBRANCH   1   8
BRANCH   4  19
ATOM     19  C   UNL     1      48.218   8.130  13.370  0.00  0.00    +0.000 C 
BRANCH  19  20
ATOM     20  N   UNL     1      49.443   7.982  14.125  0.00  0.00    +0.000 N 
ATOM     21  C   UNL     1      49.789   8.818  15.156  0.00  0.00    +0.000 C 
ATOM     22  O   UNL     1      49.080   9.756  15.510  0.00  0.00    +0.000 OA
ATOM     23  H   UNL     1      50.115   7.301  13.785  0.00  0.00    +0.000 HD
BRANCH  21  24
ATOM     24  C   UNL     1      51.035   8.499  15.865  0.00  0.00    +0.000 A 
ATOM     25  C   UNL     1      52.023   9.468  15.974  0.00  0.00    +0.000 A 
ATOM     26  S   UNL     1      53.399   8.949  16.835  0.00  0.00    +0.000 S 
ATOM     27  C   UNL     1      52.743   7.395  17.052  0.00  0.00    +0.000 A 
ATOM     28  N   UNL     1      53.442   6.428  17.706  0.00  0.00    +0.000 NA
ATOM     29  C   UNL     1      52.840   5.288  17.773  0.00  0.00    +0.000 A 
ATOM     30  N   UNL     1      51.595   5.030  17.261  0.00  0.00    +0.000 N 
ATOM     31  C   UNL     1      50.826   5.992  16.647  0.00  0.00    +0.000 A 
ATOM     32  O   UNL     1      49.677   5.754  16.290  0.00  0.00    +0.000 OA
ATOM     33  C   UNL     1      51.475   7.282  16.508  0.00  0.00    +0.000 A 
ATOM     34  H   UNL     1      51.169   4.122  17.371  0.00  0.00    +0.000 HD
ENDBRANCH  21  24
ENDBRANCH  19  20
ENDBRANCH   4  19
TORSDOF 6
ENDMDL
MODEL 9
REMARK VINA RESULT:    -6.519      4.715      8.184
REMARK INTER + INTRA:          -9.660
REMARK INTER:                  -8.709
REMARK INTRA:                  -0.950
REMARK UNBOUND:                -0.853
REMARK  Name = 
REMARK  7 active torsions:
REMARK  status: ('A' for Active; 'I' for Inactive)
REMARK    1  A    between atoms: C_1  and  C_2
REMARK    2  A    between atoms: C_2  and  N_3
REMARK    3  A    between atoms: C_2  and  C_26
REMARK    4  A    between atoms: C_4  and  C_6
REMARK    5  A    between atoms: C_9  and  C_10
REMARK    6  A    between atoms: C_10  and  N_11
REMARK    7  A    between atoms: C_12  and  C_14
REMARK                            x       y       z     vdW  Elec       q    Type
REMARK                         _______ _______ _______ _____ _____    ______ ____
ROOT
ATOM      1  C   UNL     1      49.571   9.261  11.649  0.00  0.00    +0.000 C 
ATOM      2  C   UNL     1      49.011   7.847  11.415  0.00  0.00    +0.000 C 
ATOM      3  C   UNL     1      48.826   7.040  12.702  0.00  0.00    +0.000 C 
ATOM      4  C   UNL     1      48.017   7.782  13.778  0.00  0.00    +0.000 C 
ATOM      5  C   UNL     1      48.636   9.163  14.030  0.00  0.00    +0.000 C 
ATOM      6  C   UNL     1      48.787   9.989  12.753  0.00  0.00    +0.000 C 
ENDROOT
BRANCH   1   8
ATOM      7  N   UNL     1      51.810   8.597  10.929  0.00  0.00    +0.000 N 
ATOM      8  C   UNL     1      51.088   9.259  11.892  0.00  0.00    +0.000 C 
ATOM      9  O   UNL     1      51.613   9.766  12.879  0.00  0.00    +0.000 OA
ATOM     10  H   UNL     1      51.337   8.036  10.226  0.00  0.00    +0.000 HD
BRANCH   7  12
ATOM     11  C   UNL     1      53.974   9.717  10.516  0.00  0.00    +0.000 C 
ATOM     12  C   UNL     1      53.263   8.429  10.941  0.00  0.00    +0.000 C 
BRANCH  12  13
ATOM     13  C   UNL     1      53.654   7.266  10.020  0.00  0.00    +0.000 A 
ATOM     14  C   UNL     1      53.053   7.112   8.770  0.00  0.00    +0.000 A 
ATOM     15  C   UNL     1      53.412   6.026   7.973  0.00  0.00    +0.000 A 
ATOM     16  C   UNL     1      54.368   5.129   8.432  0.00  0.00    +0.000 A 
ATOM     17  C   UNL     1      54.929   5.354   9.676  0.00  0.00    +0.000 A 
ATOM     18  N   UNL     1      54.600   6.393  10.476  0.00  0.00    +0.000 NA
ENDBRANCH  12  13
ENDBRANCH   7  12
ENDBRANCH   1   8
BRANCH   4  19
ATOM     19  C   UNL     1      46.518   7.909  13.446  0.00  0.00    +0.000 C 
BRANCH  19  20
ATOM     20  N   UNL     1      45.948   6.647  13.028  0.00  0.00    +0.000 N 
ATOM     21  C   UNL     1      45.054   6.538  11.993  0.00  0.00    +0.000 C 
ATOM     22  O   UNL     1      44.672   7.510  11.348  0.00  0.00    +0.000 OA
ATOM     23  H   UNL     1      46.137   5.838  13.614  0.00  0.00    +0.000 HD
BRANCH  21  24
ATOM     24  C   UNL     1      44.614   5.179  11.651  0.00  0.00    +0.000 A 
ATOM     25  C   UNL     1      43.872   4.452  12.572  0.00  0.00    +0.000 A 
ATOM     26  S   UNL     1      43.427   2.902  12.021  0.00  0.00    +0.000 S 
ATOM     27  C   UNL     1      44.250   3.130  10.551  0.00  0.00    +0.000 A 
ATOM     28  N   UNL     1      44.284   2.145   9.612  0.00  0.00    +0.000 NA
ATOM     29  C   UNL     1      44.969   2.439   8.557  0.00  0.00    +0.000 A 
ATOM     30  N   UNL     1      45.608   3.633   8.347  0.00  0.00    +0.000 N 
ATOM     31  C   UNL     1      45.549   4.679   9.240  0.00  0.00    +0.000 A 
ATOM     32  O   UNL     1      46.048   5.768   8.975  0.00  0.00    +0.000 OA
ATOM     33  C   UNL     1      44.826   4.385  10.463  0.00  0.00    +0.000 A 
ATOM     34  H   UNL     1      46.105   3.809   7.487  0.00  0.00    +0.000 HD
ENDBRANCH  21  24
ENDBRANCH  19  20
ENDBRANCH   4  19
TORSDOF 6
ENDMDL
