MODEL 1
REMARK VINA RESULT:    -6.407      0.000      0.000
REMARK INTER + INTRA:          -9.358
REMARK INTER:                  -8.280
REMARK INTRA:                  -1.078
REMARK UNBOUND:                -1.078
REMARK  Name = 
REMARK  8 active torsions:
REMARK  status: ('A' for Active; 'I' for Inactive)
REMARK    1  A    between atoms: C_1  and  N_2
REMARK    2  A    between atoms: C_3  and  C_5
REMARK    3  A    between atoms: C_8  and  O_9
REMARK    4  A    between atoms: O_9  and  C_10
REMARK    5  A    between atoms: C_10  and  C_11
REMARK    6  A    between atoms: C_11  and  C_12
REMARK    7  A    between atoms: C_11  and  C_13
REMARK    8  A    between atoms: C_11  and  C_14
REMARK                            x       y       z     vdW  Elec       q    Type
REMARK                         _______ _______ _______ _____ _____    ______ ____
ROOT
ATOM      1  C   UNL     1      48.450   7.881  12.435  0.00  0.00    +0.000 A 
ATOM      2  C   UNL     1      47.244   8.561  12.234  0.00  0.00    +0.000 A 
ATOM      3  C   UNL     1      46.024   7.897  12.401  0.00  0.00    +0.000 A 
ATOM      4  C   UNL     1      45.996   6.548  12.762  0.00  0.00    +0.000 A 
ATOM      5  C   UNL     1      47.201   5.867  12.951  0.00  0.00    +0.000 A 
ATOM      6  C   UNL     1      48.425   6.527  12.784  0.00  0.00    +0.000 A 
ENDROOT
BRANCH   1   9
ATOM      7  C   UNL     1      52.127   8.294  11.648  0.00  0.00    +0.000 C 
ATOM      8  N   UNL     1      50.819   7.739  11.868  0.00  0.00    +0.000 N 
ATOM      9  C   UNL     1      49.762   8.550  12.242  0.00  0.00    +0.000 C 
ATOM     10  O   UNL     1      49.868   9.763  12.393  0.00  0.00    +0.000 OA
ATOM     11  H   UNL     1      50.641   6.789  11.577  0.00  0.00    +0.000 HD
ENDBRANCH   1   9
BRANCH   4  12
ATOM     12  O   UNL     1      44.865   5.801  12.946  0.00  0.00    +0.000 OA
BRANCH  12  13
ATOM     13  C   UNL     1      44.959   4.396  12.667  0.00  0.00    +0.000 C 
BRANCH  13  14
ATOM     14  C   UNL     1      43.989   3.987  11.521  0.00  0.00    +0.000 C 
ATOM     15  C   UNL     1      43.293   2.654  11.883  0.00  0.00    +0.000 C 
ATOM     16  C   UNL     1      42.882   5.065  11.418  0.00  0.00    +0.000 C 
BRANCH  14  17
ATOM     17  C   UNL     1      44.772   3.808  10.201  0.00  0.00    +0.000 A 
ATOM     18  C   UNL     1      44.864   2.544   9.584  0.00  0.00    +0.000 A 
ATOM     19  C   UNL     1      45.515   2.376   8.356  0.00  0.00    +0.000 A 
ATOM     20  C   UNL     1      46.095   3.467   7.718  0.00  0.00    +0.000 A 
ATOM     21  C   UNL     1      46.044   4.719   8.316  0.00  0.00    +0.000 A 
ATOM     22  C   UNL     1      45.394   4.885   9.544  0.00  0.00    +0.000 A 
ENDBRANCH  14  17
ENDBRANCH  13  14
ENDBRANCH  12  13
ENDBRANCH   4  12
TORSDOF 5
ENDMDL
MODEL 2
REMARK VINA RESULT:    -6.271      1.318      1.674
REMARK INTER + INTRA:          -9.182
REMARK INTER:                  -8.301
REMARK INTRA:                  -0.881
REMARK UNBOUND:                -1.078
REMARK  Name = 
REMARK  8 active torsions:
REMARK  status: ('A' for Active; 'I' for Inactive)
REMARK    1  A    between atoms: C_1  and  N_2
REMARK    2  A    between atoms: C_3  and  C_5
REMARK    3  A    between atoms: C_8  and  O_9
REMARK    4  A    between atoms: O_9  and  C_10
REMARK    5  A    between atoms: C_10  and  C_11
REMARK    6  A    between atoms: C_11  and  C_12
REMARK    7  A    between atoms: C_11  and  C_13
REMARK    8  A    between atoms: C_11  and  C_14
REMARK                            x       y       z     vdW  Elec       q    Type
REMARK                         _______ _______ _______ _____ _____    ______ ____
ROOT
ATOM      1  C   UNL     1      47.662   8.939  12.088  0.00  0.00    +0.000 A 
ATOM      2  C   UNL     1      48.029   7.600  11.914  0.00  0.00    +0.000 A 
ATOM      3  C   UNL     1      47.087   6.581  12.100  0.00  0.00    +0.000 A 
ATOM      4  C   UNL     1      45.776   6.889  12.468  0.00  0.00    +0.000 A 
ATOM      5  C   UNL     1      45.414   8.225  12.652  0.00  0.00    +0.000 A 
ATOM      6  C   UNL     1      46.352   9.248  12.469  0.00  0.00    +0.000 A 
ENDROOT
BRANCH   1   9
ATOM      7  C   UNL     1      50.572  11.229  12.862  0.00  0.00    +0.000 C 
ATOM      8  N   UNL     1      49.574  10.196  12.935  0.00  0.00    +0.000 N 
ATOM      9  C   UNL     1      48.643  10.042  11.923  0.00  0.00    +0.000 C 
ATOM     10  O   UNL     1      48.618  10.750  10.922  0.00  0.00    +0.000 OA
ATOM     11  H   UNL     1      49.671   9.478  13.639  0.00  0.00    +0.000 HD
ENDBRANCH   1   9
BRANCH   4  12
ATOM     12  O   UNL     1      44.779   5.976  12.680  0.00  0.00    +0.000 OA
BRANCH  12  13
ATOM     13  C   UNL     1      45.055   4.614  12.321  0.00  0.00    +0.000 C 
BRANCH  13  14
ATOM     14  C   UNL     1      44.081   4.119  11.214  0.00  0.00    +0.000 C 
ATOM     15  C   UNL     1      43.292   2.893  11.729  0.00  0.00    +0.000 C 
ATOM     16  C   UNL     1      43.050   5.242  10.941  0.00  0.00    +0.000 C 
BRANCH  14  17
ATOM     17  C   UNL     1      44.873   3.716   9.950  0.00  0.00    +0.000 A 
ATOM     18  C   UNL     1      45.010   2.361   9.587  0.00  0.00    +0.000 A 
ATOM     19  C   UNL     1      45.670   1.983   8.412  0.00  0.00    +0.000 A 
ATOM     20  C   UNL     1      46.216   2.950   7.574  0.00  0.00    +0.000 A 
ATOM     21  C   UNL     1      46.120   4.291   7.922  0.00  0.00    +0.000 A 
ATOM     22  C   UNL     1      45.461   4.668   9.096  0.00  0.00    +0.000 A 
ENDBRANCH  14  17
ENDBRANCH  13  14
ENDBRANCH  12  13
ENDBRANCH   4  12
TORSDOF 5
ENDMDL
MODEL 3
REMARK VINA RESULT:    -6.199      3.345      6.149
REMARK INTER + INTRA:          -9.089
REMARK INTER:                  -8.025
REMARK INTRA:                  -1.064
REMARK UNBOUND:                -1.078
REMARK  Name = 
REMARK  8 active torsions:
REMARK  status: ('A' for Active; 'I' for Inactive)
REMARK    1  A    between atoms: C_1  and  N_2
REMARK    2  A    between atoms: C_3  and  C_5
REMARK    3  A    between atoms: C_8  and  O_9
REMARK    4  A    between atoms: O_9  and  C_10
REMARK    5  A    between atoms: C_10  and  C_11
REMARK    6  A    between atoms: C_11  and  C_12
REMARK    7  A    between atoms: C_11  and  C_13
REMARK    8  A    between atoms: C_11  and  C_14
REMARK                            x       y       z     vdW  Elec       q    Type
REMARK                         _______ _______ _______ _____ _____    ______ ____
ROOT
ATOM      1  C   UNL     1      46.294   2.469   7.613  0.00  0.00    +0.000 A 
ATOM      2  C   UNL     1      45.768   1.494   8.467  0.00  0.00    +0.000 A 
ATOM      3  C   UNL     1      44.759   1.825   9.379  0.00  0.00    +0.000 A 
ATOM      4  C   UNL     1      44.272   3.132   9.451  0.00  0.00    +0.000 A 
ATOM      5  C   UNL     1      44.806   4.107   8.605  0.00  0.00    +0.000 A 
ATOM      6  C   UNL     1      45.816   3.781   7.693  0.00  0.00    +0.000 A 
ENDROOT
BRANCH   1   9
ATOM      7  C   UNL     1      48.342   2.572   4.434  0.00  0.00    +0.000 C 
ATOM      8  N   UNL     1      47.328   2.801   5.428  0.00  0.00    +0.000 N 
ATOM      9  C   UNL     1      47.382   2.157   6.652  0.00  0.00    +0.000 C 
ATOM     10  O   UNL     1      48.281   1.382   6.963  0.00  0.00    +0.000 OA
ATOM     11  H   UNL     1      46.680   3.563   5.293  0.00  0.00    +0.000 HD
ENDBRANCH   1   9
BRANCH   4  12
ATOM     12  O   UNL     1      43.294   3.566  10.305  0.00  0.00    +0.000 OA
BRANCH  12  13
ATOM     13  C   UNL     1      43.532   3.390  11.709  0.00  0.00    +0.000 C 
BRANCH  13  14
ATOM     14  C   UNL     1      43.579   4.760  12.444  0.00  0.00    +0.000 C 
ATOM     15  C   UNL     1      42.700   5.784  11.688  0.00  0.00    +0.000 C 
ATOM     16  C   UNL     1      42.957   4.576  13.850  0.00  0.00    +0.000 C 
BRANCH  14  17
ATOM     17  C   UNL     1      45.032   5.284  12.498  0.00  0.00    +0.000 A 
ATOM     18  C   UNL     1      45.546   6.093  11.464  0.00  0.00    +0.000 A 
ATOM     19  C   UNL     1      46.838   6.627  11.529  0.00  0.00    +0.000 A 
ATOM     20  C   UNL     1      47.651   6.361  12.625  0.00  0.00    +0.000 A 
ATOM     21  C   UNL     1      47.180   5.545  13.645  0.00  0.00    +0.000 A 
ATOM     22  C   UNL     1      45.890   5.010  13.579  0.00  0.00    +0.000 A 
ENDBRANCH  14  17
ENDBRANCH  13  14
ENDBRANCH  12  13
ENDBRANCH   4  12
TORSDOF 5
ENDMDL
MODEL 4
REMARK VINA RESULT:    -6.057      3.533      4.178
REMARK INTER + INTRA:          -8.906
REMARK INTER:                  -8.207
REMARK INTRA:                  -0.699
REMARK UNBOUND:                -1.078
REMARK  Name = 
REMARK  8 active torsions:
REMARK  status: ('A' for Active; 'I' for Inactive)
REMARK    1  A    between atoms: C_1  and  N_2
REMARK    2  A    between atoms: C_3  and  C_5
REMARK    3  A    between atoms: C_8  and  O_9
REMARK    4  A    between atoms: O_9  and  C_10
REMARK    5  A    between atoms: C_10  and  C_11
REMARK    6  A    between atoms: C_11  and  C_12
REMARK    7  A    between atoms: C_11  and  C_13
REMARK    8  A    between atoms: C_11  and  C_14
REMARK                            x       y       z     vdW  Elec       q    Type
REMARK                         _______ _______ _______ _____ _____    ______ ____
ROOT
ATOM      1  C   UNL     1      48.281   5.222  16.594  0.00  0.00    +0.000 A 
ATOM      2  C   UNL     1      48.484   6.272  15.693  0.00  0.00    +0.000 A 
ATOM      3  C   UNL     1      47.913   6.225  14.416  0.00  0.00    +0.000 A 
ATOM      4  C   UNL     1      47.142   5.128  14.025  0.00  0.00    +0.000 A 
ATOM      5  C   UNL     1      46.950   4.075  14.923  0.00  0.00    +0.000 A 
ATOM      6  C   UNL     1      47.520   4.117  16.201  0.00  0.00    +0.000 A 
ENDROOT
BRANCH   1   9
ATOM      7  C   UNL     1      48.645   4.637  20.314  0.00  0.00    +0.000 C 
ATOM      8  N   UNL     1      48.135   4.685  18.970  0.00  0.00    +0.000 N 
ATOM      9  C   UNL     1      48.893   5.229  17.947  0.00  0.00    +0.000 C 
ATOM     10  O   UNL     1      50.022   5.679  18.116  0.00  0.00    +0.000 OA
ATOM     11  H   UNL     1      47.300   4.162  18.749  0.00  0.00    +0.000 HD
ENDBRANCH   1   9
BRANCH   4  12
ATOM     12  O   UNL     1      46.543   4.976  12.804  0.00  0.00    +0.000 OA
BRANCH  12  13
ATOM     13  C   UNL     1      45.145   4.654  12.801  0.00  0.00    +0.000 C 
BRANCH  13  14
ATOM     14  C   UNL     1      44.456   5.168  11.504  0.00  0.00    +0.000 C 
ATOM     15  C   UNL     1      42.920   5.086  11.666  0.00  0.00    +0.000 C 
ATOM     16  C   UNL     1      44.815   6.664  11.327  0.00  0.00    +0.000 C 
BRANCH  14  17
ATOM     17  C   UNL     1      44.884   4.304  10.296  0.00  0.00    +0.000 A 
ATOM     18  C   UNL     1      44.586   2.928  10.253  0.00  0.00    +0.000 A 
ATOM     19  C   UNL     1      44.911   2.145   9.139  0.00  0.00    +0.000 A 
ATOM     20  C   UNL     1      45.548   2.718   8.043  0.00  0.00    +0.000 A 
ATOM     21  C   UNL     1      45.878   4.066   8.070  0.00  0.00    +0.000 A 
ATOM     22  C   UNL     1      45.554   4.847   9.184  0.00  0.00    +0.000 A 
ENDBRANCH  14  17
ENDBRANCH  13  14
ENDBRANCH  12  13
ENDBRANCH   4  12
TORSDOF 5
ENDMDL
MODEL 5
REMARK VINA RESULT:    -5.910      2.735      3.714
REMARK INTER + INTRA:          -8.715
REMARK INTER:                  -8.250
REMARK INTRA:                  -0.465
REMARK UNBOUND:                -1.078
REMARK  Name = 
REMARK  8 active torsions:
REMARK  status: ('A' for Active; 'I' for Inactive)
REMARK    1  A    between atoms: C_1  and  N_2
REMARK    2  A    between atoms: C_3  and  C_5
REMARK    3  A    between atoms: C_8  and  O_9
REMARK    4  A    between atoms: O_9  and  C_10
REMARK    5  A    between atoms: C_10  and  C_11
REMARK    6  A    between atoms: C_11  and  C_12
REMARK    7  A    between atoms: C_11  and  C_13
REMARK    8  A    between atoms: C_11  and  C_14
REMARK                            x       y       z     vdW  Elec       q    Type
REMARK                         _______ _______ _______ _____ _____    ______ ____
ROOT
ATOM      1  C   UNL     1      47.407   5.406  14.419  0.00  0.00    +0.000 A 
ATOM      2  C   UNL     1      47.148   4.047  14.221  0.00  0.00    +0.000 A 
ATOM      3  C   UNL     1      46.259   3.637  13.221  0.00  0.00    +0.000 A 
ATOM      4  C   UNL     1      45.616   4.580  12.417  0.00  0.00    +0.000 A 
ATOM      5  C   UNL     1      45.867   5.939  12.624  0.00  0.00    +0.000 A 
ATOM      6  C   UNL     1      46.754   6.354  13.624  0.00  0.00    +0.000 A 
ENDROOT
BRANCH   1   9
ATOM      7  C   UNL     1      48.686   6.188  17.893  0.00  0.00    +0.000 C 
ATOM      8  N   UNL     1      47.865   5.769  16.789  0.00  0.00    +0.000 N 
ATOM      9  C   UNL     1      48.326   5.876  15.488  0.00  0.00    +0.000 C 
ATOM     10  O   UNL     1      49.438   6.309  15.204  0.00  0.00    +0.000 OA
ATOM     11  H   UNL     1      47.029   5.237  16.980  0.00  0.00    +0.000 HD
ENDBRANCH   1   9
BRANCH   4  12
ATOM     12  O   UNL     1      44.726   4.293  11.417  0.00  0.00    +0.000 OA
BRANCH  12  13
ATOM     13  C   UNL     1      45.110   3.280  10.476  0.00  0.00    +0.000 C 
BRANCH  13  14
ATOM     14  C   UNL     1      45.269   3.876   9.047  0.00  0.00    +0.000 C 
ATOM     15  C   UNL     1      43.875   4.060   8.404  0.00  0.00    +0.000 C 
ATOM     16  C   UNL     1      45.898   5.286   9.179  0.00  0.00    +0.000 C 
BRANCH  14  17
ATOM     17  C   UNL     1      46.112   2.927   8.166  0.00  0.00    +0.000 A 
ATOM     18  C   UNL     1      46.069   1.532   8.364  0.00  0.00    +0.000 A 
ATOM     19  C   UNL     1      46.777   0.655   7.534  0.00  0.00    +0.000 A 
ATOM     20  C   UNL     1      47.549   1.150   6.489  0.00  0.00    +0.000 A 
ATOM     21  C   UNL     1      47.631   2.522   6.288  0.00  0.00    +0.000 A 
ATOM     22  C   UNL     1      46.925   3.398   7.118  0.00  0.00    +0.000 A 
ENDBRANCH  14  17
ENDBRANCH  13  14
ENDBRANCH  12  13
ENDBRANCH   4  12
TORSDOF 5
ENDMDL
MODEL 6
REMARK VINA RESULT:    -5.606      2.247      2.699
REMARK INTER + INTRA:          -8.322
REMARK INTER:                  -7.624
REMARK INTRA:                  -0.698
REMARK UNBOUND:                -1.078
REMARK  Name = 
REMARK  8 active torsions:
REMARK  status: ('A' for Active; 'I' for Inactive)
REMARK    1  A    between atoms: C_1  and  N_2
REMARK    2  A    between atoms: C_3  and  C_5
REMARK    3  A    between atoms: C_8  and  O_9
REMARK    4  A    between atoms: O_9  and  C_10
REMARK    5  A    between atoms: C_10  and  C_11
REMARK    6  A    between atoms: C_11  and  C_12
REMARK    7  A    between atoms: C_11  and  C_13
REMARK    8  A    between atoms: C_11  and  C_14
REMARK                            x       y       z     vdW  Elec       q    Type
REMARK                         _______ _______ _______ _____ _____    ______ ____
ROOT
ATOM      1  C   UNL     1      47.218   7.916  13.478  0.00  0.00    +0.000 A 
ATOM      2  C   UNL     1      46.075   8.529  12.955  0.00  0.00    +0.000 A 
ATOM      3  C   UNL     1      45.297   7.870  11.997  0.00  0.00    +0.000 A 
ATOM      4  C   UNL     1      45.657   6.598  11.547  0.00  0.00    +0.000 A 
ATOM      5  C   UNL     1      46.805   5.991  12.062  0.00  0.00    +0.000 A 
ATOM      6  C   UNL     1      47.587   6.647  13.020  0.00  0.00    +0.000 A 
ENDROOT
BRANCH   1   9
ATOM      7  C   UNL     1      49.066  10.711  15.234  0.00  0.00    +0.000 C 
ATOM      8  N   UNL     1      48.258   9.960  14.312  0.00  0.00    +0.000 N 
ATOM      9  C   UNL     1      48.079   8.598  14.479  0.00  0.00    +0.000 C 
ATOM     10  O   UNL     1      48.574   7.965  15.406  0.00  0.00    +0.000 OA
ATOM     11  H   UNL     1      47.683  10.462  13.651  0.00  0.00    +0.000 HD
ENDBRANCH   1   9
BRANCH   4  12
ATOM     12  O   UNL     1      44.975   5.867  10.612  0.00  0.00    +0.000 OA
BRANCH  12  13
ATOM     13  C   UNL     1      45.756   5.201   9.610  0.00  0.00    +0.000 C 
BRANCH  13  14
ATOM     14  C   UNL     1      45.116   3.839   9.216  0.00  0.00    +0.000 C 
ATOM     15  C   UNL     1      45.000   2.939  10.469  0.00  0.00    +0.000 C 
ATOM     16  C   UNL     1      43.675   4.109   8.716  0.00  0.00    +0.000 C 
BRANCH  14  17
ATOM     17  C   UNL     1      45.991   3.126   8.160  0.00  0.00    +0.000 A 
ATOM     18  C   UNL     1      46.269   1.749   8.266  0.00  0.00    +0.000 A 
ATOM     19  C   UNL     1      47.007   1.076   7.285  0.00  0.00    +0.000 A 
ATOM     20  C   UNL     1      47.489   1.764   6.177  0.00  0.00    +0.000 A 
ATOM     21  C   UNL     1      47.252   3.127   6.061  0.00  0.00    +0.000 A 
ATOM     22  C   UNL     1      46.517   3.799   7.042  0.00  0.00    +0.000 A 
ENDBRANCH  14  17
ENDBRANCH  13  14
ENDBRANCH  12  13
ENDBRANCH   4  12
TORSDOF 5
ENDMDL
MODEL 7
REMARK VINA RESULT:    -5.524      4.554      7.640
REMARK INTER + INTRA:          -8.216
REMARK INTER:                  -7.557
REMARK INTRA:                  -0.659
REMARK UNBOUND:                -1.078
REMARK  Name = 
REMARK  8 active torsions:
REMARK  status: ('A' for Active; 'I' for Inactive)
REMARK    1  A    between atoms: C_1  and  N_2
REMARK    2  A    between atoms: C_3  and  C_5
REMARK    3  A    between atoms: C_8  and  O_9
REMARK    4  A    between atoms: O_9  and  C_10
REMARK    5  A    between atoms: C_10  and  C_11
REMARK    6  A    between atoms: C_11  and  C_12
REMARK    7  A    between atoms: C_11  and  C_13
REMARK    8  A    between atoms: C_11  and  C_14
REMARK                            x       y       z     vdW  Elec       q    Type
REMARK                         _______ _______ _______ _____ _____    ______ ____
ROOT
ATOM      1  C   UNL     1      45.533   4.489  11.811  0.00  0.00    +0.000 A 
ATOM      2  C   UNL     1      45.947   3.417  12.607  0.00  0.00    +0.000 A 
ATOM      3  C   UNL     1      46.754   3.642  13.729  0.00  0.00    +0.000 A 
ATOM      4  C   UNL     1      47.160   4.937  14.060  0.00  0.00    +0.000 A 
ATOM      5  C   UNL     1      46.754   6.005  13.256  0.00  0.00    +0.000 A 
ATOM      6  C   UNL     1      45.949   5.785  12.133  0.00  0.00    +0.000 A 
ENDROOT
BRANCH   1   9
ATOM      7  C   UNL     1      44.488   3.190   8.415  0.00  0.00    +0.000 C 
ATOM      8  N   UNL     1      45.225   3.460   9.619  0.00  0.00    +0.000 N 
ATOM      9  C   UNL     1      44.697   4.282  10.600  0.00  0.00    +0.000 C 
ATOM     10  O   UNL     1      43.592   4.806  10.512  0.00  0.00    +0.000 OA
ATOM     11  H   UNL     1      46.046   2.908   9.819  0.00  0.00    +0.000 HD
ENDBRANCH   1   9
BRANCH   4  12
ATOM     12  O   UNL     1      47.950   5.270  15.126  0.00  0.00    +0.000 OA
BRANCH  12  13
ATOM     13  C   UNL     1      47.604   4.699  16.396  0.00  0.00    +0.000 C 
BRANCH  13  14
ATOM     14  C   UNL     1      48.641   5.093  17.487  0.00  0.00    +0.000 C 
ATOM     15  C   UNL     1      49.259   6.468  17.142  0.00  0.00    +0.000 C 
ATOM     16  C   UNL     1      47.890   5.257  18.831  0.00  0.00    +0.000 C 
BRANCH  14  17
ATOM     17  C   UNL     1      49.766   4.036  17.557  0.00  0.00    +0.000 A 
ATOM     18  C   UNL     1      49.505   2.684  17.253  0.00  0.00    +0.000 A 
ATOM     19  C   UNL     1      50.526   1.726  17.251  0.00  0.00    +0.000 A 
ATOM     20  C   UNL     1      51.832   2.094  17.558  0.00  0.00    +0.000 A 
ATOM     21  C   UNL     1      52.112   3.414  17.888  0.00  0.00    +0.000 A 
ATOM     22  C   UNL     1      51.091   4.370  17.892  0.00  0.00    +0.000 A 
ENDBRANCH  14  17
ENDBRANCH  13  14
ENDBRANCH  12  13
ENDBRANCH   4  12
TORSDOF 5
ENDMDL
MODEL 8
REMARK VINA RESULT:    -5.345      1.807      2.040
REMARK INTER + INTRA:          -7.986
REMARK INTER:                  -7.815
REMARK INTRA:                  -0.170
REMARK UNBOUND:                -1.078
REMARK  Name = 
REMARK  8 active torsions:
REMARK  status: ('A' for Active; 'I' for Inactive)
REMARK    1  A    between atoms: C_1  and  N_2
REMARK    2  A    between atoms: C_3  and  C_5
REMARK    3  A    between atoms: C_8  and  O_9
REMARK    4  A    between atoms: O_9  and  C_10
REMARK    5  A    between atoms: C_10  and  C_11
REMARK    6  A    between atoms: C_11  and  C_12
REMARK    7  A    between atoms: C_11  and  C_13
REMARK    8  A    between atoms: C_11  and  C_14
REMARK                            x       y       z     vdW  Elec       q    Type
REMARK                         _______ _______ _______ _____ _____    ______ ____
ROOT
ATOM      1  C   UNL     1      49.213   7.551  14.004  0.00  0.00    +0.000 A 
ATOM      2  C   UNL     1      49.221   8.070  12.706  0.00  0.00    +0.000 A 
ATOM      3  C   UNL     1      48.291   7.619  11.761  0.00  0.00    +0.000 A 
ATOM      4  C   UNL     1      47.353   6.643  12.103  0.00  0.00    +0.000 A 
ATOM      5  C   UNL     1      47.354   6.118  13.398  0.00  0.00    +0.000 A 
ATOM      6  C   UNL     1      48.283   6.565  14.345  0.00  0.00    +0.000 A 
ENDROOT
BRANCH   1   9
ATOM      7  C   UNL     1      52.563   8.101  15.676  0.00  0.00    +0.000 C 
ATOM      8  N   UNL     1      51.530   7.707  14.756  0.00  0.00    +0.000 N 
ATOM      9  C   UNL     1      50.202   7.990  15.023  0.00  0.00    +0.000 C 
ATOM     10  O   UNL     1      49.833   8.589  16.028  0.00  0.00    +0.000 OA
ATOM     11  H   UNL     1      51.797   7.385  13.837  0.00  0.00    +0.000 HD
ENDBRANCH   1   9
BRANCH   4  12
ATOM     12  O   UNL     1      46.405   6.127  11.261  0.00  0.00    +0.000 OA
BRANCH  12  13
ATOM     13  C   UNL     1      45.032   6.390  11.588  0.00  0.00    +0.000 C 
BRANCH  13  14
ATOM     14  C   UNL     1      44.179   5.092  11.499  0.00  0.00    +0.000 C 
ATOM     15  C   UNL     1      44.350   4.269  12.798  0.00  0.00    +0.000 C 
ATOM     16  C   UNL     1      42.687   5.500  11.412  0.00  0.00    +0.000 C 
BRANCH  14  17
ATOM     17  C   UNL     1      44.635   4.237  10.295  0.00  0.00    +0.000 A 
ATOM     18  C   UNL     1      44.421   2.844  10.278  0.00  0.00    +0.000 A 
ATOM     19  C   UNL     1      44.771   2.065   9.169  0.00  0.00    +0.000 A 
ATOM     20  C   UNL     1      45.349   2.659   8.051  0.00  0.00    +0.000 A 
ATOM     21  C   UNL     1      45.596   4.025   8.052  0.00  0.00    +0.000 A 
ATOM     22  C   UNL     1      45.247   4.802   9.161  0.00  0.00    +0.000 A 
ENDBRANCH  14  17
ENDBRANCH  13  14
ENDBRANCH  12  13
ENDBRANCH   4  12
TORSDOF 5
ENDMDL
MODEL 9
REMARK VINA RESULT:    -5.253      1.706      2.288
REMARK INTER + INTRA:          -7.866
REMARK INTER:                  -7.157
REMARK INTRA:                  -0.709
REMARK UNBOUND:                -1.078
REMARK  Name = 
REMARK  8 active torsions:
REMARK  status: ('A' for Active; 'I' for Inactive)
REMARK    1  A    between atoms: C_1  and  N_2
REMARK    2  A    between atoms: C_3  and  C_5
REMARK    3  A    between atoms: C_8  and  O_9
REMARK    4  A    between atoms: O_9  and  C_10
REMARK    5  A    between atoms: C_10  and  C_11
REMARK    6  A    between atoms: C_11  and  C_12
REMARK    7  A    between atoms: C_11  and  C_13
REMARK    8  A    between atoms: C_11  and  C_14
REMARK                            x       y       z     vdW  Elec       q    Type
REMARK                         _______ _______ _______ _____ _____    ______ ____
ROOT
ATOM      1  C   UNL     1      50.201   9.102  11.479  0.00  0.00    +0.000 A 
ATOM      2  C   UNL     1      49.068   9.906  11.640  0.00  0.00    +0.000 A 
ATOM      3  C   UNL     1      47.861   9.345  12.074  0.00  0.00    +0.000 A 
ATOM      4  C   UNL     1      47.774   7.977  12.342  0.00  0.00    +0.000 A 
ATOM      5  C   UNL     1      48.903   7.174  12.170  0.00  0.00    +0.000 A 
ATOM      6  C   UNL     1      50.112   7.730  11.735  0.00  0.00    +0.000 A 
ENDROOT
BRANCH   1   9
ATOM      7  C   UNL     1      52.602  11.331   9.587  0.00  0.00    +0.000 C 
ATOM      8  N   UNL     1      51.409  10.715  10.103  0.00  0.00    +0.000 N 
ATOM      9  C   UNL     1      51.490   9.662  10.997  0.00  0.00    +0.000 C 
ATOM     10  O   UNL     1      52.555   9.208  11.404  0.00  0.00    +0.000 OA
ATOM     11  H   UNL     1      50.522  11.171   9.947  0.00  0.00    +0.000 HD
ENDBRANCH   1   9
BRANCH   4  12
ATOM     12  O   UNL     1      46.648   7.324  12.765  0.00  0.00    +0.000 OA
BRANCH  12  13
ATOM     13  C   UNL     1      46.496   5.957  12.356  0.00  0.00    +0.000 C 
BRANCH  13  14
ATOM     14  C   UNL     1      45.050   5.682  11.852  0.00  0.00    +0.000 C 
ATOM     15  C   UNL     1      44.216   5.050  12.991  0.00  0.00    +0.000 C 
ATOM     16  C   UNL     1      44.392   7.041  11.506  0.00  0.00    +0.000 C 
BRANCH  14  17
ATOM     17  C   UNL     1      45.083   4.711  10.649  0.00  0.00    +0.000 A 
ATOM     18  C   UNL     1      44.557   3.408  10.761  0.00  0.00    +0.000 A 
ATOM     19  C   UNL     1      44.522   2.539   9.665  0.00  0.00    +0.000 A 
ATOM     20  C   UNL     1      45.016   2.949   8.430  0.00  0.00    +0.000 A 
ATOM     21  C   UNL     1      45.564   4.218   8.299  0.00  0.00    +0.000 A 
ATOM     22  C   UNL     1      45.600   5.085   9.396  0.00  0.00    +0.000 A 
ENDBRANCH  14  17
ENDBRANCH  13  14
ENDBRANCH  12  13
ENDBRANCH   4  12
TORSDOF 5
ENDMDL
