MODEL 1
REMARK VINA RESULT:    -9.166      0.000      0.000
REMARK INTER + INTRA:         -13.393
REMARK INTER:                 -12.649
REMARK INTRA:                  -0.744
REMARK UNBOUND:                -0.744
REMARK  Name = 
REMARK  8 active torsions:
REMARK  status: ('A' for Active; 'I' for Inactive)
REMARK    1  A    between atoms: C_1  and  C_2
REMARK    2  A    between atoms: C_2  and  O_3
REMARK    3  A    between atoms: C_5  and  O_6
REMARK    4  A    between atoms: O_6  and  C_7
REMARK    5  A    between atoms: C_11  and  C_12
REMARK    6  A    between atoms: C_12  and  C_13
REMARK    7  A    between atoms: C_13  and  N_14
REMARK    8  A    between atoms: C_18  and  C_19
REMARK                            x       y       z     vdW  Elec       q    Type
REMARK                         _______ _______ _______ _____ _____    ______ ____
ROOT
ATOM      1  C   UNL     1      43.204   5.217  12.354  0.00  0.00    +0.000 C 
ENDROOT
BRANCH   1   6
ATOM      2  C   UNL     1      46.841   5.589  13.569  0.00  0.00    +0.000 A 
ATOM      3  C   UNL     1      47.144   6.867  13.106  0.00  0.00    +0.000 A 
ATOM      4  C   UNL     1      46.159   7.619  12.463  0.00  0.00    +0.000 A 
ATOM      5  C   UNL     1      44.887   7.085  12.251  0.00  0.00    +0.000 A 
ATOM      6  C   UNL     1      44.580   5.781  12.667  0.00  0.00    +0.000 A 
ATOM      7  C   UNL     1      45.574   5.050  13.340  0.00  0.00    +0.000 A 
BRANCH   2   8
ATOM      8  O   UNL     1      47.718   4.780  14.249  0.00  0.00    +0.000 OA
BRANCH   8  12
ATOM      9  C   UNL     1      48.733   3.289  18.420  0.00  0.00    +0.000 C 
ATOM     10  C   UNL     1      47.647   3.337  17.359  0.00  0.00    +0.000 C 
ATOM     11  C   UNL     1      48.111   2.919  15.944  0.00  0.00    +0.000 C 
ATOM     12  C   UNL     1      47.206   4.046  15.381  0.00  0.00    +0.000 C 
ATOM     13  C   UNL     1      47.357   4.739  16.758  0.00  0.00    +0.000 C 
BRANCH  10  14
ATOM     14  O   UNL     1      46.476   2.639  17.843  0.00  0.00    +0.000 OA
ATOM     15  H   UNL     1      46.794   2.069  18.564  0.00  0.00    +0.000 HD
ENDBRANCH  10  14
ENDBRANCH   8  12
ENDBRANCH   2   8
ENDBRANCH   1   6
BRANCH   1  16
ATOM     16  C   UNL     1      43.132   4.427  11.044  0.00  0.00    +0.000 C 
BRANCH  16  17
ATOM     17  N   UNL     1      43.956   5.010   9.978  0.00  0.00    +0.000 N 
ATOM     18  C   UNL     1      44.716   4.013   9.330  0.00  0.00    +0.000 A 
ATOM     19  C   UNL     1      45.583   4.381   8.305  0.00  0.00    +0.000 A 
ATOM     20  C   UNL     1      46.330   3.393   7.654  0.00  0.00    +0.000 A 
ATOM     21  C   UNL     1      46.200   2.056   8.033  0.00  0.00    +0.000 A 
ATOM     22  C   UNL     1      45.307   1.778   9.048  0.00  0.00    +0.000 A 
ATOM     23  N   UNL     1      44.573   2.718   9.687  0.00  0.00    +0.000 NA
ATOM     24  H   UNL     1      44.594   5.719  10.332  0.00  0.00    +0.000 HD
BRANCH  21  25
ATOM     25  C   UNL     1      47.002   1.015   7.345  0.00  0.00    +0.000 C 
ATOM     26  N   UNL     1      46.786  -0.302   7.651  0.00  0.00    +0.000 N 
ATOM     27  O   UNL     1      47.852   1.317   6.516  0.00  0.00    +0.000 OA
ATOM     28  H   UNL     1      46.128  -0.659   8.327  0.00  0.00    +0.000 HD
ATOM     29  H   UNL     1      47.361  -0.978   7.165  0.00  0.00    +0.000 HD
ENDBRANCH  21  25
ENDBRANCH  16  17
ENDBRANCH   1  16
TORSDOF 7
ENDMDL
MODEL 2
REMARK VINA RESULT:    -8.897      1.327      1.597
REMARK INTER + INTRA:         -13.021
REMARK INTER:                 -12.070
REMARK INTRA:                  -0.950
REMARK UNBOUND:                -0.744
REMARK  Name = 
REMARK  8 active torsions:
REMARK  status: ('A' for Active; 'I' for Inactive)
REMARK    1  A    between atoms: C_1  and  C_2
REMARK    2  A    between atoms: C_2  and  O_3
REMARK    3  A    between atoms: C_5  and  O_6
REMARK    4  A    between atoms: O_6  and  C_7
REMARK    5  A    between atoms: C_11  and  C_12
REMARK    6  A    between atoms: C_12  and  C_13
REMARK    7  A    between atoms: C_13  and  N_14
REMARK    8  A    between atoms: C_18  and  C_19
REMARK                            x       y       z     vdW  Elec       q    Type
REMARK                         _______ _______ _______ _____ _____    ______ ____
ROOT
ATOM      1  C   UNL     1      43.672   5.751  11.997  0.00  0.00    +0.000 C 
ENDROOT
BRANCH   1   6
ATOM      2  C   UNL     1      47.095   5.063  13.627  0.00  0.00    +0.000 A 
ATOM      3  C   UNL     1      47.894   5.990  12.963  0.00  0.00    +0.000 A 
ATOM      4  C   UNL     1      47.315   6.867  12.043  0.00  0.00    +0.000 A 
ATOM      5  C   UNL     1      45.950   6.795  11.762  0.00  0.00    +0.000 A 
ATOM      6  C   UNL     1      45.139   5.835  12.385  0.00  0.00    +0.000 A 
ATOM      7  C   UNL     1      45.733   4.981  13.331  0.00  0.00    +0.000 A 
BRANCH   2   8
ATOM      8  O   UNL     1      47.551   4.183  14.578  0.00  0.00    +0.000 OA
BRANCH   8  12
ATOM      9  C   UNL     1      49.050   4.098  18.867  0.00  0.00    +0.000 C 
ATOM     10  C   UNL     1      47.853   4.414  17.987  0.00  0.00    +0.000 C 
ATOM     11  C   UNL     1      47.491   3.307  16.970  0.00  0.00    +0.000 C 
ATOM     12  C   UNL     1      47.175   4.430  15.949  0.00  0.00    +0.000 C 
ATOM     13  C   UNL     1      48.143   5.326  16.763  0.00  0.00    +0.000 C 
BRANCH  10  14
ATOM     14  O   UNL     1      46.754   4.858  18.816  0.00  0.00    +0.000 OA
ATOM     15  H   UNL     1      47.159   5.406  19.510  0.00  0.00    +0.000 HD
ENDBRANCH  10  14
ENDBRANCH   8  12
ENDBRANCH   2   8
ENDBRANCH   1   6
BRANCH   1  16
ATOM     16  C   UNL     1      43.423   5.123  10.623  0.00  0.00    +0.000 C 
BRANCH  16  17
ATOM     17  N   UNL     1      43.690   3.680  10.595  0.00  0.00    +0.000 N 
ATOM     18  C   UNL     1      44.610   3.360   9.574  0.00  0.00    +0.000 A 
ATOM     19  C   UNL     1      44.965   2.029   9.375  0.00  0.00    +0.000 A 
ATOM     20  C   UNL     1      45.884   1.709   8.369  0.00  0.00    +0.000 A 
ATOM     21  C   UNL     1      46.435   2.720   7.580  0.00  0.00    +0.000 A 
ATOM     22  C   UNL     1      46.038   4.013   7.855  0.00  0.00    +0.000 A 
ATOM     23  N   UNL     1      45.154   4.343   8.824  0.00  0.00    +0.000 NA
ATOM     24  H   UNL     1      42.843   3.136  10.445  0.00  0.00    +0.000 HD
BRANCH  21  25
ATOM     25  C   UNL     1      47.401   2.374   6.510  0.00  0.00    +0.000 C 
ATOM     26  N   UNL     1      47.380   3.085   5.339  0.00  0.00    +0.000 N 
ATOM     27  O   UNL     1      48.208   1.464   6.656  0.00  0.00    +0.000 OA
ATOM     28  H   UNL     1      46.751   3.836   5.107  0.00  0.00    +0.000 HD
ATOM     29  H   UNL     1      48.051   2.808   4.633  0.00  0.00    +0.000 HD
ENDBRANCH  21  25
ENDBRANCH  16  17
ENDBRANCH   1  16
TORSDOF 7
ENDMDL
MODEL 3
REMARK VINA RESULT:    -7.880      2.678      4.364
REMARK INTER + INTRA:         -11.618
REMARK INTER:                 -10.668
REMARK INTRA:                  -0.950
REMARK UNBOUND:                -0.744
REMARK  Name = 
REMARK  8 active torsions:
REMARK  status: ('A' for Active; 'I' for Inactive)
REMARK    1  A    between atoms: C_1  and  C_2
REMARK    2  A    between atoms: C_2  and  O_3
REMARK    3  A    between atoms: C_5  and  O_6
REMARK    4  A    between atoms: O_6  and  C_7
REMARK    5  A    between atoms: C_11  and  C_12
REMARK    6  A    between atoms: C_12  and  C_13
REMARK    7  A    between atoms: C_13  and  N_14
REMARK    8  A    between atoms: C_18  and  C_19
REMARK                            x       y       z     vdW  Elec       q    Type
REMARK                         _______ _______ _______ _____ _____    ______ ____
ROOT
ATOM      1  C   UNL     1      43.634   5.766  11.987  0.00  0.00    +0.000 C 
ENDROOT
BRANCH   1   6
ATOM      2  C   UNL     1      47.366   6.658  12.337  0.00  0.00    +0.000 A 
ATOM      3  C   UNL     1      47.743   5.809  13.373  0.00  0.00    +0.000 A 
ATOM      4  C   UNL     1      46.813   4.916  13.908  0.00  0.00    +0.000 A 
ATOM      5  C   UNL     1      45.500   4.895  13.433  0.00  0.00    +0.000 A 
ATOM      6  C   UNL     1      45.090   5.778  12.423  0.00  0.00    +0.000 A 
ATOM      7  C   UNL     1      46.048   6.648  11.876  0.00  0.00    +0.000 A 
BRANCH   2   8
ATOM      8  O   UNL     1      48.208   7.544  11.711  0.00  0.00    +0.000 OA
BRANCH   8  12
ATOM      9  C   UNL     1      52.175   9.694  11.172  0.00  0.00    +0.000 C 
ATOM     10  C   UNL     1      51.466   8.592  11.940  0.00  0.00    +0.000 C 
ATOM     11  C   UNL     1      50.671   7.602  11.058  0.00  0.00    +0.000 C 
ATOM     12  C   UNL     1      49.579   7.591  12.160  0.00  0.00    +0.000 C 
ATOM     13  C   UNL     1      50.105   8.988  12.576  0.00  0.00    +0.000 C 
BRANCH  10  14
ATOM     14  O   UNL     1      52.397   7.973  12.857  0.00  0.00    +0.000 OA
ATOM     15  H   UNL     1      51.857   7.394  13.423  0.00  0.00    +0.000 HD
ENDBRANCH  10  14
ENDBRANCH   8  12
ENDBRANCH   2   8
ENDBRANCH   1   6
BRANCH   1  16
ATOM     16  C   UNL     1      43.399   5.151  10.605  0.00  0.00    +0.000 C 
BRANCH  16  17
ATOM     17  N   UNL     1      43.656   3.706  10.569  0.00  0.00    +0.000 N 
ATOM     18  C   UNL     1      44.588   3.387   9.558  0.00  0.00    +0.000 A 
ATOM     19  C   UNL     1      44.936   2.055   9.354  0.00  0.00    +0.000 A 
ATOM     20  C   UNL     1      45.868   1.737   8.359  0.00  0.00    +0.000 A 
ATOM     21  C   UNL     1      46.438   2.750   7.587  0.00  0.00    +0.000 A 
ATOM     22  C   UNL     1      46.046   4.044   7.866  0.00  0.00    +0.000 A 
ATOM     23  N   UNL     1      45.151   4.372   8.826  0.00  0.00    +0.000 NA
ATOM     24  H   UNL     1      42.807   3.170  10.402  0.00  0.00    +0.000 HD
BRANCH  21  25
ATOM     25  C   UNL     1      47.418   2.406   6.528  0.00  0.00    +0.000 C 
ATOM     26  N   UNL     1      47.387   3.093   5.344  0.00  0.00    +0.000 N 
ATOM     27  O   UNL     1      48.244   1.518   6.696  0.00  0.00    +0.000 OA
ATOM     28  H   UNL     1      46.741   3.825   5.094  0.00  0.00    +0.000 HD
ATOM     29  H   UNL     1      48.067   2.818   4.646  0.00  0.00    +0.000 HD
ENDBRANCH  21  25
ENDBRANCH  16  17
ENDBRANCH   1  16
TORSDOF 7
ENDMDL
MODEL 4
REMARK VINA RESULT:    -7.260      3.017      7.896
REMARK INTER + INTRA:         -10.762
REMARK INTER:                 -10.119
REMARK INTRA:                  -0.644
REMARK UNBOUND:                -0.744
REMARK  Name = 
REMARK  8 active torsions:
REMARK  status: ('A' for Active; 'I' for Inactive)
REMARK    1  A    between atoms: C_1  and  C_2
REMARK    2  A    between atoms: C_2  and  O_3
REMARK    3  A    between atoms: C_5  and  O_6
REMARK    4  A    between atoms: O_6  and  C_7
REMARK    5  A    between atoms: C_11  and  C_12
REMARK    6  A    between atoms: C_12  and  C_13
REMARK    7  A    between atoms: C_13  and  N_14
REMARK    8  A    between atoms: C_18  and  C_19
REMARK                            x       y       z     vdW  Elec       q    Type
REMARK                         _______ _______ _______ _____ _____    ______ ____
ROOT
ATOM      1  C   UNL     1      46.305   7.301  12.339  0.00  0.00    +0.000 C 
ENDROOT
BRANCH   1   6
ATOM      2  C   UNL     1      44.228   4.780  10.295  0.00  0.00    +0.000 A 
ATOM      3  C   UNL     1      43.343   4.321  11.266  0.00  0.00    +0.000 A 
ATOM      4  C   UNL     1      43.381   4.868  12.550  0.00  0.00    +0.000 A 
ATOM      5  C   UNL     1      44.323   5.845  12.873  0.00  0.00    +0.000 A 
ATOM      6  C   UNL     1      45.255   6.285  11.922  0.00  0.00    +0.000 A 
ATOM      7  C   UNL     1      45.181   5.745  10.626  0.00  0.00    +0.000 A 
BRANCH   2   8
ATOM      8  O   UNL     1      44.251   4.343   8.993  0.00  0.00    +0.000 OA
BRANCH   8  12
ATOM      9  C   UNL     1      46.755   2.924   5.477  0.00  0.00    +0.000 C 
ATOM     10  C   UNL     1      46.532   2.770   6.971  0.00  0.00    +0.000 C 
ATOM     11  C   UNL     1      45.058   2.542   7.381  0.00  0.00    +0.000 C 
ATOM     12  C   UNL     1      45.321   3.454   8.608  0.00  0.00    +0.000 C 
ATOM     13  C   UNL     1      46.464   4.095   7.780  0.00  0.00    +0.000 C 
BRANCH  10  14
ATOM     14  O   UNL     1      47.463   1.796   7.496  0.00  0.00    +0.000 OA
ATOM     15  H   UNL     1      46.918   1.150   7.978  0.00  0.00    +0.000 HD
ENDBRANCH  10  14
ENDBRANCH   8  12
ENDBRANCH   2   8
ENDBRANCH   1   6
BRANCH   1  16
ATOM     16  C   UNL     1      47.722   6.731  12.447  0.00  0.00    +0.000 C 
BRANCH  16  17
ATOM     17  N   UNL     1      48.404   7.121  13.687  0.00  0.00    +0.000 N 
ATOM     18  C   UNL     1      48.188   6.163  14.701  0.00  0.00    +0.000 A 
ATOM     19  C   UNL     1      48.735   6.377  15.962  0.00  0.00    +0.000 A 
ATOM     20  C   UNL     1      48.532   5.425  16.967  0.00  0.00    +0.000 A 
ATOM     21  C   UNL     1      47.787   4.275  16.698  0.00  0.00    +0.000 A 
ATOM     22  C   UNL     1      47.293   4.137  15.417  0.00  0.00    +0.000 A 
ATOM     23  N   UNL     1      47.482   5.044  14.431  0.00  0.00    +0.000 NA
ATOM     24  H   UNL     1      48.088   8.026  14.029  0.00  0.00    +0.000 HD
BRANCH  21  25
ATOM     25  C   UNL     1      47.567   3.274  17.770  0.00  0.00    +0.000 C 
ATOM     26  N   UNL     1      48.465   3.195  18.801  0.00  0.00    +0.000 N 
ATOM     27  O   UNL     1      46.603   2.520  17.741  0.00  0.00    +0.000 OA
ATOM     28  H   UNL     1      49.297   3.751  18.914  0.00  0.00    +0.000 HD
ATOM     29  H   UNL     1      48.280   2.491  19.505  0.00  0.00    +0.000 HD
ENDBRANCH  21  25
ENDBRANCH  16  17
ENDBRANCH   1  16
TORSDOF 7
ENDMDL
MODEL 5
REMARK VINA RESULT:    -6.817      3.375      8.535
REMARK INTER + INTRA:         -10.150
REMARK INTER:                  -9.901
REMARK INTRA:                  -0.249
REMARK UNBOUND:                -0.744
REMARK  Name = 
REMARK  8 active torsions:
REMARK  status: ('A' for Active; 'I' for Inactive)
REMARK    1  A    between atoms: C_1  and  C_2
REMARK    2  A    between atoms: C_2  and  O_3
REMARK    3  A    between atoms: C_5  and  O_6
REMARK    4  A    between atoms: O_6  and  C_7
REMARK    5  A    between atoms: C_11  and  C_12
REMARK    6  A    between atoms: C_12  and  C_13
REMARK    7  A    between atoms: C_13  and  N_14
REMARK    8  A    between atoms: C_18  and  C_19
REMARK                            x       y       z     vdW  Elec       q    Type
REMARK                         _______ _______ _______ _____ _____    ______ ____
ROOT
ATOM      1  C   UNL     1      46.158   6.125  12.329  0.00  0.00    +0.000 C 
ENDROOT
BRANCH   1   6
ATOM      2  C   UNL     1      44.427   3.239  10.452  0.00  0.00    +0.000 A 
ATOM      3  C   UNL     1      43.436   2.889  11.364  0.00  0.00    +0.000 A 
ATOM      4  C   UNL     1      43.294   3.621  12.545  0.00  0.00    +0.000 A 
ATOM      5  C   UNL     1      44.161   4.677  12.829  0.00  0.00    +0.000 A 
ATOM      6  C   UNL     1      45.196   5.012  11.945  0.00  0.00    +0.000 A 
ATOM      7  C   UNL     1      45.304   4.284  10.747  0.00  0.00    +0.000 A 
BRANCH   2   8
ATOM      8  O   UNL     1      44.629   2.616   9.245  0.00  0.00    +0.000 OA
BRANCH   8  12
ATOM      9  C   UNL     1      46.772   2.347   5.247  0.00  0.00    +0.000 C 
ATOM     10  C   UNL     1      46.931   2.739   6.705  0.00  0.00    +0.000 C 
ATOM     11  C   UNL     1      46.438   1.677   7.715  0.00  0.00    +0.000 C 
ATOM     12  C   UNL     1      45.890   2.841   8.581  0.00  0.00    +0.000 C 
ATOM     13  C   UNL     1      45.826   3.671   7.274  0.00  0.00    +0.000 C 
BRANCH  10  14
ATOM     14  O   UNL     1      48.281   3.207   6.930  0.00  0.00    +0.000 OA
ATOM     15  H   UNL     1      48.506   2.925   7.833  0.00  0.00    +0.000 HD
ENDBRANCH  10  14
ENDBRANCH   8  12
ENDBRANCH   2   8
ENDBRANCH   1   6
BRANCH   1  16
ATOM     16  C   UNL     1      47.205   5.718  13.369  0.00  0.00    +0.000 C 
BRANCH  16  17
ATOM     17  N   UNL     1      46.774   4.591  14.205  0.00  0.00    +0.000 N 
ATOM     18  C   UNL     1      47.474   4.580  15.430  0.00  0.00    +0.000 A 
ATOM     19  C   UNL     1      47.220   3.563  16.346  0.00  0.00    +0.000 A 
ATOM     20  C   UNL     1      47.904   3.554  17.567  0.00  0.00    +0.000 A 
ATOM     21  C   UNL     1      48.829   4.560  17.855  0.00  0.00    +0.000 A 
ATOM     22  C   UNL     1      49.009   5.537  16.896  0.00  0.00    +0.000 A 
ATOM     23  N   UNL     1      48.355   5.564  15.713  0.00  0.00    +0.000 NA
ATOM     24  H   UNL     1      46.921   3.695  13.745  0.00  0.00    +0.000 HD
BRANCH  21  25
ATOM     25  C   UNL     1      49.558   4.541  19.146  0.00  0.00    +0.000 C 
ATOM     26  N   UNL     1      50.819   4.006  19.191  0.00  0.00    +0.000 N 
ATOM     27  O   UNL     1      49.049   4.988  20.166  0.00  0.00    +0.000 OA
ATOM     28  H   UNL     1      51.322   3.596  18.420  0.00  0.00    +0.000 HD
ATOM     29  H   UNL     1      51.275   4.005  20.094  0.00  0.00    +0.000 HD
ENDBRANCH  21  25
ENDBRANCH  16  17
ENDBRANCH   1  16
TORSDOF 7
ENDMDL
MODEL 6
REMARK VINA RESULT:    -6.721      1.740      2.614
REMARK INTER + INTRA:         -10.018
REMARK INTER:                  -9.202
REMARK INTRA:                  -0.817
REMARK UNBOUND:                -0.744
REMARK  Name = 
REMARK  8 active torsions:
REMARK  status: ('A' for Active; 'I' for Inactive)
REMARK    1  A    between atoms: C_1  and  C_2
REMARK    2  A    between atoms: C_2  and  O_3
REMARK    3  A    between atoms: C_5  and  O_6
REMARK    4  A    between atoms: O_6  and  C_7
REMARK    5  A    between atoms: C_11  and  C_12
REMARK    6  A    between atoms: C_12  and  C_13
REMARK    7  A    between atoms: C_13  and  N_14
REMARK    8  A    between atoms: C_18  and  C_19
REMARK                            x       y       z     vdW  Elec       q    Type
REMARK                         _______ _______ _______ _____ _____    ______ ____
ROOT
ATOM      1  C   UNL     1      45.390   8.261  12.696  0.00  0.00    +0.000 C 
ENDROOT
BRANCH   1   6
ATOM      2  C   UNL     1      48.813   6.897  13.820  0.00  0.00    +0.000 A 
ATOM      3  C   UNL     1      49.623   7.319  12.769  0.00  0.00    +0.000 A 
ATOM      4  C   UNL     1      49.074   8.089  11.741  0.00  0.00    +0.000 A 
ATOM      5  C   UNL     1      47.715   8.406  11.745  0.00  0.00    +0.000 A 
ATOM      6  C   UNL     1      46.875   7.948  12.770  0.00  0.00    +0.000 A 
ATOM      7  C   UNL     1      47.451   7.201  13.812  0.00  0.00    +0.000 A 
BRANCH   2   8
ATOM      8  O   UNL     1      49.255   6.173  14.900  0.00  0.00    +0.000 OA
BRANCH   8  12
ATOM      9  C   UNL     1      47.948   3.029  17.909  0.00  0.00    +0.000 C 
ATOM     10  C   UNL     1      47.665   4.427  17.387  0.00  0.00    +0.000 C 
ATOM     11  C   UNL     1      47.555   4.528  15.848  0.00  0.00    +0.000 C 
ATOM     12  C   UNL     1      48.302   5.884  15.944  0.00  0.00    +0.000 C 
ATOM     13  C   UNL     1      48.898   5.364  17.277  0.00  0.00    +0.000 C 
BRANCH  10  14
ATOM     14  O   UNL     1      46.548   4.990  18.112  0.00  0.00    +0.000 OA
ATOM     15  H   UNL     1      46.429   4.419  18.890  0.00  0.00    +0.000 HD
ENDBRANCH  10  14
ENDBRANCH   8  12
ENDBRANCH   2   8
ENDBRANCH   1   6
BRANCH   1  16
ATOM     16  C   UNL     1      44.641   7.497  11.601  0.00  0.00    +0.000 C 
BRANCH  16  17
ATOM     17  N   UNL     1      44.265   6.137  12.006  0.00  0.00    +0.000 N 
ATOM     18  C   UNL     1      44.673   5.195  11.037  0.00  0.00    +0.000 A 
ATOM     19  C   UNL     1      44.377   3.849  11.235  0.00  0.00    +0.000 A 
ATOM     20  C   UNL     1      44.788   2.911  10.282  0.00  0.00    +0.000 A 
ATOM     21  C   UNL     1      45.489   3.328   9.149  0.00  0.00    +0.000 A 
ATOM     22  C   UNL     1      45.752   4.679   9.040  0.00  0.00    +0.000 A 
ATOM     23  N   UNL     1      45.367   5.601   9.952  0.00  0.00    +0.000 NA
ATOM     24  H   UNL     1      43.262   6.042  12.142  0.00  0.00    +0.000 HD
BRANCH  21  25
ATOM     25  C   UNL     1      45.914   2.330   8.138  0.00  0.00    +0.000 C 
ATOM     26  N   UNL     1      46.291   2.763   6.894  0.00  0.00    +0.000 N 
ATOM     27  O   UNL     1      45.927   1.134   8.397  0.00  0.00    +0.000 OA
ATOM     28  H   UNL     1      46.300   3.717   6.570  0.00  0.00    +0.000 HD
ATOM     29  H   UNL     1      46.564   2.047   6.232  0.00  0.00    +0.000 HD
ENDBRANCH  21  25
ENDBRANCH  16  17
ENDBRANCH   1  16
TORSDOF 7
ENDMDL
MODEL 7
REMARK VINA RESULT:    -6.580      3.696      7.204
REMARK INTER + INTRA:          -9.824
REMARK INTER:                  -8.801
REMARK INTRA:                  -1.023
REMARK UNBOUND:                -0.744
REMARK  Name = 
REMARK  8 active torsions:
REMARK  status: ('A' for Active; 'I' for Inactive)
REMARK    1  A    between atoms: C_1  and  C_2
REMARK    2  A    between atoms: C_2  and  O_3
REMARK    3  A    between atoms: C_5  and  O_6
REMARK    4  A    between atoms: O_6  and  C_7
REMARK    5  A    between atoms: C_11  and  C_12
REMARK    6  A    between atoms: C_12  and  C_13
REMARK    7  A    between atoms: C_13  and  N_14
REMARK    8  A    between atoms: C_18  and  C_19
REMARK                            x       y       z     vdW  Elec       q    Type
REMARK                         _______ _______ _______ _____ _____    ______ ____
ROOT
ATOM      1  C   UNL     1      48.638   8.819  12.310  0.00  0.00    +0.000 C 
ENDROOT
BRANCH   1   6
ATOM      2  C   UNL     1      44.901   8.131  11.676  0.00  0.00    +0.000 A 
ATOM      3  C   UNL     1      44.393   9.428  11.661  0.00  0.00    +0.000 A 
ATOM      4  C   UNL     1      45.264  10.511  11.794  0.00  0.00    +0.000 A 
ATOM      5  C   UNL     1      46.632  10.300  11.976  0.00  0.00    +0.000 A 
ATOM      6  C   UNL     1      47.153   9.000  12.042  0.00  0.00    +0.000 A 
ATOM      7  C   UNL     1      46.267   7.923  11.876  0.00  0.00    +0.000 A 
BRANCH   2   8
ATOM      8  O   UNL     1      44.143   6.998  11.513  0.00  0.00    +0.000 OA
BRANCH   8  12
ATOM      9  C   UNL     1      43.383   2.529  11.834  0.00  0.00    +0.000 C 
ATOM     10  C   UNL     1      44.372   3.636  12.155  0.00  0.00    +0.000 C 
ATOM     11  C   UNL     1      43.753   4.868  12.857  0.00  0.00    +0.000 C 
ATOM     12  C   UNL     1      44.692   5.754  11.997  0.00  0.00    +0.000 C 
ATOM     13  C   UNL     1      44.720   4.587  10.977  0.00  0.00    +0.000 C 
BRANCH  10  14
ATOM     14  O   UNL     1      45.521   3.071  12.827  0.00  0.00    +0.000 OA
ATOM     15  H   UNL     1      45.174   2.334  13.359  0.00  0.00    +0.000 HD
ENDBRANCH  10  14
ENDBRANCH   8  12
ENDBRANCH   2   8
ENDBRANCH   1   6
BRANCH   1  16
ATOM     16  C   UNL     1      49.002   7.477  12.950  0.00  0.00    +0.000 C 
BRANCH  16  17
ATOM     17  N   UNL     1      49.510   7.614  14.320  0.00  0.00    +0.000 N 
ATOM     18  C   UNL     1      48.974   6.611  15.156  0.00  0.00    +0.000 A 
ATOM     19  C   UNL     1      49.320   6.596  16.504  0.00  0.00    +0.000 A 
ATOM     20  C   UNL     1      48.799   5.597  17.334  0.00  0.00    +0.000 A 
ATOM     21  C   UNL     1      47.944   4.628  16.806  0.00  0.00    +0.000 A 
ATOM     22  C   UNL     1      47.665   4.709  15.457  0.00  0.00    +0.000 A 
ATOM     23  N   UNL     1      48.161   5.665  14.638  0.00  0.00    +0.000 NA
ATOM     24  H   UNL     1      49.283   8.520  14.723  0.00  0.00    +0.000 HD
BRANCH  21  25
ATOM     25  C   UNL     1      47.388   3.577  17.692  0.00  0.00    +0.000 C 
ATOM     26  N   UNL     1      48.035   3.282  18.863  0.00  0.00    +0.000 N 
ATOM     27  O   UNL     1      46.368   2.971  17.390  0.00  0.00    +0.000 OA
ATOM     28  H   UNL     1      48.887   3.704  19.198  0.00  0.00    +0.000 HD
ATOM     29  H   UNL     1      47.626   2.552  19.431  0.00  0.00    +0.000 HD
ENDBRANCH  21  25
ENDBRANCH  16  17
ENDBRANCH   1  16
TORSDOF 7
ENDMDL
MODEL 8
REMARK VINA RESULT:    -6.535      4.340      7.508
REMARK INTER + INTRA:          -9.762
REMARK INTER:                  -9.154
REMARK INTRA:                  -0.608
REMARK UNBOUND:                -0.744
REMARK  Name = 
REMARK  8 active torsions:
REMARK  status: ('A' for Active; 'I' for Inactive)
REMARK    1  A    between atoms: C_1  and  C_2
REMARK    2  A    between atoms: C_2  and  O_3
REMARK    3  A    between atoms: C_5  and  O_6
REMARK    4  A    between atoms: O_6  and  C_7
REMARK    5  A    between atoms: C_11  and  C_12
REMARK    6  A    between atoms: C_12  and  C_13
REMARK    7  A    between atoms: C_13  and  N_14
REMARK    8  A    between atoms: C_18  and  C_19
REMARK                            x       y       z     vdW  Elec       q    Type
REMARK                         _______ _______ _______ _____ _____    ______ ____
ROOT
ATOM      1  C   UNL     1      44.728   7.085  11.437  0.00  0.00    +0.000 C 
ENDROOT
BRANCH   1   6
ATOM      2  C   UNL     1      44.310   3.380  10.466  0.00  0.00    +0.000 A 
ATOM      3  C   UNL     1      43.751   2.863  11.632  0.00  0.00    +0.000 A 
ATOM      4  C   UNL     1      43.459   3.720  12.695  0.00  0.00    +0.000 A 
ATOM      5  C   UNL     1      43.755   5.081  12.608  0.00  0.00    +0.000 A 
ATOM      6  C   UNL     1      44.362   5.610  11.460  0.00  0.00    +0.000 A 
ATOM      7  C   UNL     1      44.621   4.738  10.388  0.00  0.00    +0.000 A 
BRANCH   2   8
ATOM      8  O   UNL     1      44.599   2.638   9.347  0.00  0.00    +0.000 OA
BRANCH   8  12
ATOM      9  C   UNL     1      46.722   2.319   5.342  0.00  0.00    +0.000 C 
ATOM     10  C   UNL     1      46.860   2.806   6.774  0.00  0.00    +0.000 C 
ATOM     11  C   UNL     1      46.466   1.765   7.848  0.00  0.00    +0.000 C 
ATOM     12  C   UNL     1      45.831   2.928   8.655  0.00  0.00    +0.000 C 
ATOM     13  C   UNL     1      45.686   3.674   7.304  0.00  0.00    +0.000 C 
BRANCH  10  14
ATOM     14  O   UNL     1      48.168   3.395   6.954  0.00  0.00    +0.000 OA
ATOM     15  H   UNL     1      48.408   3.763   6.086  0.00  0.00    +0.000 HD
ENDBRANCH  10  14
ENDBRANCH   8  12
ENDBRANCH   2   8
ENDBRANCH   1   6
BRANCH   1  16
ATOM     16  C   UNL     1      45.503   7.558  12.670  0.00  0.00    +0.000 C 
BRANCH  16  17
ATOM     17  N   UNL     1      46.183   8.842  12.461  0.00  0.00    +0.000 N 
ATOM     18  C   UNL     1      47.560   8.646  12.222  0.00  0.00    +0.000 A 
ATOM     19  C   UNL     1      48.378   9.756  12.029  0.00  0.00    +0.000 A 
ATOM     20  C   UNL     1      49.742   9.566  11.782  0.00  0.00    +0.000 A 
ATOM     21  C   UNL     1      50.268   8.274  11.729  0.00  0.00    +0.000 A 
ATOM     22  C   UNL     1      49.384   7.231  11.918  0.00  0.00    +0.000 A 
ATOM     23  N   UNL     1      48.062   7.394  12.154  0.00  0.00    +0.000 NA
ATOM     24  H   UNL     1      46.082   9.462  13.260  0.00  0.00    +0.000 HD
BRANCH  21  25
ATOM     25  C   UNL     1      51.716   8.079  11.476  0.00  0.00    +0.000 C 
ATOM     26  N   UNL     1      52.114   7.103  10.601  0.00  0.00    +0.000 N 
ATOM     27  O   UNL     1      52.555   8.771  12.039  0.00  0.00    +0.000 OA
ATOM     28  H   UNL     1      51.512   6.468  10.100  0.00  0.00    +0.000 HD
ATOM     29  H   UNL     1      53.111   6.998  10.466  0.00  0.00    +0.000 HD
ENDBRANCH  21  25
ENDBRANCH  16  17
ENDBRANCH   1  16
TORSDOF 7
ENDMDL
MODEL 9
REMARK VINA RESULT:    -6.424      4.646      7.666
REMARK INTER + INTRA:          -9.609
REMARK INTER:                  -8.535
REMARK INTRA:                  -1.075
REMARK UNBOUND:                -0.744
REMARK  Name = 
REMARK  8 active torsions:
REMARK  status: ('A' for Active; 'I' for Inactive)
REMARK    1  A    between atoms: C_1  and  C_2
REMARK    2  A    between atoms: C_2  and  O_3
REMARK    3  A    between atoms: C_5  and  O_6
REMARK    4  A    between atoms: O_6  and  C_7
REMARK    5  A    between atoms: C_11  and  C_12
REMARK    6  A    between atoms: C_12  and  C_13
REMARK    7  A    between atoms: C_13  and  N_14
REMARK    8  A    between atoms: C_18  and  C_19
REMARK                            x       y       z     vdW  Elec       q    Type
REMARK                         _______ _______ _______ _____ _____    ______ ____
ROOT
ATOM      1  C   UNL     1      48.268   9.175  16.671  0.00  0.00    +0.000 C 
ENDROOT
BRANCH   1   6
ATOM      2  C   UNL     1      48.572   7.067  13.460  0.00  0.00    +0.000 A 
ATOM      3  C   UNL     1      49.730   7.602  12.903  0.00  0.00    +0.000 A 
ATOM      4  C   UNL     1      50.435   8.590  13.593  0.00  0.00    +0.000 A 
ATOM      5  C   UNL     1      49.966   9.068  14.817  0.00  0.00    +0.000 A 
ATOM      6  C   UNL     1      48.775   8.576  15.370  0.00  0.00    +0.000 A 
ATOM      7  C   UNL     1      48.095   7.560  14.677  0.00  0.00    +0.000 A 
BRANCH   2   8
ATOM      8  O   UNL     1      47.825   6.066  12.890  0.00  0.00    +0.000 OA
BRANCH   8  12
ATOM      9  C   UNL     1      43.940   3.858  12.066  0.00  0.00    +0.000 C 
ATOM     10  C   UNL     1      44.538   5.105  12.693  0.00  0.00    +0.000 C 
ATOM     11  C   UNL     1      45.536   5.864  11.788  0.00  0.00    +0.000 C 
ATOM     12  C   UNL     1      46.393   6.126  13.055  0.00  0.00    +0.000 C 
ATOM     13  C   UNL     1      45.729   4.864  13.661  0.00  0.00    +0.000 C 
BRANCH  10  14
ATOM     14  O   UNL     1      43.478   5.920  13.242  0.00  0.00    +0.000 OA
ATOM     15  H   UNL     1      43.177   6.483  12.508  0.00  0.00    +0.000 HD
ENDBRANCH  10  14
ENDBRANCH   8  12
ENDBRANCH   2   8
ENDBRANCH   1   6
BRANCH   1  16
ATOM     16  C   UNL     1      48.596   8.344  17.914  0.00  0.00    +0.000 C 
BRANCH  16  17
ATOM     17  N   UNL     1      47.643   7.251  18.140  0.00  0.00    +0.000 N 
ATOM     18  C   UNL     1      48.242   6.001  17.872  0.00  0.00    +0.000 A 
ATOM     19  C   UNL     1      47.481   4.843  18.004  0.00  0.00    +0.000 A 
ATOM     20  C   UNL     1      48.074   3.602  17.749  0.00  0.00    +0.000 A 
ATOM     21  C   UNL     1      49.415   3.534  17.370  0.00  0.00    +0.000 A 
ATOM     22  C   UNL     1      50.100   4.730  17.277  0.00  0.00    +0.000 A 
ATOM     23  N   UNL     1      49.545   5.939  17.523  0.00  0.00    +0.000 NA
ATOM     24  H   UNL     1      46.814   7.339  17.557  0.00  0.00    +0.000 HD
BRANCH  21  25
ATOM     25  C   UNL     1      50.036   2.216  17.092  0.00  0.00    +0.000 C 
ATOM     26  N   UNL     1      51.069   1.787  17.882  0.00  0.00    +0.000 N 
ATOM     27  O   UNL     1      49.643   1.515  16.168  0.00  0.00    +0.000 OA
ATOM     28  H   UNL     1      51.481   2.289  18.653  0.00  0.00    +0.000 HD
ATOM     29  H   UNL     1      51.469   0.887  17.651  0.00  0.00    +0.000 HD
ENDBRANCH  21  25
ENDBRANCH  16  17
ENDBRANCH   1  16
TORSDOF 7
ENDMDL
