MODEL 1
REMARK VINA RESULT:    -8.719      0.000      0.000
REMARK INTER + INTRA:         -11.820
REMARK INTER:                 -11.268
REMARK INTRA:                  -0.552
REMARK UNBOUND:                -0.552
REMARK  Name = 
REMARK  5 active torsions:
REMARK  status: ('A' for Active; 'I' for Inactive)
REMARK    1  A    between atoms: C_2  and  C_4
REMARK    2  A    between atoms: C_7  and  N_8
REMARK    3  A    between atoms: N_8  and  C_9
REMARK    4  A    between atoms: C_9  and  C_10
REMARK    5  A    between atoms: C_14  and  C_15
REMARK                            x       y       z     vdW  Elec       q    Type
REMARK                         _______ _______ _______ _____ _____    ______ ____
ROOT
ATOM      1  C   UNL     1      43.495   4.411  11.126  0.00  0.00    +0.000 C 
ENDROOT
BRANCH   1   2
ATOM      2  C   UNL     1      44.697   4.812  11.945  0.00  0.00    +0.000 A 
ATOM      3  C   UNL     1      45.122   4.041  13.018  0.00  0.00    +0.000 A 
ATOM      4  N   UNL     1      46.175   4.355  13.801  0.00  0.00    +0.000 NA
ATOM      5  C   UNL     1      46.841   5.499  13.500  0.00  0.00    +0.000 A 
ATOM      6  C   UNL     1      46.527   6.365  12.449  0.00  0.00    +0.000 A 
ATOM      7  C   UNL     1      45.417   5.987  11.674  0.00  0.00    +0.000 A 
BRANCH   6   8
ATOM      8  C   UNL     1      47.308   7.595  12.176  0.00  0.00    +0.000 A 
ATOM      9  C   UNL     1      48.663   7.541  11.784  0.00  0.00    +0.000 A 
ATOM     10  C   UNL     1      49.403   8.703  11.526  0.00  0.00    +0.000 A 
ATOM     11  C   UNL     1      48.798   9.948  11.645  0.00  0.00    +0.000 A 
ATOM     12 CL   UNL     1      49.698  11.376  11.319  0.00  0.00    +0.000 Cl
ATOM     13  C   UNL     1      47.464  10.040  12.025  0.00  0.00    +0.000 A 
ATOM     14  C   UNL     1      46.732   8.875  12.293  0.00  0.00    +0.000 A 
ENDBRANCH   6   8
ENDBRANCH   1   2
BRANCH   1  15
ATOM     15  N   UNL     1      43.729   4.762   9.731  0.00  0.00    +0.000 N 
ATOM     16  H   UNL     1      42.870   4.777   9.188  0.00  0.00    +0.000 HD
BRANCH  15  20
ATOM     17  C   UNL     1      46.422   2.348   7.765  0.00  0.00    +0.000 A 
ATOM     18  C   UNL     1      46.406   3.715   7.539  0.00  0.00    +0.000 A 
ATOM     19  N   UNL     1      45.546   4.556   8.181  0.00  0.00    +0.000 NA
ATOM     20  C   UNL     1      44.700   3.994   9.071  0.00  0.00    +0.000 A 
ATOM     21  C   UNL     1      44.741   2.606   9.288  0.00  0.00    +0.000 A 
ATOM     22  N   UNL     1      45.587   1.751   8.658  0.00  0.00    +0.000 NA
BRANCH  17  24
ATOM     23  N   UNL     1      48.473   2.080   6.505  0.00  0.00    +0.000 N 
ATOM     24  C   UNL     1      47.348   1.471   6.995  0.00  0.00    +0.000 C 
ATOM     25  O   UNL     1      47.129   0.279   6.821  0.00  0.00    +0.000 OA
ATOM     26  H   UNL     1      49.160   1.533   6.005  0.00  0.00    +0.000 HD
ATOM     27  H   UNL     1      48.640   3.062   6.692  0.00  0.00    +0.000 HD
ENDBRANCH  17  24
ENDBRANCH  15  20
ENDBRANCH   1  15
TORSDOF 5
ENDMDL
MODEL 2
REMARK VINA RESULT:    -8.438      2.762      3.858
REMARK INTER + INTRA:         -11.456
REMARK INTER:                 -10.840
REMARK INTRA:                  -0.616
REMARK UNBOUND:                -0.552
REMARK  Name = 
REMARK  5 active torsions:
REMARK  status: ('A' for Active; 'I' for Inactive)
REMARK    1  A    between atoms: C_2  and  C_4
REMARK    2  A    between atoms: C_7  and  N_8
REMARK    3  A    between atoms: N_8  and  C_9
REMARK    4  A    between atoms: C_9  and  C_10
REMARK    5  A    between atoms: C_14  and  C_15
REMARK                            x       y       z     vdW  Elec       q    Type
REMARK                         _______ _______ _______ _____ _____    ______ ____
ROOT
ATOM      1  C   UNL     1      43.735   4.599  11.178  0.00  0.00    +0.000 C 
ENDROOT
BRANCH   1   2
ATOM      2  C   UNL     1      44.844   5.396  11.821  0.00  0.00    +0.000 A 
ATOM      3  C   UNL     1      45.260   6.606  11.285  0.00  0.00    +0.000 A 
ATOM      4  N   UNL     1      46.258   7.354  11.799  0.00  0.00    +0.000 NA
ATOM      5  C   UNL     1      46.876   6.871  12.907  0.00  0.00    +0.000 A 
ATOM      6  C   UNL     1      46.559   5.673  13.553  0.00  0.00    +0.000 A 
ATOM      7  C   UNL     1      45.515   4.936  12.966  0.00  0.00    +0.000 A 
BRANCH   6   8
ATOM      8  C   UNL     1      47.274   5.213  14.767  0.00  0.00    +0.000 A 
ATOM      9  C   UNL     1      47.065   3.926  15.307  0.00  0.00    +0.000 A 
ATOM     10  C   UNL     1      47.740   3.490  16.456  0.00  0.00    +0.000 A 
ATOM     11  C   UNL     1      48.648   4.332  17.085  0.00  0.00    +0.000 A 
ATOM     12 CL   UNL     1      49.487   3.798  18.487  0.00  0.00    +0.000 Cl
ATOM     13  C   UNL     1      48.883   5.605  16.579  0.00  0.00    +0.000 A 
ATOM     14  C   UNL     1      48.197   6.040  15.437  0.00  0.00    +0.000 A 
ENDBRANCH   6   8
ENDBRANCH   1   2
BRANCH   1  15
ATOM     15  N   UNL     1      43.780   4.799   9.734  0.00  0.00    +0.000 N 
ATOM     16  H   UNL     1      42.875   4.650   9.297  0.00  0.00    +0.000 HD
BRANCH  15  20
ATOM     17  C   UNL     1      46.522   2.495   7.705  0.00  0.00    +0.000 A 
ATOM     18  C   UNL     1      46.477   3.867   7.516  0.00  0.00    +0.000 A 
ATOM     19  N   UNL     1      45.600   4.673   8.180  0.00  0.00    +0.000 NA
ATOM     20  C   UNL     1      44.766   4.069   9.054  0.00  0.00    +0.000 A 
ATOM     21  C   UNL     1      44.836   2.678   9.234  0.00  0.00    +0.000 A 
ATOM     22  N   UNL     1      45.699   1.857   8.581  0.00  0.00    +0.000 NA
BRANCH  17  24
ATOM     23  N   UNL     1      48.543   2.318   6.383  0.00  0.00    +0.000 N 
ATOM     24  C   UNL     1      47.466   1.658   6.913  0.00  0.00    +0.000 C 
ATOM     25  O   UNL     1      47.301   0.456   6.753  0.00  0.00    +0.000 OA
ATOM     26  H   UNL     1      49.241   1.801   5.866  0.00  0.00    +0.000 HD
ATOM     27  H   UNL     1      48.667   3.308   6.559  0.00  0.00    +0.000 HD
ENDBRANCH  17  24
ENDBRANCH  15  20
ENDBRANCH   1  15
TORSDOF 5
ENDMDL
MODEL 3
REMARK VINA RESULT:    -8.373      1.319      1.814
REMARK INTER + INTRA:         -11.372
REMARK INTER:                 -10.671
REMARK INTRA:                  -0.700
REMARK UNBOUND:                -0.552
REMARK  Name = 
REMARK  5 active torsions:
REMARK  status: ('A' for Active; 'I' for Inactive)
REMARK    1  A    between atoms: C_2  and  C_4
REMARK    2  A    between atoms: C_7  and  N_8
REMARK    3  A    between atoms: N_8  and  C_9
REMARK    4  A    between atoms: C_9  and  C_10
REMARK    5  A    between atoms: C_14  and  C_15
REMARK                            x       y       z     vdW  Elec       q    Type
REMARK                         _______ _______ _______ _____ _____    ______ ____
ROOT
ATOM      1  C   UNL     1      44.007   5.210  10.900  0.00  0.00    +0.000 C 
ENDROOT
BRANCH   1   2
ATOM      2  C   UNL     1      45.105   5.200  11.935  0.00  0.00    +0.000 A 
ATOM      3  C   UNL     1      45.067   4.325  13.011  0.00  0.00    +0.000 A 
ATOM      4  N   UNL     1      46.005   4.280  13.980  0.00  0.00    +0.000 NA
ATOM      5  C   UNL     1      47.038   5.154  13.871  0.00  0.00    +0.000 A 
ATOM      6  C   UNL     1      47.206   6.084  12.842  0.00  0.00    +0.000 A 
ATOM      7  C   UNL     1      46.193   6.086  11.867  0.00  0.00    +0.000 A 
BRANCH   6   8
ATOM      8  C   UNL     1      48.367   7.003  12.785  0.00  0.00    +0.000 A 
ATOM      9  C   UNL     1      48.665   7.752  11.626  0.00  0.00    +0.000 A 
ATOM     10  C   UNL     1      49.763   8.620  11.571  0.00  0.00    +0.000 A 
ATOM     11  C   UNL     1      50.585   8.766  12.681  0.00  0.00    +0.000 A 
ATOM     12 CL   UNL     1      51.928   9.838  12.622  0.00  0.00    +0.000 Cl
ATOM     13  C   UNL     1      50.321   8.048  13.842  0.00  0.00    +0.000 A 
ATOM     14  C   UNL     1      49.228   7.172  13.887  0.00  0.00    +0.000 A 
ENDBRANCH   6   8
ENDBRANCH   1   2
BRANCH   1  15
ATOM     15  N   UNL     1      43.783   3.849  10.429  0.00  0.00    +0.000 N 
ATOM     16  H   UNL     1      43.763   3.176  11.190  0.00  0.00    +0.000 HD
BRANCH  15  20
ATOM     17  C   UNL     1      46.462   2.738   7.509  0.00  0.00    +0.000 A 
ATOM     18  C   UNL     1      45.937   1.796   8.377  0.00  0.00    +0.000 A 
ATOM     19  N   UNL     1      45.032   2.113   9.347  0.00  0.00    +0.000 NA
ATOM     20  C   UNL     1      44.654   3.407   9.422  0.00  0.00    +0.000 A 
ATOM     21  C   UNL     1      45.195   4.343   8.525  0.00  0.00    +0.000 A 
ATOM     22  N   UNL     1      46.099   4.049   7.555  0.00  0.00    +0.000 NA
BRANCH  17  24
ATOM     23  N   UNL     1      47.436   3.011   5.308  0.00  0.00    +0.000 N 
ATOM     24  C   UNL     1      47.488   2.343   6.503  0.00  0.00    +0.000 C 
ATOM     25  O   UNL     1      48.333   1.487   6.729  0.00  0.00    +0.000 OA
ATOM     26  H   UNL     1      48.126   2.817   4.596  0.00  0.00    +0.000 HD
ATOM     27  H   UNL     1      46.743   3.737   5.163  0.00  0.00    +0.000 HD
ENDBRANCH  17  24
ENDBRANCH  15  20
ENDBRANCH   1  15
TORSDOF 5
ENDMDL
MODEL 4
REMARK VINA RESULT:    -7.918      4.648      7.647
REMARK INTER + INTRA:         -10.784
REMARK INTER:                 -10.183
REMARK INTRA:                  -0.601
REMARK UNBOUND:                -0.552
REMARK  Name = 
REMARK  5 active torsions:
REMARK  status: ('A' for Active; 'I' for Inactive)
REMARK    1  A    between atoms: C_2  and  C_4
REMARK    2  A    between atoms: C_7  and  N_8
REMARK    3  A    between atoms: N_8  and  C_9
REMARK    4  A    between atoms: C_9  and  C_10
REMARK    5  A    between atoms: C_14  and  C_15
REMARK                            x       y       z     vdW  Elec       q    Type
REMARK                         _______ _______ _______ _____ _____    ______ ____
ROOT
ATOM      1  C   UNL     1      44.959   5.481  13.241  0.00  0.00    +0.000 C 
ENDROOT
BRANCH   1   2
ATOM      2  C   UNL     1      44.560   4.405  12.261  0.00  0.00    +0.000 A 
ATOM      3  C   UNL     1      43.493   3.558  12.522  0.00  0.00    +0.000 A 
ATOM      4  N   UNL     1      43.100   2.565  11.698  0.00  0.00    +0.000 NA
ATOM      5  C   UNL     1      43.808   2.406  10.551  0.00  0.00    +0.000 A 
ATOM      6  C   UNL     1      44.899   3.186  10.159  0.00  0.00    +0.000 A 
ATOM      7  C   UNL     1      45.264   4.200  11.063  0.00  0.00    +0.000 A 
BRANCH   6   8
ATOM      8  C   UNL     1      45.620   2.958   8.885  0.00  0.00    +0.000 A 
ATOM      9  C   UNL     1      46.059   1.672   8.501  0.00  0.00    +0.000 A 
ATOM     10  C   UNL     1      46.742   1.455   7.297  0.00  0.00    +0.000 A 
ATOM     11  C   UNL     1      46.993   2.522   6.443  0.00  0.00    +0.000 A 
ATOM     12 CL   UNL     1      47.820   2.259   4.959  0.00  0.00    +0.000 Cl
ATOM     13  C   UNL     1      46.572   3.801   6.785  0.00  0.00    +0.000 A 
ATOM     14  C   UNL     1      45.899   4.014   7.996  0.00  0.00    +0.000 A 
ENDBRANCH   6   8
ENDBRANCH   1   2
BRANCH   1  15
ATOM     15  N   UNL     1      46.410   5.625  13.227  0.00  0.00    +0.000 N 
ATOM     16  H   UNL     1      46.829   5.219  12.395  0.00  0.00    +0.000 HD
BRANCH  15  20
ATOM     17  C   UNL     1      48.353   4.476  16.668  0.00  0.00    +0.000 A 
ATOM     18  C   UNL     1      47.378   3.668  16.107  0.00  0.00    +0.000 A 
ATOM     19  N   UNL     1      46.721   3.997  14.958  0.00  0.00    +0.000 NA
ATOM     20  C   UNL     1      47.074   5.162  14.372  0.00  0.00    +0.000 A 
ATOM     21  C   UNL     1      48.071   5.960  14.957  0.00  0.00    +0.000 A 
ATOM     22  N   UNL     1      48.734   5.653  16.101  0.00  0.00    +0.000 NA
BRANCH  17  24
ATOM     23  N   UNL     1      48.222   3.360  18.813  0.00  0.00    +0.000 N 
ATOM     24  C   UNL     1      48.999   4.091  17.954  0.00  0.00    +0.000 C 
ATOM     25  O   UNL     1      50.154   4.393  18.224  0.00  0.00    +0.000 OA
ATOM     26  H   UNL     1      48.613   3.035  19.687  0.00  0.00    +0.000 HD
ATOM     27  H   UNL     1      47.280   3.099  18.547  0.00  0.00    +0.000 HD
ENDBRANCH  17  24
ENDBRANCH  15  20
ENDBRANCH   1  15
TORSDOF 5
ENDMDL
MODEL 5
REMARK VINA RESULT:    -7.605      3.895      6.669
REMARK INTER + INTRA:         -10.380
REMARK INTER:                  -9.604
REMARK INTRA:                  -0.777
REMARK UNBOUND:                -0.552
REMARK  Name = 
REMARK  5 active torsions:
REMARK  status: ('A' for Active; 'I' for Inactive)
REMARK    1  A    between atoms: C_2  and  C_4
REMARK    2  A    between atoms: C_7  and  N_8
REMARK    3  A    between atoms: N_8  and  C_9
REMARK    4  A    between atoms: C_9  and  C_10
REMARK    5  A    between atoms: C_14  and  C_15
REMARK                            x       y       z     vdW  Elec       q    Type
REMARK                         _______ _______ _______ _____ _____    ______ ____
ROOT
ATOM      1  C   UNL     1      44.063   6.271  12.260  0.00  0.00    +0.000 C 
ENDROOT
BRANCH   1   2
ATOM      2  C   UNL     1      44.035   4.924  11.581  0.00  0.00    +0.000 A 
ATOM      3  C   UNL     1      43.235   3.897  12.060  0.00  0.00    +0.000 A 
ATOM      4  N   UNL     1      43.181   2.666  11.512  0.00  0.00    +0.000 NA
ATOM      5  C   UNL     1      43.968   2.444  10.428  0.00  0.00    +0.000 A 
ATOM      6  C   UNL     1      44.816   3.385   9.839  0.00  0.00    +0.000 A 
ATOM      7  C   UNL     1      44.833   4.646  10.459  0.00  0.00    +0.000 A 
BRANCH   6   8
ATOM      8  C   UNL     1      45.641   3.072   8.647  0.00  0.00    +0.000 A 
ATOM      9  C   UNL     1      46.096   1.761   8.384  0.00  0.00    +0.000 A 
ATOM     10  C   UNL     1      46.877   1.464   7.259  0.00  0.00    +0.000 A 
ATOM     11  C   UNL     1      47.213   2.474   6.365  0.00  0.00    +0.000 A 
ATOM     12 CL   UNL     1      48.161   2.112   4.977  0.00  0.00    +0.000 Cl
ATOM     13  C   UNL     1      46.779   3.775   6.589  0.00  0.00    +0.000 A 
ATOM     14  C   UNL     1      46.008   4.068   7.722  0.00  0.00    +0.000 A 
ENDBRANCH   6   8
ENDBRANCH   1   2
BRANCH   1  15
ATOM     15  N   UNL     1      45.081   6.259  13.303  0.00  0.00    +0.000 N 
ATOM     16  H   UNL     1      44.752   6.678  14.168  0.00  0.00    +0.000 HD
BRANCH  15  20
ATOM     17  C   UNL     1      48.765   7.687  12.149  0.00  0.00    +0.000 A 
ATOM     18  C   UNL     1      47.647   8.505  12.104  0.00  0.00    +0.000 A 
ATOM     19  N   UNL     1      46.411   8.082  12.495  0.00  0.00    +0.000 NA
ATOM     20  C   UNL     1      46.320   6.812  12.945  0.00  0.00    +0.000 A 
ATOM     21  C   UNL     1      47.469   6.005  12.987  0.00  0.00    +0.000 A 
ATOM     22  N   UNL     1      48.708   6.405  12.600  0.00  0.00    +0.000 NA
BRANCH  17  24
ATOM     23  N   UNL     1      51.066   7.243  11.538  0.00  0.00    +0.000 N 
ATOM     24  C   UNL     1      50.080   8.186  11.659  0.00  0.00    +0.000 C 
ATOM     25  O   UNL     1      50.269   9.360  11.369  0.00  0.00    +0.000 OA
ATOM     26  H   UNL     1      51.971   7.509  11.176  0.00  0.00    +0.000 HD
ATOM     27  H   UNL     1      50.869   6.273  11.757  0.00  0.00    +0.000 HD
ENDBRANCH  17  24
ENDBRANCH  15  20
ENDBRANCH   1  15
TORSDOF 5
ENDMDL
MODEL 6
REMARK VINA RESULT:    -7.537      4.289      7.229
REMARK INTER + INTRA:         -10.292
REMARK INTER:                  -9.674
REMARK INTRA:                  -0.618
REMARK UNBOUND:                -0.552
REMARK  Name = 
REMARK  5 active torsions:
REMARK  status: ('A' for Active; 'I' for Inactive)
REMARK    1  A    between atoms: C_2  and  C_4
REMARK    2  A    between atoms: C_7  and  N_8
REMARK    3  A    between atoms: N_8  and  C_9
REMARK    4  A    between atoms: C_9  and  C_10
REMARK    5  A    between atoms: C_14  and  C_15
REMARK                            x       y       z     vdW  Elec       q    Type
REMARK                         _______ _______ _______ _____ _____    ______ ____
ROOT
ATOM      1  C   UNL     1      44.330   6.191  12.724  0.00  0.00    +0.000 C 
ENDROOT
BRANCH   1   2
ATOM      2  C   UNL     1      44.169   4.906  11.948  0.00  0.00    +0.000 A 
ATOM      3  C   UNL     1      43.283   3.924  12.366  0.00  0.00    +0.000 A 
ATOM      4  N   UNL     1      43.108   2.747  11.730  0.00  0.00    +0.000 NA
ATOM      5  C   UNL     1      43.857   2.537  10.617  0.00  0.00    +0.000 A 
ATOM      6  C   UNL     1      44.781   3.438  10.082  0.00  0.00    +0.000 A 
ATOM      7  C   UNL     1      44.922   4.642  10.793  0.00  0.00    +0.000 A 
BRANCH   6   8
ATOM      8  C   UNL     1      45.558   3.141   8.855  0.00  0.00    +0.000 A 
ATOM      9  C   UNL     1      45.928   4.159   7.948  0.00  0.00    +0.000 A 
ATOM     10  C   UNL     1      46.661   3.880   6.787  0.00  0.00    +0.000 A 
ATOM     11  C   UNL     1      47.049   2.574   6.512  0.00  0.00    +0.000 A 
ATOM     12 CL   UNL     1      47.959   2.229   5.094  0.00  0.00    +0.000 Cl
ATOM     13  C   UNL     1      46.707   1.547   7.384  0.00  0.00    +0.000 A 
ATOM     14  C   UNL     1      45.963   1.831   8.537  0.00  0.00    +0.000 A 
ENDBRANCH   6   8
ENDBRANCH   1   2
BRANCH   1  15
ATOM     15  N   UNL     1      45.482   6.919  12.207  0.00  0.00    +0.000 N 
ATOM     16  H   UNL     1      45.800   6.552  11.315  0.00  0.00    +0.000 HD
BRANCH  15  20
ATOM     17  C   UNL     1      48.763   7.104  14.686  0.00  0.00    +0.000 A 
ATOM     18  C   UNL     1      48.139   8.264  14.255  0.00  0.00    +0.000 A 
ATOM     19  N   UNL     1      47.039   8.252  13.450  0.00  0.00    +0.000 NA
ATOM     20  C   UNL     1      46.566   7.039  13.090  0.00  0.00    +0.000 A 
ATOM     21  C   UNL     1      47.211   5.878  13.546  0.00  0.00    +0.000 A 
ATOM     22  N   UNL     1      48.309   5.868  14.345  0.00  0.00    +0.000 NA
BRANCH  17  24
ATOM     23  N   UNL     1      51.168   7.345  14.836  0.00  0.00    +0.000 N 
ATOM     24  C   UNL     1      49.994   7.180  15.522  0.00  0.00    +0.000 C 
ATOM     25  O   UNL     1      49.962   7.112  16.743  0.00  0.00    +0.000 OA
ATOM     26  H   UNL     1      52.035   7.441  15.345  0.00  0.00    +0.000 HD
ATOM     27  H   UNL     1      51.157   7.428  13.825  0.00  0.00    +0.000 HD
ENDBRANCH  17  24
ENDBRANCH  15  20
ENDBRANCH   1  15
TORSDOF 5
ENDMDL
MODEL 7
REMARK VINA RESULT:    -6.419      2.264      2.944
REMARK INTER + INTRA:          -8.847
REMARK INTER:                  -8.316
REMARK INTRA:                  -0.530
REMARK UNBOUND:                -0.552
REMARK  Name = 
REMARK  5 active torsions:
REMARK  status: ('A' for Active; 'I' for Inactive)
REMARK    1  A    between atoms: C_2  and  C_4
REMARK    2  A    between atoms: C_7  and  N_8
REMARK    3  A    between atoms: N_8  and  C_9
REMARK    4  A    between atoms: C_9  and  C_10
REMARK    5  A    between atoms: C_14  and  C_15
REMARK                            x       y       z     vdW  Elec       q    Type
REMARK                         _______ _______ _______ _____ _____    ______ ____
ROOT
ATOM      1  C   UNL     1      43.769   5.844  11.004  0.00  0.00    +0.000 C 
ENDROOT
BRANCH   1   2
ATOM      2  C   UNL     1      44.559   7.051  11.448  0.00  0.00    +0.000 A 
ATOM      3  C   UNL     1      44.075   8.336  11.248  0.00  0.00    +0.000 A 
ATOM      4  N   UNL     1      44.740   9.455  11.602  0.00  0.00    +0.000 NA
ATOM      5  C   UNL     1      45.954   9.286  12.187  0.00  0.00    +0.000 A 
ATOM      6  C   UNL     1      46.558   8.054  12.452  0.00  0.00    +0.000 A 
ATOM      7  C   UNL     1      45.819   6.927  12.054  0.00  0.00    +0.000 A 
BRANCH   6   8
ATOM      8  C   UNL     1      47.886   7.947  13.104  0.00  0.00    +0.000 A 
ATOM      9  C   UNL     1      48.056   7.277  14.335  0.00  0.00    +0.000 A 
ATOM     10  C   UNL     1      49.310   7.176  14.952  0.00  0.00    +0.000 A 
ATOM     11  C   UNL     1      50.426   7.737  14.344  0.00  0.00    +0.000 A 
ATOM     12 CL   UNL     1      51.969   7.606  15.092  0.00  0.00    +0.000 Cl
ATOM     13  C   UNL     1      50.298   8.401  13.129  0.00  0.00    +0.000 A 
ATOM     14  C   UNL     1      49.040   8.509  12.522  0.00  0.00    +0.000 A 
ENDBRANCH   6   8
ENDBRANCH   1   2
BRANCH   1  15
ATOM     15  N   UNL     1      44.578   4.647  11.200  0.00  0.00    +0.000 N 
ATOM     16  H   UNL     1      45.348   4.804  11.844  0.00  0.00    +0.000 HD
BRANCH  15  20
ATOM     17  C   UNL     1      46.141   3.005   7.764  0.00  0.00    +0.000 A 
ATOM     18  C   UNL     1      45.561   2.198   8.730  0.00  0.00    +0.000 A 
ATOM     19  N   UNL     1      45.013   2.698   9.874  0.00  0.00    +0.000 NA
ATOM     20  C   UNL     1      45.051   4.039  10.027  0.00  0.00    +0.000 A 
ATOM     21  C   UNL     1      45.637   4.836   9.030  0.00  0.00    +0.000 A 
ATOM     22  N   UNL     1      46.190   4.359   7.885  0.00  0.00    +0.000 NA
BRANCH  17  24
ATOM     23  N   UNL     1      47.013   3.257   5.519  0.00  0.00    +0.000 N 
ATOM     24  C   UNL     1      46.771   2.398   6.559  0.00  0.00    +0.000 C 
ATOM     25  O   UNL     1      47.068   1.212   6.500  0.00  0.00    +0.000 OA
ATOM     26  H   UNL     1      47.472   2.917   4.686  0.00  0.00    +0.000 HD
ATOM     27  H   UNL     1      46.783   4.240   5.610  0.00  0.00    +0.000 HD
ENDBRANCH  17  24
ENDBRANCH  15  20
ENDBRANCH   1  15
TORSDOF 5
ENDMDL
MODEL 8
REMARK VINA RESULT:    -6.364      4.784      7.891
REMARK INTER + INTRA:          -8.776
REMARK INTER:                  -8.134
REMARK INTRA:                  -0.642
REMARK UNBOUND:                -0.552
REMARK  Name = 
REMARK  5 active torsions:
REMARK  status: ('A' for Active; 'I' for Inactive)
REMARK    1  A    between atoms: C_2  and  C_4
REMARK    2  A    between atoms: C_7  and  N_8
REMARK    3  A    between atoms: N_8  and  C_9
REMARK    4  A    between atoms: C_9  and  C_10
REMARK    5  A    between atoms: C_14  and  C_15
REMARK                            x       y       z     vdW  Elec       q    Type
REMARK                         _______ _______ _______ _____ _____    ______ ____
ROOT
ATOM      1  C   UNL     1      48.621   8.175  14.105  0.00  0.00    +0.000 C 
ENDROOT
BRANCH   1   2
ATOM      2  C   UNL     1      47.368   8.033  13.275  0.00  0.00    +0.000 A 
ATOM      3  C   UNL     1      46.445   9.066  13.190  0.00  0.00    +0.000 A 
ATOM      4  N   UNL     1      45.298   8.995  12.484  0.00  0.00    +0.000 NA
ATOM      5  C   UNL     1      45.056   7.832  11.826  0.00  0.00    +0.000 A 
ATOM      6  C   UNL     1      45.897   6.716  11.820  0.00  0.00    +0.000 A 
ATOM      7  C   UNL     1      47.073   6.850  12.579  0.00  0.00    +0.000 A 
BRANCH   6   8
ATOM      8  C   UNL     1      45.570   5.481  11.069  0.00  0.00    +0.000 A 
ATOM      9  C   UNL     1      45.666   5.421   9.662  0.00  0.00    +0.000 A 
ATOM     10  C   UNL     1      45.356   4.254   8.950  0.00  0.00    +0.000 A 
ATOM     11  C   UNL     1      44.950   3.115   9.635  0.00  0.00    +0.000 A 
ATOM     12 CL   UNL     1      44.579   1.678   8.768  0.00  0.00    +0.000 Cl
ATOM     13  C   UNL     1      44.848   3.135  11.021  0.00  0.00    +0.000 A 
ATOM     14  C   UNL     1      45.148   4.309  11.726  0.00  0.00    +0.000 A 
ENDBRANCH   6   8
ENDBRANCH   1   2
BRANCH   1  15
ATOM     15  N   UNL     1      48.293   7.945  15.506  0.00  0.00    +0.000 N 
ATOM     16  H   UNL     1      48.428   8.776  16.075  0.00  0.00    +0.000 HD
BRANCH  15  20
ATOM     17  C   UNL     1      50.090   4.598  17.090  0.00  0.00    +0.000 A 
ATOM     18  C   UNL     1      50.735   5.823  17.119  0.00  0.00    +0.000 A 
ATOM     19  N   UNL     1      50.171   6.963  16.625  0.00  0.00    +0.000 NA
ATOM     20  C   UNL     1      48.931   6.847  16.104  0.00  0.00    +0.000 A 
ATOM     21  C   UNL     1      48.295   5.595  16.092  0.00  0.00    +0.000 A 
ATOM     22  N   UNL     1      48.840   4.448  16.576  0.00  0.00    +0.000 NA
BRANCH  17  24
ATOM     23  N   UNL     1      51.472   3.528  18.767  0.00  0.00    +0.000 N 
ATOM     24  C   UNL     1      50.777   3.376  17.596  0.00  0.00    +0.000 C 
ATOM     25  O   UNL     1      50.715   2.301  17.015  0.00  0.00    +0.000 OA
ATOM     26  H   UNL     1      51.929   2.730  19.184  0.00  0.00    +0.000 HD
ATOM     27  H   UNL     1      51.478   4.425  19.239  0.00  0.00    +0.000 HD
ENDBRANCH  17  24
ENDBRANCH  15  20
ENDBRANCH   1  15
TORSDOF 5
ENDMDL
MODEL 9
REMARK VINA RESULT:    -5.775      5.015      8.164
REMARK INTER + INTRA:          -8.016
REMARK INTER:                  -7.595
REMARK INTRA:                  -0.421
REMARK UNBOUND:                -0.552
REMARK  Name = 
REMARK  5 active torsions:
REMARK  status: ('A' for Active; 'I' for Inactive)
REMARK    1  A    between atoms: C_2  and  C_4
REMARK    2  A    between atoms: C_7  and  N_8
REMARK    3  A    between atoms: N_8  and  C_9
REMARK    4  A    between atoms: C_9  and  C_10
REMARK    5  A    between atoms: C_14  and  C_15
REMARK                            x       y       z     vdW  Elec       q    Type
REMARK                         _______ _______ _______ _____ _____    ______ ____
ROOT
ATOM      1  C   UNL     1      50.179   8.490  15.557  0.00  0.00    +0.000 C 
ENDROOT
BRANCH   1   2
ATOM      2  C   UNL     1      49.755   8.111  14.159  0.00  0.00    +0.000 A 
ATOM      3  C   UNL     1      50.515   8.476  13.057  0.00  0.00    +0.000 A 
ATOM      4  N   UNL     1      50.180   8.187  11.782  0.00  0.00    +0.000 NA
ATOM      5  C   UNL     1      49.026   7.497  11.594  0.00  0.00    +0.000 A 
ATOM      6  C   UNL     1      48.169   7.063  12.609  0.00  0.00    +0.000 A 
ATOM      7  C   UNL     1      48.568   7.400  13.914  0.00  0.00    +0.000 A 
BRANCH   6   8
ATOM      8  C   UNL     1      46.927   6.305  12.327  0.00  0.00    +0.000 A 
ATOM      9  C   UNL     1      46.354   6.275  11.037  0.00  0.00    +0.000 A 
ATOM     10  C   UNL     1      45.179   5.559  10.769  0.00  0.00    +0.000 A 
ATOM     11  C   UNL     1      44.556   4.848  11.787  0.00  0.00    +0.000 A 
ATOM     12 CL   UNL     1      43.120   3.960  11.461  0.00  0.00    +0.000 Cl
ATOM     13  C   UNL     1      45.094   4.851  13.069  0.00  0.00    +0.000 A 
ATOM     14  C   UNL     1      46.262   5.578  13.333  0.00  0.00    +0.000 A 
ENDBRANCH   6   8
ENDBRANCH   1   2
BRANCH   1  15
ATOM     15  N   UNL     1      50.988   7.415  16.118  0.00  0.00    +0.000 N 
ATOM     16  H   UNL     1      51.657   7.047  15.447  0.00  0.00    +0.000 HD
BRANCH  15  20
ATOM     17  C   UNL     1      48.700   4.400  17.734  0.00  0.00    +0.000 A 
ATOM     18  C   UNL     1      49.994   4.150  17.307  0.00  0.00    +0.000 A 
ATOM     19  N   UNL     1      50.796   5.120  16.783  0.00  0.00    +0.000 NA
ATOM     20  C   UNL     1      50.271   6.362  16.705  0.00  0.00    +0.000 A 
ATOM     21  C   UNL     1      48.960   6.592  17.153  0.00  0.00    +0.000 A 
ATOM     22  N   UNL     1      48.144   5.640  17.674  0.00  0.00    +0.000 NA
BRANCH  17  24
ATOM     23  N   UNL     1      48.181   2.817  19.492  0.00  0.00    +0.000 N 
ATOM     24  C   UNL     1      47.852   3.289  18.249  0.00  0.00    +0.000 C 
ATOM     25  O   UNL     1      46.912   2.832  17.612  0.00  0.00    +0.000 OA
ATOM     26  H   UNL     1      47.623   2.089  19.915  0.00  0.00    +0.000 HD
ATOM     27  H   UNL     1      48.947   3.237  20.007  0.00  0.00    +0.000 HD
ENDBRANCH  17  24
ENDBRANCH  15  20
ENDBRANCH   1  15
TORSDOF 5
ENDMDL
