MODEL 1
REMARK VINA RESULT:    -6.872      0.000      0.000
REMARK INTER + INTRA:         -11.356
REMARK INTER:                 -10.488
REMARK INTRA:                  -0.868
REMARK UNBOUND:                -0.868
REMARK  Name = 
REMARK  12 active torsions:
REMARK  status: ('A' for Active; 'I' for Inactive)
REMARK    1  A    between atoms: C_1  and  C_2
REMARK    2  A    between atoms: C_2  and  C_3
REMARK    3  A    between atoms: C_2  and  C_4
REMARK    4  A    between atoms: C_2  and  O_5
REMARK    5  A    between atoms: O_5  and  C_6
REMARK    6  A    between atoms: C_6  and  C_7
REMARK    7  A    between atoms: C_7  and  N_8
REMARK    8  A    between atoms: N_8  and  C_9
REMARK    9  A    between atoms: C_9  and  C_10
REMARK   10  A    between atoms: C_13  and  C_14
REMARK   11  A    between atoms: C_14  and  N_15
REMARK   12  A    between atoms: C_20  and  C_21
REMARK                            x       y       z     vdW  Elec       q    Type
REMARK                         _______ _______ _______ _____ _____    ______ ____
ROOT
ATOM      1  C   UNL     1      46.660   8.106  13.057  0.00  0.00    +0.000 A 
ATOM      2  C   UNL     1      45.788   8.725  12.156  0.00  0.00    +0.000 A 
ATOM      3  C   UNL     1      44.762   7.996  11.562  0.00  0.00    +0.000 A 
ATOM      4  C   UNL     1      44.643   6.642  11.858  0.00  0.00    +0.000 A 
ATOM      5  N   UNL     1      45.467   6.022  12.740  0.00  0.00    +0.000 NA
ATOM      6  C   UNL     1      46.438   6.761  13.326  0.00  0.00    +0.000 A 
ENDROOT
BRANCH   1   7
ATOM      7  C   UNL     1      47.812   8.845  13.679  0.00  0.00    +0.000 C 
BRANCH   7   8
ATOM      8  N   UNL     1      47.867   8.620  15.116  0.00  0.00    +0.000 NA
ATOM      9  H   UNL     1      47.821   9.500  15.622  0.00  0.00    +0.000 HD
BRANCH   8  10
ATOM     10  C   UNL     1      49.071   7.884  15.508  0.00  0.00    +0.000 C 
BRANCH  10  11
ATOM     11  C   UNL     1      48.762   6.851  16.603  0.00  0.00    +0.000 C 
BRANCH  11  12
ATOM     12  O   UNL     1      48.805   5.525  16.074  0.00  0.00    +0.000 OA
BRANCH  12  14
ATOM     13  C   UNL     1      49.932   3.972  17.611  0.00  0.00    +0.000 C 
ATOM     14  C   UNL     1      48.604   4.454  17.010  0.00  0.00    +0.000 C 
ATOM     15  C   UNL     1      47.834   3.300  16.360  0.00  0.00    +0.000 C 
ATOM     16  C   UNL     1      47.747   5.034  18.147  0.00  0.00    +0.000 C 
ENDBRANCH  12  14
ENDBRANCH  11  12
ENDBRANCH  10  11
ENDBRANCH   8  10
ENDBRANCH   7   8
ENDBRANCH   1   7
BRANCH   4  17
ATOM     17  C   UNL     1      43.689   5.771  11.088  0.00  0.00    +0.000 C 
BRANCH  17  18
ATOM     18  N   UNL     1      44.196   4.437  10.772  0.00  0.00    +0.000 N 
ATOM     19  C   UNL     1      43.650   3.269  11.257  0.00  0.00    +0.000 A 
ATOM     20  C   UNL     1      44.065   2.237  10.441  0.00  0.00    +0.000 A 
ATOM     21  C   UNL     1      44.915   2.788   9.454  0.00  0.00    +0.000 A 
ATOM     22  N   UNL     1      45.510   2.169   8.404  0.00  0.00    +0.000 NA
ATOM     23  C   UNL     1      46.269   2.997   7.631  0.00  0.00    +0.000 A 
ATOM     24  C   UNL     1      46.493   4.350   7.864  0.00  0.00    +0.000 A 
ATOM     25  C   UNL     1      45.869   4.965   8.942  0.00  0.00    +0.000 A 
ATOM     26  C   UNL     1      45.044   4.151   9.721  0.00  0.00    +0.000 A 
BRANCH  23  27
ATOM     27  C   UNL     1      46.871   2.377   6.404  0.00  0.00    +0.000 C 
ATOM     28  N   UNL     1      47.061   3.221   5.344  0.00  0.00    +0.000 N 
ATOM     29  O   UNL     1      47.195   1.197   6.346  0.00  0.00    +0.000 OA
ATOM     30  H   UNL     1      46.816   4.201   5.434  0.00  0.00    +0.000 HD
ATOM     31  H   UNL     1      47.499   2.872   4.505  0.00  0.00    +0.000 HD
ENDBRANCH  23  27
ENDBRANCH  17  18
ENDBRANCH   4  17
TORSDOF 9
ENDMDL
MODEL 2
REMARK VINA RESULT:    -6.314      2.176      3.365
REMARK INTER + INTRA:         -10.504
REMARK INTER:                  -9.348
REMARK INTRA:                  -1.156
REMARK UNBOUND:                -0.868
REMARK  Name = 
REMARK  12 active torsions:
REMARK  status: ('A' for Active; 'I' for Inactive)
REMARK    1  A    between atoms: C_1  and  C_2
REMARK    2  A    between atoms: C_2  and  C_3
REMARK    3  A    between atoms: C_2  and  C_4
REMARK    4  A    between atoms: C_2  and  O_5
REMARK    5  A    between atoms: O_5  and  C_6
REMARK    6  A    between atoms: C_6  and  C_7
REMARK    7  A    between atoms: C_7  and  N_8
REMARK    8  A    between atoms: N_8  and  C_9
REMARK    9  A    between atoms: C_9  and  C_10
REMARK   10  A    between atoms: C_13  and  C_14
REMARK   11  A    between atoms: C_14  and  N_15
REMARK   12  A    between atoms: C_20  and  C_21
REMARK                            x       y       z     vdW  Elec       q    Type
REMARK                         _______ _______ _______ _____ _____    ______ ____
ROOT
ATOM      1  C   UNL     1      46.565   8.198  13.216  0.00  0.00    +0.000 A 
ATOM      2  C   UNL     1      46.819   6.828  13.089  0.00  0.00    +0.000 A 
ATOM      3  C   UNL     1      46.008   6.038  12.279  0.00  0.00    +0.000 A 
ATOM      4  C   UNL     1      44.932   6.630  11.627  0.00  0.00    +0.000 A 
ATOM      5  N   UNL     1      44.674   7.958  11.721  0.00  0.00    +0.000 NA
ATOM      6  C   UNL     1      45.494   8.709  12.493  0.00  0.00    +0.000 A 
ENDROOT
BRANCH   1   7
ATOM      7  C   UNL     1      47.384   9.073  14.122  0.00  0.00    +0.000 C 
BRANCH   7   8
ATOM      8  N   UNL     1      47.972   8.303  15.208  0.00  0.00    +0.000 NA
ATOM      9  H   UNL     1      47.514   8.513  16.090  0.00  0.00    +0.000 HD
BRANCH   8  10
ATOM     10  C   UNL     1      49.413   8.539  15.327  0.00  0.00    +0.000 C 
BRANCH  10  11
ATOM     11  C   UNL     1      50.164   8.056  14.078  0.00  0.00    +0.000 C 
BRANCH  11  12
ATOM     12  O   UNL     1      50.637   9.164  13.311  0.00  0.00    +0.000 OA
BRANCH  12  14
ATOM     13  C   UNL     1      49.577  10.161  11.329  0.00  0.00    +0.000 C 
ATOM     14  C   UNL     1      50.496   9.065  11.885  0.00  0.00    +0.000 C 
ATOM     15  C   UNL     1      50.007   7.670  11.484  0.00  0.00    +0.000 C 
ATOM     16  C   UNL     1      51.903   9.276  11.300  0.00  0.00    +0.000 C 
ENDBRANCH  12  14
ENDBRANCH  11  12
ENDBRANCH  10  11
ENDBRANCH   8  10
ENDBRANCH   7   8
ENDBRANCH   1   7
BRANCH   4  17
ATOM     17  C   UNL     1      43.912   5.787  10.912  0.00  0.00    +0.000 C 
BRANCH  17  18
ATOM     18  N   UNL     1      44.350   4.429  10.598  0.00  0.00    +0.000 N 
ATOM     19  C   UNL     1      43.751   3.291  11.092  0.00  0.00    +0.000 A 
ATOM     20  C   UNL     1      44.108   2.236  10.278  0.00  0.00    +0.000 A 
ATOM     21  C   UNL     1      44.977   2.740   9.282  0.00  0.00    +0.000 A 
ATOM     22  N   UNL     1      45.532   2.088   8.231  0.00  0.00    +0.000 NA
ATOM     23  C   UNL     1      46.325   2.875   7.448  0.00  0.00    +0.000 A 
ATOM     24  C   UNL     1      46.617   4.216   7.673  0.00  0.00    +0.000 A 
ATOM     25  C   UNL     1      46.033   4.866   8.753  0.00  0.00    +0.000 A 
ATOM     26  C   UNL     1      45.174   4.097   9.542  0.00  0.00    +0.000 A 
BRANCH  23  27
ATOM     27  C   UNL     1      46.886   2.221   6.220  0.00  0.00    +0.000 C 
ATOM     28  N   UNL     1      47.125   3.053   5.160  0.00  0.00    +0.000 N 
ATOM     29  O   UNL     1      47.138   1.023   6.159  0.00  0.00    +0.000 OA
ATOM     30  H   UNL     1      46.941   4.046   5.251  0.00  0.00    +0.000 HD
ATOM     31  H   UNL     1      47.540   2.679   4.319  0.00  0.00    +0.000 HD
ENDBRANCH  23  27
ENDBRANCH  17  18
ENDBRANCH   4  17
TORSDOF 9
ENDMDL
MODEL 3
REMARK VINA RESULT:    -5.950      2.923      4.656
REMARK INTER + INTRA:          -9.949
REMARK INTER:                  -8.402
REMARK INTRA:                  -1.546
REMARK UNBOUND:                -0.868
REMARK  Name = 
REMARK  12 active torsions:
REMARK  status: ('A' for Active; 'I' for Inactive)
REMARK    1  A    between atoms: C_1  and  C_2
REMARK    2  A    between atoms: C_2  and  C_3
REMARK    3  A    between atoms: C_2  and  C_4
REMARK    4  A    between atoms: C_2  and  O_5
REMARK    5  A    between atoms: O_5  and  C_6
REMARK    6  A    between atoms: C_6  and  C_7
REMARK    7  A    between atoms: C_7  and  N_8
REMARK    8  A    between atoms: N_8  and  C_9
REMARK    9  A    between atoms: C_9  and  C_10
REMARK   10  A    between atoms: C_13  and  C_14
REMARK   11  A    between atoms: C_14  and  N_15
REMARK   12  A    between atoms: C_20  and  C_21
REMARK                            x       y       z     vdW  Elec       q    Type
REMARK                         _______ _______ _______ _____ _____    ______ ____
ROOT
ATOM      1  C   UNL     1      49.445   8.001  16.380  0.00  0.00    +0.000 A 
ATOM      2  C   UNL     1      50.099   7.324  15.346  0.00  0.00    +0.000 A 
ATOM      3  C   UNL     1      49.714   7.523  14.024  0.00  0.00    +0.000 A 
ATOM      4  C   UNL     1      48.652   8.382  13.757  0.00  0.00    +0.000 A 
ATOM      5  N   UNL     1      48.011   9.061  14.740  0.00  0.00    +0.000 NA
ATOM      6  C   UNL     1      48.424   8.871  16.016  0.00  0.00    +0.000 A 
ENDROOT
BRANCH   1   7
ATOM      7  C   UNL     1      49.796   7.772  17.823  0.00  0.00    +0.000 C 
BRANCH   7   8
ATOM      8  N   UNL     1      48.615   7.432  18.604  0.00  0.00    +0.000 NA
ATOM      9  H   UNL     1      48.138   8.271  18.923  0.00  0.00    +0.000 HD
BRANCH   8  10
ATOM     10  C   UNL     1      48.944   6.581  19.750  0.00  0.00    +0.000 C 
BRANCH  10  11
ATOM     11  C   UNL     1      48.352   5.173  19.588  0.00  0.00    +0.000 C 
BRANCH  11  12
ATOM     12  O   UNL     1      47.571   5.086  18.395  0.00  0.00    +0.000 OA
BRANCH  12  14
ATOM     13  C   UNL     1      49.540   3.927  17.489  0.00  0.00    +0.000 C 
ATOM     14  C   UNL     1      48.026   4.162  17.395  0.00  0.00    +0.000 C 
ATOM     15  C   UNL     1      47.620   4.632  15.995  0.00  0.00    +0.000 C 
ATOM     16  C   UNL     1      47.316   2.830  17.688  0.00  0.00    +0.000 C 
ENDBRANCH  12  14
ENDBRANCH  11  12
ENDBRANCH  10  11
ENDBRANCH   8  10
ENDBRANCH   7   8
ENDBRANCH   1   7
BRANCH   4  17
ATOM     17  C   UNL     1      48.067   8.470  12.375  0.00  0.00    +0.000 C 
BRANCH  17  18
ATOM     18  N   UNL     1      46.645   8.146  12.289  0.00  0.00    +0.000 N 
ATOM     19  C   UNL     1      45.681   9.016  11.831  0.00  0.00    +0.000 A 
ATOM     20  C   UNL     1      44.574   8.274  11.473  0.00  0.00    +0.000 A 
ATOM     21  C   UNL     1      44.861   6.918  11.756  0.00  0.00    +0.000 A 
ATOM     22  N   UNL     1      44.099   5.822  11.516  0.00  0.00    +0.000 NA
ATOM     23  C   UNL     1      44.676   4.649  11.907  0.00  0.00    +0.000 A 
ATOM     24  C   UNL     1      45.908   4.521  12.540  0.00  0.00    +0.000 A 
ATOM     25  C   UNL     1      46.675   5.657  12.772  0.00  0.00    +0.000 A 
ATOM     26  C   UNL     1      46.129   6.866  12.333  0.00  0.00    +0.000 A 
BRANCH  23  27
ATOM     27  C   UNL     1      43.912   3.402  11.577  0.00  0.00    +0.000 C 
ATOM     28  N   UNL     1      43.772   2.502  12.599  0.00  0.00    +0.000 N 
ATOM     29  O   UNL     1      43.422   3.194  10.474  0.00  0.00    +0.000 OA
ATOM     30  H   UNL     1      44.158   2.717  13.512  0.00  0.00    +0.000 HD
ATOM     31  H   UNL     1      43.233   1.662  12.449  0.00  0.00    +0.000 HD
ENDBRANCH  23  27
ENDBRANCH  17  18
ENDBRANCH   4  17
TORSDOF 9
ENDMDL
MODEL 4
REMARK VINA RESULT:    -5.728      3.252      7.849
REMARK INTER + INTRA:          -9.610
REMARK INTER:                  -9.007
REMARK INTRA:                  -0.603
REMARK UNBOUND:                -0.868
REMARK  Name = 
REMARK  12 active torsions:
REMARK  status: ('A' for Active; 'I' for Inactive)
REMARK    1  A    between atoms: C_1  and  C_2
REMARK    2  A    between atoms: C_2  and  C_3
REMARK    3  A    between atoms: C_2  and  C_4
REMARK    4  A    between atoms: C_2  and  O_5
REMARK    5  A    between atoms: O_5  and  C_6
REMARK    6  A    between atoms: C_6  and  C_7
REMARK    7  A    between atoms: C_7  and  N_8
REMARK    8  A    between atoms: N_8  and  C_9
REMARK    9  A    between atoms: C_9  and  C_10
REMARK   10  A    between atoms: C_13  and  C_14
REMARK   11  A    between atoms: C_14  and  N_15
REMARK   12  A    between atoms: C_20  and  C_21
REMARK                            x       y       z     vdW  Elec       q    Type
REMARK                         _______ _______ _______ _____ _____    ______ ____
ROOT
ATOM      1  C   UNL     1      44.310   4.646  12.086  0.00  0.00    +0.000 A 
ATOM      2  C   UNL     1      43.931   5.766  11.339  0.00  0.00    +0.000 A 
ATOM      3  C   UNL     1      44.491   7.011  11.610  0.00  0.00    +0.000 A 
ATOM      4  C   UNL     1      45.408   7.122  12.650  0.00  0.00    +0.000 A 
ATOM      5  N   UNL     1      45.804   6.048  13.379  0.00  0.00    +0.000 NA
ATOM      6  C   UNL     1      45.265   4.844  13.076  0.00  0.00    +0.000 A 
ENDROOT
BRANCH   1   7
ATOM      7  C   UNL     1      43.689   3.297  11.860  0.00  0.00    +0.000 C 
BRANCH   7   8
ATOM      8  N   UNL     1      43.723   2.930  10.452  0.00  0.00    +0.000 NA
ATOM      9  H   UNL     1      43.243   2.048  10.296  0.00  0.00    +0.000 HD
BRANCH   8  10
ATOM     10  C   UNL     1      45.093   2.848   9.941  0.00  0.00    +0.000 C 
BRANCH  10  11
ATOM     11  C   UNL     1      45.114   2.439   8.461  0.00  0.00    +0.000 C 
BRANCH  11  12
ATOM     12  O   UNL     1      46.226   3.031   7.787  0.00  0.00    +0.000 OA
BRANCH  12  14
ATOM     13  C   UNL     1      46.356   2.315   5.439  0.00  0.00    +0.000 C 
ATOM     14  C   UNL     1      46.931   2.196   6.857  0.00  0.00    +0.000 C 
ATOM     15  C   UNL     1      46.941   0.739   7.334  0.00  0.00    +0.000 C 
ATOM     16  C   UNL     1      48.380   2.711   6.831  0.00  0.00    +0.000 C 
ENDBRANCH  12  14
ENDBRANCH  11  12
ENDBRANCH  10  11
ENDBRANCH   8  10
ENDBRANCH   7   8
ENDBRANCH   1   7
BRANCH   4  17
ATOM     17  C   UNL     1      45.882   8.472  13.113  0.00  0.00    +0.000 C 
BRANCH  17  18
ATOM     18  N   UNL     1      46.825   9.132  12.214  0.00  0.00    +0.000 N 
ATOM     19  C   UNL     1      46.692  10.431  11.774  0.00  0.00    +0.000 A 
ATOM     20  C   UNL     1      47.927  10.857  11.331  0.00  0.00    +0.000 A 
ATOM     21  C   UNL     1      48.828   9.776  11.473  0.00  0.00    +0.000 A 
ATOM     22  N   UNL     1      50.161   9.744  11.225  0.00  0.00    +0.000 NA
ATOM     23  C   UNL     1      50.742   8.535  11.473  0.00  0.00    +0.000 A 
ATOM     24  C   UNL     1      50.081   7.387  11.900  0.00  0.00    +0.000 A 
ATOM     25  C   UNL     1      48.716   7.444  12.153  0.00  0.00    +0.000 A 
ATOM     26  C   UNL     1      48.106   8.685  11.956  0.00  0.00    +0.000 A 
BRANCH  23  27
ATOM     27  C   UNL     1      52.231   8.477  11.304  0.00  0.00    +0.000 C 
ATOM     28  N   UNL     1      52.724   7.318  10.767  0.00  0.00    +0.000 N 
ATOM     29  O   UNL     1      52.971   9.406  11.602  0.00  0.00    +0.000 OA
ATOM     30  H   UNL     1      52.083   6.580  10.496  0.00  0.00    +0.000 HD
ATOM     31  H   UNL     1      53.714   7.235  10.591  0.00  0.00    +0.000 HD
ENDBRANCH  23  27
ENDBRANCH  17  18
ENDBRANCH   4  17
TORSDOF 9
ENDMDL
MODEL 5
REMARK VINA RESULT:    -5.683      2.975      5.484
REMARK INTER + INTRA:          -9.542
REMARK INTER:                  -8.304
REMARK INTRA:                  -1.238
REMARK UNBOUND:                -0.868
REMARK  Name = 
REMARK  12 active torsions:
REMARK  status: ('A' for Active; 'I' for Inactive)
REMARK    1  A    between atoms: C_1  and  C_2
REMARK    2  A    between atoms: C_2  and  C_3
REMARK    3  A    between atoms: C_2  and  C_4
REMARK    4  A    between atoms: C_2  and  O_5
REMARK    5  A    between atoms: O_5  and  C_6
REMARK    6  A    between atoms: C_6  and  C_7
REMARK    7  A    between atoms: C_7  and  N_8
REMARK    8  A    between atoms: N_8  and  C_9
REMARK    9  A    between atoms: C_9  and  C_10
REMARK   10  A    between atoms: C_13  and  C_14
REMARK   11  A    between atoms: C_14  and  N_15
REMARK   12  A    between atoms: C_20  and  C_21
REMARK                            x       y       z     vdW  Elec       q    Type
REMARK                         _______ _______ _______ _____ _____    ______ ____
ROOT
ATOM      1  C   UNL     1      49.056   6.252  18.441  0.00  0.00    +0.000 A 
ATOM      2  C   UNL     1      48.974   7.519  17.854  0.00  0.00    +0.000 A 
ATOM      3  C   UNL     1      48.758   7.644  16.485  0.00  0.00    +0.000 A 
ATOM      4  C   UNL     1      48.655   6.491  15.713  0.00  0.00    +0.000 A 
ATOM      5  N   UNL     1      48.716   5.251  16.261  0.00  0.00    +0.000 NA
ATOM      6  C   UNL     1      48.898   5.157  17.599  0.00  0.00    +0.000 A 
ENDROOT
BRANCH   1   7
ATOM      7  C   UNL     1      49.341   6.075  19.905  0.00  0.00    +0.000 C 
BRANCH   7   8
ATOM      8  N   UNL     1      49.869   4.747  20.181  0.00  0.00    +0.000 NA
ATOM      9  H   UNL     1      49.167   4.165  20.631  0.00  0.00    +0.000 HD
BRANCH   8  10
ATOM     10  C   UNL     1      51.076   4.799  21.009  0.00  0.00    +0.000 C 
BRANCH  10  11
ATOM     11  C   UNL     1      52.333   5.006  20.152  0.00  0.00    +0.000 C 
BRANCH  11  12
ATOM     12  O   UNL     1      52.772   3.768  19.590  0.00  0.00    +0.000 OA
BRANCH  12  14
ATOM     13  C   UNL     1      54.168   3.112  17.676  0.00  0.00    +0.000 C 
ATOM     14  C   UNL     1      52.834   3.699  18.158  0.00  0.00    +0.000 C 
ATOM     15  C   UNL     1      52.574   5.076  17.536  0.00  0.00    +0.000 C 
ATOM     16  C   UNL     1      51.708   2.747  17.725  0.00  0.00    +0.000 C 
ENDBRANCH  12  14
ENDBRANCH  11  12
ENDBRANCH  10  11
ENDBRANCH   8  10
ENDBRANCH   7   8
ENDBRANCH   1   7
BRANCH   4  17
ATOM     17  C   UNL     1      48.630   6.572  14.212  0.00  0.00    +0.000 C 
BRANCH  17  18
ATOM     18  N   UNL     1      47.299   6.727  13.629  0.00  0.00    +0.000 N 
ATOM     19  C   UNL     1      46.801   7.917  13.146  0.00  0.00    +0.000 A 
ATOM     20  C   UNL     1      45.753   7.625  12.299  0.00  0.00    +0.000 A 
ATOM     21  C   UNL     1      45.585   6.221  12.294  0.00  0.00    +0.000 A 
ATOM     22  N   UNL     1      44.721   5.471  11.566  0.00  0.00    +0.000 NA
ATOM     23  C   UNL     1      44.821   4.130  11.796  0.00  0.00    +0.000 A 
ATOM     24  C   UNL     1      45.676   3.523  12.710  0.00  0.00    +0.000 A 
ATOM     25  C   UNL     1      46.557   4.310  13.442  0.00  0.00    +0.000 A 
ATOM     26  C   UNL     1      46.511   5.683  13.188  0.00  0.00    +0.000 A 
BRANCH  23  27
ATOM     27  C   UNL     1      43.951   3.254  10.945  0.00  0.00    +0.000 C 
ATOM     28  N   UNL     1      44.289   3.187   9.620  0.00  0.00    +0.000 N 
ATOM     29  O   UNL     1      43.006   2.616  11.394  0.00  0.00    +0.000 OA
ATOM     30  H   UNL     1      45.098   3.698   9.284  0.00  0.00    +0.000 HD
ATOM     31  H   UNL     1      43.766   2.583   9.005  0.00  0.00    +0.000 HD
ENDBRANCH  23  27
ENDBRANCH  17  18
ENDBRANCH   4  17
TORSDOF 9
ENDMDL
MODEL 6
REMARK VINA RESULT:    -5.296      2.471      8.705
REMARK INTER + INTRA:          -8.951
REMARK INTER:                  -8.269
REMARK INTRA:                  -0.682
REMARK UNBOUND:                -0.868
REMARK  Name = 
REMARK  12 active torsions:
REMARK  status: ('A' for Active; 'I' for Inactive)
REMARK    1  A    between atoms: C_1  and  C_2
REMARK    2  A    between atoms: C_2  and  C_3
REMARK    3  A    between atoms: C_2  and  C_4
REMARK    4  A    between atoms: C_2  and  O_5
REMARK    5  A    between atoms: O_5  and  C_6
REMARK    6  A    between atoms: C_6  and  C_7
REMARK    7  A    between atoms: C_7  and  N_8
REMARK    8  A    between atoms: N_8  and  C_9
REMARK    9  A    between atoms: C_9  and  C_10
REMARK   10  A    between atoms: C_13  and  C_14
REMARK   11  A    between atoms: C_14  and  N_15
REMARK   12  A    between atoms: C_20  and  C_21
REMARK                            x       y       z     vdW  Elec       q    Type
REMARK                         _______ _______ _______ _____ _____    ______ ____
ROOT
ATOM      1  C   UNL     1      44.525   5.214  11.656  0.00  0.00    +0.000 A 
ATOM      2  C   UNL     1      45.610   4.867  12.468  0.00  0.00    +0.000 A 
ATOM      3  C   UNL     1      46.346   5.855  13.114  0.00  0.00    +0.000 A 
ATOM      4  C   UNL     1      46.001   7.188  12.913  0.00  0.00    +0.000 A 
ATOM      5  N   UNL     1      44.945   7.550  12.143  0.00  0.00    +0.000 NA
ATOM      6  C   UNL     1      44.227   6.567  11.548  0.00  0.00    +0.000 A 
ENDROOT
BRANCH   1   7
ATOM      7  C   UNL     1      43.739   4.181  10.900  0.00  0.00    +0.000 C 
BRANCH   7   8
ATOM      8  N   UNL     1      43.710   4.480   9.476  0.00  0.00    +0.000 NA
ATOM      9  H   UNL     1      43.156   3.792   8.973  0.00  0.00    +0.000 HD
BRANCH   8  10
ATOM     10  C   UNL     1      45.056   4.549   8.903  0.00  0.00    +0.000 C 
BRANCH  10  11
ATOM     11  C   UNL     1      45.378   3.293   8.080  0.00  0.00    +0.000 C 
BRANCH  11  12
ATOM     12  O   UNL     1      46.704   3.360   7.551  0.00  0.00    +0.000 OA
BRANCH  12  14
ATOM     13  C   UNL     1      46.541   2.335   5.323  0.00  0.00    +0.000 C 
ATOM     14  C   UNL     1      47.127   2.254   6.739  0.00  0.00    +0.000 C 
ATOM     15  C   UNL     1      46.779   0.922   7.411  0.00  0.00    +0.000 C 
ATOM     16  C   UNL     1      48.657   2.362   6.631  0.00  0.00    +0.000 C 
ENDBRANCH  12  14
ENDBRANCH  11  12
ENDBRANCH  10  11
ENDBRANCH   8  10
ENDBRANCH   7   8
ENDBRANCH   1   7
BRANCH   4  17
ATOM     17  C   UNL     1      46.887   8.293  13.418  0.00  0.00    +0.000 C 
BRANCH  17  18
ATOM     18  N   UNL     1      48.296   8.165  13.053  0.00  0.00    +0.000 N 
ATOM     19  C   UNL     1      48.850   8.707  11.915  0.00  0.00    +0.000 A 
ATOM     20  C   UNL     1      50.215   8.782  12.102  0.00  0.00    +0.000 A 
ATOM     21  C   UNL     1      50.501   8.237  13.376  0.00  0.00    +0.000 A 
ATOM     22  N   UNL     1      51.695   8.153  14.015  0.00  0.00    +0.000 NA
ATOM     23  C   UNL     1      51.624   7.571  15.246  0.00  0.00    +0.000 A 
ATOM     24  C   UNL     1      50.477   7.049  15.835  0.00  0.00    +0.000 A 
ATOM     25  C   UNL     1      49.264   7.151  15.165  0.00  0.00    +0.000 A 
ATOM     26  C   UNL     1      49.299   7.790  13.923  0.00  0.00    +0.000 A 
BRANCH  23  27
ATOM     27  C   UNL     1      52.903   7.541  16.030  0.00  0.00    +0.000 C 
ATOM     28  N   UNL     1      52.839   6.920  17.247  0.00  0.00    +0.000 N 
ATOM     29  O   UNL     1      53.951   8.020  15.612  0.00  0.00    +0.000 OA
ATOM     30  H   UNL     1      51.967   6.501  17.551  0.00  0.00    +0.000 HD
ATOM     31  H   UNL     1      53.677   6.832  17.804  0.00  0.00    +0.000 HD
ENDBRANCH  23  27
ENDBRANCH  17  18
ENDBRANCH   4  17
TORSDOF 9
ENDMDL
MODEL 7
REMARK VINA RESULT:    -4.955      3.267      5.723
REMARK INTER + INTRA:          -8.431
REMARK INTER:                  -7.155
REMARK INTRA:                  -1.276
REMARK UNBOUND:                -0.868
REMARK  Name = 
REMARK  12 active torsions:
REMARK  status: ('A' for Active; 'I' for Inactive)
REMARK    1  A    between atoms: C_1  and  C_2
REMARK    2  A    between atoms: C_2  and  C_3
REMARK    3  A    between atoms: C_2  and  C_4
REMARK    4  A    between atoms: C_2  and  O_5
REMARK    5  A    between atoms: O_5  and  C_6
REMARK    6  A    between atoms: C_6  and  C_7
REMARK    7  A    between atoms: C_7  and  N_8
REMARK    8  A    between atoms: N_8  and  C_9
REMARK    9  A    between atoms: C_9  and  C_10
REMARK   10  A    between atoms: C_13  and  C_14
REMARK   11  A    between atoms: C_14  and  N_15
REMARK   12  A    between atoms: C_20  and  C_21
REMARK                            x       y       z     vdW  Elec       q    Type
REMARK                         _______ _______ _______ _____ _____    ______ ____
ROOT
ATOM      1  C   UNL     1      50.146   7.958  17.469  0.00  0.00    +0.000 A 
ATOM      2  C   UNL     1      51.053   8.858  16.900  0.00  0.00    +0.000 A 
ATOM      3  C   UNL     1      50.679   9.633  15.807  0.00  0.00    +0.000 A 
ATOM      4  C   UNL     1      49.402   9.475  15.278  0.00  0.00    +0.000 A 
ATOM      5  N   UNL     1      48.499   8.620  15.821  0.00  0.00    +0.000 NA
ATOM      6  C   UNL     1      48.879   7.898  16.901  0.00  0.00    +0.000 A 
ENDROOT
BRANCH   1   7
ATOM      7  C   UNL     1      50.529   7.066  18.615  0.00  0.00    +0.000 C 
BRANCH   7   8
ATOM      8  N   UNL     1      51.767   6.352  18.336  0.00  0.00    +0.000 NA
ATOM      9  H   UNL     1      52.461   6.976  17.932  0.00  0.00    +0.000 HD
BRANCH   8  10
ATOM     10  C   UNL     1      51.550   5.207  17.449  0.00  0.00    +0.000 C 
BRANCH  10  11
ATOM     11  C   UNL     1      50.231   4.491  17.773  0.00  0.00    +0.000 C 
BRANCH  11  12
ATOM     12  O   UNL     1      49.359   4.500  16.641  0.00  0.00    +0.000 OA
BRANCH  12  14
ATOM     13  C   UNL     1      47.347   4.863  18.006  0.00  0.00    +0.000 C 
ATOM     14  C   UNL     1      48.007   4.072  16.870  0.00  0.00    +0.000 C 
ATOM     15  C   UNL     1      47.953   2.563  17.136  0.00  0.00    +0.000 C 
ATOM     16  C   UNL     1      47.239   4.367  15.571  0.00  0.00    +0.000 C 
ENDBRANCH  12  14
ENDBRANCH  11  12
ENDBRANCH  10  11
ENDBRANCH   8  10
ENDBRANCH   7   8
ENDBRANCH   1   7
BRANCH   4  17
ATOM     17  C   UNL     1      49.023  10.132  13.980  0.00  0.00    +0.000 C 
BRANCH  17  18
ATOM     18  N   UNL     1      48.792   9.210  12.870  0.00  0.00    +0.000 N 
ATOM     19  C   UNL     1      49.787   8.492  12.244  0.00  0.00    +0.000 A 
ATOM     20  C   UNL     1      49.195   7.437  11.582  0.00  0.00    +0.000 A 
ATOM     21  C   UNL     1      47.798   7.537  11.781  0.00  0.00    +0.000 A 
ATOM     22  N   UNL     1      46.820   6.692  11.372  0.00  0.00    +0.000 NA
ATOM     23  C   UNL     1      45.564   7.080  11.738  0.00  0.00    +0.000 A 
ATOM     24  C   UNL     1      45.241   8.243  12.429  0.00  0.00    +0.000 A 
ATOM     25  C   UNL     1      46.260   9.092  12.843  0.00  0.00    +0.000 A 
ATOM     26  C   UNL     1      47.560   8.692  12.526  0.00  0.00    +0.000 A 
BRANCH  23  27
ATOM     27  C   UNL     1      44.458   6.128  11.389  0.00  0.00    +0.000 C 
ATOM     28  N   UNL     1      43.214   6.684  11.263  0.00  0.00    +0.000 N 
ATOM     29  O   UNL     1      44.643   4.931  11.206  0.00  0.00    +0.000 OA
ATOM     30  H   UNL     1      43.097   7.684  11.385  0.00  0.00    +0.000 HD
ATOM     31  H   UNL     1      42.436   6.102  10.990  0.00  0.00    +0.000 HD
ENDBRANCH  23  27
ENDBRANCH  17  18
ENDBRANCH   4  17
TORSDOF 9
ENDMDL
MODEL 8
REMARK VINA RESULT:    -4.914      2.977      7.888
REMARK INTER + INTRA:          -8.368
REMARK INTER:                  -8.150
REMARK INTRA:                  -0.218
REMARK UNBOUND:                -0.868
REMARK  Name = 
REMARK  12 active torsions:
REMARK  status: ('A' for Active; 'I' for Inactive)
REMARK    1  A    between atoms: C_1  and  C_2
REMARK    2  A    between atoms: C_2  and  C_3
REMARK    3  A    between atoms: C_2  and  C_4
REMARK    4  A    between atoms: C_2  and  O_5
REMARK    5  A    between atoms: O_5  and  C_6
REMARK    6  A    between atoms: C_6  and  C_7
REMARK    7  A    between atoms: C_7  and  N_8
REMARK    8  A    between atoms: N_8  and  C_9
REMARK    9  A    between atoms: C_9  and  C_10
REMARK   10  A    between atoms: C_13  and  C_14
REMARK   11  A    between atoms: C_14  and  N_15
REMARK   12  A    between atoms: C_20  and  C_21
REMARK                            x       y       z     vdW  Elec       q    Type
REMARK                         _______ _______ _______ _____ _____    ______ ____
ROOT
ATOM      1  C   UNL     1      44.514   5.396  11.594  0.00  0.00    +0.000 A 
ATOM      2  C   UNL     1      45.527   5.173  12.532  0.00  0.00    +0.000 A 
ATOM      3  C   UNL     1      46.123   6.246  13.188  0.00  0.00    +0.000 A 
ATOM      4  C   UNL     1      45.712   7.537  12.873  0.00  0.00    +0.000 A 
ATOM      5  N   UNL     1      44.721   7.779  11.978  0.00  0.00    +0.000 NA
ATOM      6  C   UNL     1      44.139   6.716  11.374  0.00  0.00    +0.000 A 
ENDROOT
BRANCH   1   7
ATOM      7  C   UNL     1      43.885   4.269  10.826  0.00  0.00    +0.000 C 
BRANCH   7   8
ATOM      8  N   UNL     1      43.745   4.606   9.416  0.00  0.00    +0.000 NA
ATOM      9  H   UNL     1      43.101   3.969   8.954  0.00  0.00    +0.000 HD
BRANCH   8  10
ATOM     10  C   UNL     1      45.034   4.601   8.722  0.00  0.00    +0.000 C 
BRANCH  10  11
ATOM     11  C   UNL     1      45.247   3.292   7.948  0.00  0.00    +0.000 C 
BRANCH  11  12
ATOM     12  O   UNL     1      46.606   2.861   8.045  0.00  0.00    +0.000 OA
BRANCH  12  14
ATOM     13  C   UNL     1      46.916   0.514   7.382  0.00  0.00    +0.000 C 
ATOM     14  C   UNL     1      47.079   1.993   7.004  0.00  0.00    +0.000 C 
ATOM     15  C   UNL     1      48.533   2.319   6.643  0.00  0.00    +0.000 C 
ATOM     16  C   UNL     1      46.197   2.273   5.777  0.00  0.00    +0.000 C 
ENDBRANCH  12  14
ENDBRANCH  11  12
ENDBRANCH  10  11
ENDBRANCH   8  10
ENDBRANCH   7   8
ENDBRANCH   1   7
BRANCH   4  17
ATOM     17  C   UNL     1      46.462   8.730  13.397  0.00  0.00    +0.000 C 
BRANCH  17  18
ATOM     18  N   UNL     1      47.891   8.510  13.610  0.00  0.00    +0.000 N 
ATOM     19  C   UNL     1      48.407   7.597  14.503  0.00  0.00    +0.000 A 
ATOM     20  C   UNL     1      49.712   7.340  14.140  0.00  0.00    +0.000 A 
ATOM     21  C   UNL     1      50.010   8.146  13.017  0.00  0.00    +0.000 A 
ATOM     22  N   UNL     1      51.148   8.189  12.280  0.00  0.00    +0.000 NA
ATOM     23  C   UNL     1      51.107   9.082  11.249  0.00  0.00    +0.000 A 
ATOM     24  C   UNL     1      50.047   9.932  10.950  0.00  0.00    +0.000 A 
ATOM     25  C   UNL     1      48.889   9.867  11.715  0.00  0.00    +0.000 A 
ATOM     26  C   UNL     1      48.885   8.924  12.746  0.00  0.00    +0.000 A 
BRANCH  23  27
ATOM     27  C   UNL     1      52.307   9.097  10.349  0.00  0.00    +0.000 C 
ATOM     28  N   UNL     1      53.179  10.134  10.539  0.00  0.00    +0.000 N 
ATOM     29  O   UNL     1      52.518   8.232   9.507  0.00  0.00    +0.000 OA
ATOM     30  H   UNL     1      52.997  10.815  11.268  0.00  0.00    +0.000 HD
ATOM     31  H   UNL     1      54.026  10.177   9.992  0.00  0.00    +0.000 HD
ENDBRANCH  23  27
ENDBRANCH  17  18
ENDBRANCH   4  17
TORSDOF 9
ENDMDL
MODEL 9
REMARK VINA RESULT:    -4.652     10.712     13.094
REMARK INTER + INTRA:          -7.969
REMARK INTER:                  -6.295
REMARK INTRA:                  -1.674
REMARK UNBOUND:                -0.868
REMARK  Name = 
REMARK  12 active torsions:
REMARK  status: ('A' for Active; 'I' for Inactive)
REMARK    1  A    between atoms: C_1  and  C_2
REMARK    2  A    between atoms: C_2  and  C_3
REMARK    3  A    between atoms: C_2  and  C_4
REMARK    4  A    between atoms: C_2  and  O_5
REMARK    5  A    between atoms: O_5  and  C_6
REMARK    6  A    between atoms: C_6  and  C_7
REMARK    7  A    between atoms: C_7  and  N_8
REMARK    8  A    between atoms: N_8  and  C_9
REMARK    9  A    between atoms: C_9  and  C_10
REMARK   10  A    between atoms: C_13  and  C_14
REMARK   11  A    between atoms: C_14  and  N_15
REMARK   12  A    between atoms: C_20  and  C_21
REMARK                            x       y       z     vdW  Elec       q    Type
REMARK                         _______ _______ _______ _____ _____    ______ ____
ROOT
ATOM      1  C   UNL     1      39.037  -1.531  16.653  0.00  0.00    +0.000 A 
ATOM      2  C   UNL     1      40.398  -1.607  16.338  0.00  0.00    +0.000 A 
ATOM      3  C   UNL     1      41.213  -2.538  16.975  0.00  0.00    +0.000 A 
ATOM      4  C   UNL     1      40.657  -3.365  17.946  0.00  0.00    +0.000 A 
ATOM      5  N   UNL     1      39.337  -3.321  18.259  0.00  0.00    +0.000 NA
ATOM      6  C   UNL     1      38.560  -2.426  17.604  0.00  0.00    +0.000 A 
ENDROOT
BRANCH   1   7
ATOM      7  C   UNL     1      38.136  -0.505  16.027  0.00  0.00    +0.000 C 
BRANCH   7   8
ATOM      8  N   UNL     1      38.150  -0.609  14.575  0.00  0.00    +0.000 NA
ATOM      9  H   UNL     1      37.935   0.288  14.147  0.00  0.00    +0.000 HD
BRANCH   8  10
ATOM     10  C   UNL     1      37.217  -1.628  14.090  0.00  0.00    +0.000 C 
BRANCH  10  11
ATOM     11  C   UNL     1      37.878  -2.536  13.042  0.00  0.00    +0.000 C 
BRANCH  11  12
ATOM     12  O   UNL     1      39.302  -2.463  13.134  0.00  0.00    +0.000 OA
BRANCH  12  14
ATOM     13  C   UNL     1      41.525  -3.507  13.241  0.00  0.00    +0.000 C 
ATOM     14  C   UNL     1      40.013  -3.709  13.072  0.00  0.00    +0.000 C 
ATOM     15  C   UNL     1      39.693  -4.453  11.771  0.00  0.00    +0.000 C 
ATOM     16  C   UNL     1      39.507  -4.551  14.254  0.00  0.00    +0.000 C 
ENDBRANCH  12  14
ENDBRANCH  11  12
ENDBRANCH  10  11
ENDBRANCH   8  10
ENDBRANCH   7   8
ENDBRANCH   1   7
BRANCH   4  17
ATOM     17  C   UNL     1      41.531  -4.236  18.804  0.00  0.00    +0.000 C 
BRANCH  17  18
ATOM     18  N   UNL     1      42.140  -5.367  18.108  0.00  0.00    +0.000 N 
ATOM     19  C   UNL     1      41.525  -6.074  17.098  0.00  0.00    +0.000 A 
ATOM     20  C   UNL     1      42.503  -6.745  16.393  0.00  0.00    +0.000 A 
ATOM     21  C   UNL     1      43.743  -6.467  17.015  0.00  0.00    +0.000 A 
ATOM     22  N   UNL     1      44.987  -6.856  16.639  0.00  0.00    +0.000 NA
ATOM     23  C   UNL     1      45.980  -6.408  17.461  0.00  0.00    +0.000 A 
ATOM     24  C   UNL     1      45.801  -5.656  18.617  0.00  0.00    +0.000 A 
ATOM     25  C   UNL     1      44.518  -5.263  18.980  0.00  0.00    +0.000 A 
ATOM     26  C   UNL     1      43.488  -5.665  18.127  0.00  0.00    +0.000 A 
BRANCH  23  27
ATOM     27  C   UNL     1      47.380  -6.735  17.033  0.00  0.00    +0.000 C 
ATOM     28  N   UNL     1      48.284  -6.913  18.045  0.00  0.00    +0.000 N 
ATOM     29  O   UNL     1      47.706  -6.858  15.859  0.00  0.00    +0.000 OA
ATOM     30  H   UNL     1      47.977  -6.840  19.009  0.00  0.00    +0.000 HD
ATOM     31  H   UNL     1      49.233  -7.174  17.822  0.00  0.00    +0.000 HD
ENDBRANCH  23  27
ENDBRANCH  17  18
ENDBRANCH   4  17
TORSDOF 9
ENDMDL
