MODEL 1
REMARK VINA RESULT:    -7.511      0.000      0.000
REMARK INTER + INTRA:         -12.601
REMARK INTER:                 -11.024
REMARK INTRA:                  -1.577
REMARK UNBOUND:                -1.577
REMARK  Name = 
REMARK  9 active torsions:
REMARK  status: ('A' for Active; 'I' for Inactive)
REMARK    1  A    between atoms: C_1  and  C_2
REMARK    2  A    between atoms: C_2  and  C_3
REMARK    3  A    between atoms: C_3  and  C_4
REMARK    4  A    between atoms: C_4  and  N_5
REMARK    5  A    between atoms: C_4  and  C_18
REMARK    6  A    between atoms: C_6  and  C_8
REMARK    7  A    between atoms: C_21  and  C_22
REMARK    8  A    between atoms: C_22  and  N_23
REMARK    9  A    between atoms: C_24  and  C_26
REMARK                            x       y       z     vdW  Elec       q    Type
REMARK                         _______ _______ _______ _____ _____    ______ ____
ROOT
ATOM      1  C   UNL     1      47.855   7.375  13.753  0.00  0.00    +0.000 C 
ENDROOT
BRANCH   1   2
ATOM      2  C   UNL     1      46.864   6.566  12.914  0.00  0.00    +0.000 A 
ATOM      3  C   UNL     1      46.566   5.235  13.241  0.00  0.00    +0.000 A 
ATOM      4  C   UNL     1      45.681   4.481  12.455  0.00  0.00    +0.000 A 
ATOM      5  C   UNL     1      45.073   5.039  11.322  0.00  0.00    +0.000 A 
ATOM      6  C   UNL     1      45.330   6.383  11.024  0.00  0.00    +0.000 A 
ATOM      7  C   UNL     1      46.214   7.135  11.806  0.00  0.00    +0.000 A 
BRANCH   5   8
ATOM      8  C   UNL     1      44.202   4.211  10.413  0.00  0.00    +0.000 C 
BRANCH   8   9
ATOM      9  N   UNL     1      44.917   3.202   9.680  0.00  0.00    +0.000 N 
ATOM     10  C   UNL     1      45.583   3.525   8.517  0.00  0.00    +0.000 C 
ATOM     11  O   UNL     1      45.584   4.654   8.031  0.00  0.00    +0.000 OA
ATOM     12  H   UNL     1      44.999   2.248  10.017  0.00  0.00    +0.000 HD
BRANCH  10  13
ATOM     13  C   UNL     1      46.296   2.403   7.908  0.00  0.00    +0.000 A 
ATOM     14  C   UNL     1      47.257   2.480   6.916  0.00  0.00    +0.000 A 
ATOM     15  N   UNL     1      47.637   1.194   6.669  0.00  0.00    +0.000 N 
ATOM     16  C   UNL     1      46.916   0.382   7.499  0.00  0.00    +0.000 A 
ATOM     17  N   UNL     1      46.096   1.073   8.262  0.00  0.00    +0.000 NA
ATOM     18  H   UNL     1      48.329   0.889   5.996  0.00  0.00    +0.000 HD
ENDBRANCH  10  13
ENDBRANCH   8   9
ENDBRANCH   5   8
ENDBRANCH   1   2
BRANCH   1  19
ATOM     19  N   UNL     1      47.893   6.813  15.097  0.00  0.00    +0.000 N 
ATOM     20  C   UNL     1      49.045   6.456  15.750  0.00  0.00    +0.000 C 
ATOM     21  O   UNL     1      50.168   6.662  15.304  0.00  0.00    +0.000 OA
ATOM     22  H   UNL     1      47.024   6.388  15.403  0.00  0.00    +0.000 HD
BRANCH  20  23
ATOM     23  C   UNL     1      48.856   5.837  17.065  0.00  0.00    +0.000 A 
ATOM     24  C   UNL     1      49.071   4.478  17.243  0.00  0.00    +0.000 A 
ATOM     25  S   UNL     1      48.753   3.945  18.834  0.00  0.00    +0.000 S 
ATOM     26  C   UNL     1      48.278   5.506  19.321  0.00  0.00    +0.000 A 
ATOM     27  N   UNL     1      47.814   5.746  20.577  0.00  0.00    +0.000 NA
ATOM     28  C   UNL     1      47.457   6.969  20.791  0.00  0.00    +0.000 A 
ATOM     29  N   UNL     1      47.545   7.981  19.871  0.00  0.00    +0.000 N 
ATOM     30  C   UNL     1      48.055   7.798  18.612  0.00  0.00    +0.000 A 
ATOM     31  O   UNL     1      48.212   8.742  17.847  0.00  0.00    +0.000 OA
ATOM     32  C   UNL     1      48.416   6.428  18.301  0.00  0.00    +0.000 A 
ATOM     33  H   UNL     1      47.290   8.929  20.110  0.00  0.00    +0.000 HD
ENDBRANCH  20  23
ENDBRANCH   1  19
BRANCH   1  34
ATOM     34  C   UNL     1      47.508   8.876  13.800  0.00  0.00    +0.000 C 
BRANCH  34  36
ATOM     35  C   UNL     1      49.663   8.941  12.529  0.00  0.00    +0.000 C 
ATOM     36  C   UNL     1      48.572   9.779  13.177  0.00  0.00    +0.000 C 
ENDBRANCH  34  36
ENDBRANCH   1  34
TORSDOF 8
ENDMDL
MODEL 2
REMARK VINA RESULT:    -7.470      1.365      1.908
REMARK INTER + INTRA:         -12.540
REMARK INTER:                 -11.080
REMARK INTRA:                  -1.460
REMARK UNBOUND:                -1.577
REMARK  Name = 
REMARK  9 active torsions:
REMARK  status: ('A' for Active; 'I' for Inactive)
REMARK    1  A    between atoms: C_1  and  C_2
REMARK    2  A    between atoms: C_2  and  C_3
REMARK    3  A    between atoms: C_3  and  C_4
REMARK    4  A    between atoms: C_4  and  N_5
REMARK    5  A    between atoms: C_4  and  C_18
REMARK    6  A    between atoms: C_6  and  C_8
REMARK    7  A    between atoms: C_21  and  C_22
REMARK    8  A    between atoms: C_22  and  N_23
REMARK    9  A    between atoms: C_24  and  C_26
REMARK                            x       y       z     vdW  Elec       q    Type
REMARK                         _______ _______ _______ _____ _____    ______ ____
ROOT
ATOM      1  C   UNL     1      47.843   7.720  13.507  0.00  0.00    +0.000 C 
ENDROOT
BRANCH   1   2
ATOM      2  C   UNL     1      46.899   6.650  12.956  0.00  0.00    +0.000 A 
ATOM      3  C   UNL     1      46.725   5.432  13.630  0.00  0.00    +0.000 A 
ATOM      4  C   UNL     1      45.884   4.436  13.111  0.00  0.00    +0.000 A 
ATOM      5  C   UNL     1      45.196   4.633  11.906  0.00  0.00    +0.000 A 
ATOM      6  C   UNL     1      45.329   5.868  11.259  0.00  0.00    +0.000 A 
ATOM      7  C   UNL     1      46.170   6.860  11.775  0.00  0.00    +0.000 A 
BRANCH   5   8
ATOM      8  C   UNL     1      44.371   3.534  11.286  0.00  0.00    +0.000 C 
BRANCH   8   9
ATOM      9  N   UNL     1      45.103   2.698  10.374  0.00  0.00    +0.000 N 
ATOM     10  C   UNL     1      45.125   2.987   9.026  0.00  0.00    +0.000 C 
ATOM     11  O   UNL     1      44.515   3.931   8.529  0.00  0.00    +0.000 OA
ATOM     12  H   UNL     1      45.662   1.913  10.694  0.00  0.00    +0.000 HD
BRANCH  10  13
ATOM     13  C   UNL     1      45.943   2.071   8.235  0.00  0.00    +0.000 A 
ATOM     14  C   UNL     1      46.847   2.418   7.247  0.00  0.00    +0.000 A 
ATOM     15  N   UNL     1      47.371   1.245   6.794  0.00  0.00    +0.000 N 
ATOM     16  C   UNL     1      46.788   0.231   7.501  0.00  0.00    +0.000 A 
ATOM     17  N   UNL     1      45.921   0.688   8.380  0.00  0.00    +0.000 NA
ATOM     18  H   UNL     1      48.067   1.136   6.067  0.00  0.00    +0.000 HD
ENDBRANCH  10  13
ENDBRANCH   8   9
ENDBRANCH   5   8
ENDBRANCH   1   2
BRANCH   1  19
ATOM     19  N   UNL     1      47.931   7.563  14.953  0.00  0.00    +0.000 N 
ATOM     20  C   UNL     1      49.051   7.128  15.614  0.00  0.00    +0.000 C 
ATOM     21  O   UNL     1      50.125   6.918  15.060  0.00  0.00    +0.000 OA
ATOM     22  H   UNL     1      47.037   7.469  15.424  0.00  0.00    +0.000 HD
BRANCH  20  23
ATOM     23  C   UNL     1      48.904   6.966  17.063  0.00  0.00    +0.000 A 
ATOM     24  C   UNL     1      48.957   8.067  17.905  0.00  0.00    +0.000 A 
ATOM     25  S   UNL     1      48.810   7.661  19.557  0.00  0.00    +0.000 S 
ATOM     26  C   UNL     1      48.713   5.999  19.199  0.00  0.00    +0.000 A 
ATOM     27  N   UNL     1      48.638   5.065  20.184  0.00  0.00    +0.000 NA
ATOM     28  C   UNL     1      48.607   3.845  19.762  0.00  0.00    +0.000 A 
ATOM     29  N   UNL     1      48.617   3.472  18.443  0.00  0.00    +0.000 N 
ATOM     30  C   UNL     1      48.638   4.380  17.416  0.00  0.00    +0.000 A 
ATOM     31  O   UNL     1      48.547   4.020  16.249  0.00  0.00    +0.000 OA
ATOM     32  C   UNL     1      48.734   5.764  17.837  0.00  0.00    +0.000 A 
ATOM     33  H   UNL     1      48.547   2.502  18.172  0.00  0.00    +0.000 HD
ENDBRANCH  20  23
ENDBRANCH   1  19
BRANCH   1  34
ATOM     34  C   UNL     1      47.399   9.151  13.140  0.00  0.00    +0.000 C 
BRANCH  34  36
ATOM     35  C   UNL     1      49.529   8.998  11.835  0.00  0.00    +0.000 C 
ATOM     36  C   UNL     1      48.272   9.818  12.079  0.00  0.00    +0.000 C 
ENDBRANCH  34  36
ENDBRANCH   1  34
TORSDOF 8
ENDMDL
MODEL 3
REMARK VINA RESULT:    -7.025      3.804      8.399
REMARK INTER + INTRA:         -11.888
REMARK INTER:                 -10.704
REMARK INTRA:                  -1.184
REMARK UNBOUND:                -1.577
REMARK  Name = 
REMARK  9 active torsions:
REMARK  status: ('A' for Active; 'I' for Inactive)
REMARK    1  A    between atoms: C_1  and  C_2
REMARK    2  A    between atoms: C_2  and  C_3
REMARK    3  A    between atoms: C_3  and  C_4
REMARK    4  A    between atoms: C_4  and  N_5
REMARK    5  A    between atoms: C_4  and  C_18
REMARK    6  A    between atoms: C_6  and  C_8
REMARK    7  A    between atoms: C_21  and  C_22
REMARK    8  A    between atoms: C_22  and  N_23
REMARK    9  A    between atoms: C_24  and  C_26
REMARK                            x       y       z     vdW  Elec       q    Type
REMARK                         _______ _______ _______ _____ _____    ______ ____
ROOT
ATOM      1  C   UNL     1      47.984   6.979  13.456  0.00  0.00    +0.000 C 
ENDROOT
BRANCH   1   2
ATOM      2  C   UNL     1      48.195   6.189  14.749  0.00  0.00    +0.000 A 
ATOM      3  C   UNL     1      49.170   6.582  15.678  0.00  0.00    +0.000 A 
ATOM      4  C   UNL     1      49.387   5.841  16.850  0.00  0.00    +0.000 A 
ATOM      5  C   UNL     1      48.636   4.689  17.122  0.00  0.00    +0.000 A 
ATOM      6  C   UNL     1      47.629   4.325  16.220  0.00  0.00    +0.000 A 
ATOM      7  C   UNL     1      47.413   5.062  15.050  0.00  0.00    +0.000 A 
BRANCH   5   8
ATOM      8  C   UNL     1      48.929   3.829  18.324  0.00  0.00    +0.000 C 
BRANCH   8   9
ATOM      9  N   UNL     1      50.282   3.345  18.380  0.00  0.00    +0.000 N 
ATOM     10  C   UNL     1      50.718   2.387  17.489  0.00  0.00    +0.000 C 
ATOM     11  O   UNL     1      49.993   1.880  16.637  0.00  0.00    +0.000 OA
ATOM     12  H   UNL     1      50.963   3.725  19.029  0.00  0.00    +0.000 HD
BRANCH  10  13
ATOM     13  C   UNL     1      52.125   2.027  17.645  0.00  0.00    +0.000 A 
ATOM     14  C   UNL     1      53.163   2.884  17.965  0.00  0.00    +0.000 A 
ATOM     15  N   UNL     1      54.284   2.109  18.003  0.00  0.00    +0.000 N 
ATOM     16  C   UNL     1      53.912   0.827  17.712  0.00  0.00    +0.000 A 
ATOM     17  N   UNL     1      52.618   0.736  17.490  0.00  0.00    +0.000 NA
ATOM     18  H   UNL     1      55.225   2.421  18.209  0.00  0.00    +0.000 HD
ENDBRANCH  10  13
ENDBRANCH   8   9
ENDBRANCH   5   8
ENDBRANCH   1   2
BRANCH   1  19
ATOM     19  N   UNL     1      47.328   6.114  12.485  0.00  0.00    +0.000 N 
ATOM     20  C   UNL     1      46.191   6.451  11.796  0.00  0.00    +0.000 C 
ATOM     21  O   UNL     1      45.664   7.557  11.860  0.00  0.00    +0.000 OA
ATOM     22  H   UNL     1      47.550   5.128  12.577  0.00  0.00    +0.000 HD
BRANCH  20  23
ATOM     23  C   UNL     1      45.651   5.406  10.923  0.00  0.00    +0.000 A 
ATOM     24  C   UNL     1      45.772   5.504   9.545  0.00  0.00    +0.000 A 
ATOM     25  S   UNL     1      45.038   4.209   8.708  0.00  0.00    +0.000 S 
ATOM     26  C   UNL     1      44.500   3.501  10.160  0.00  0.00    +0.000 A 
ATOM     27  N   UNL     1      43.735   2.377  10.159  0.00  0.00    +0.000 NA
ATOM     28  C   UNL     1      43.372   1.977  11.332  0.00  0.00    +0.000 A 
ATOM     29  N   UNL     1      43.724   2.583  12.510  0.00  0.00    +0.000 N 
ATOM     30  C   UNL     1      44.537   3.686  12.562  0.00  0.00    +0.000 A 
ATOM     31  O   UNL     1      44.914   4.146  13.633  0.00  0.00    +0.000 OA
ATOM     32  C   UNL     1      44.924   4.211  11.267  0.00  0.00    +0.000 A 
ATOM     33  H   UNL     1      43.445   2.199  13.401  0.00  0.00    +0.000 HD
ENDBRANCH  20  23
ENDBRANCH   1  19
BRANCH   1  34
ATOM     34  C   UNL     1      49.299   7.545  12.883  0.00  0.00    +0.000 C 
BRANCH  34  36
ATOM     35  C   UNL     1      48.503   9.642  11.772  0.00  0.00    +0.000 C 
ATOM     36  C   UNL     1      49.132   8.275  11.551  0.00  0.00    +0.000 C 
ENDBRANCH  34  36
ENDBRANCH   1  34
TORSDOF 8
ENDMDL
MODEL 4
REMARK VINA RESULT:    -6.966      2.686      4.786
REMARK INTER + INTRA:         -11.801
REMARK INTER:                 -10.369
REMARK INTRA:                  -1.431
REMARK UNBOUND:                -1.577
REMARK  Name = 
REMARK  9 active torsions:
REMARK  status: ('A' for Active; 'I' for Inactive)
REMARK    1  A    between atoms: C_1  and  C_2
REMARK    2  A    between atoms: C_2  and  C_3
REMARK    3  A    between atoms: C_3  and  C_4
REMARK    4  A    between atoms: C_4  and  N_5
REMARK    5  A    between atoms: C_4  and  C_18
REMARK    6  A    between atoms: C_6  and  C_8
REMARK    7  A    between atoms: C_21  and  C_22
REMARK    8  A    between atoms: C_22  and  N_23
REMARK    9  A    between atoms: C_24  and  C_26
REMARK                            x       y       z     vdW  Elec       q    Type
REMARK                         _______ _______ _______ _____ _____    ______ ____
ROOT
ATOM      1  C   UNL     1      47.054   5.194  14.889  0.00  0.00    +0.000 C 
ENDROOT
BRANCH   1   2
ATOM      2  C   UNL     1      46.177   4.898  13.671  0.00  0.00    +0.000 A 
ATOM      3  C   UNL     1      46.083   3.598  13.154  0.00  0.00    +0.000 A 
ATOM      4  C   UNL     1      45.304   3.329  12.019  0.00  0.00    +0.000 A 
ATOM      5  C   UNL     1      44.600   4.353  11.372  0.00  0.00    +0.000 A 
ATOM      6  C   UNL     1      44.651   5.642  11.917  0.00  0.00    +0.000 A 
ATOM      7  C   UNL     1      45.430   5.911  13.048  0.00  0.00    +0.000 A 
BRANCH   5   8
ATOM      8  C   UNL     1      43.842   4.097  10.094  0.00  0.00    +0.000 C 
BRANCH   8   9
ATOM      9  N   UNL     1      44.611   3.415   9.087  0.00  0.00    +0.000 N 
ATOM     10  C   UNL     1      45.603   4.080   8.398  0.00  0.00    +0.000 C 
ATOM     11  O   UNL     1      45.866   5.268   8.574  0.00  0.00    +0.000 OA
ATOM     12  H   UNL     1      44.487   2.427   8.893  0.00  0.00    +0.000 HD
BRANCH  10  13
ATOM     13  C   UNL     1      46.321   3.246   7.438  0.00  0.00    +0.000 A 
ATOM     14  C   UNL     1      46.737   1.940   7.631  0.00  0.00    +0.000 A 
ATOM     15  N   UNL     1      47.356   1.574   6.474  0.00  0.00    +0.000 N 
ATOM     16  C   UNL     1      47.304   2.639   5.620  0.00  0.00    +0.000 A 
ATOM     17  N   UNL     1      46.688   3.667   6.164  0.00  0.00    +0.000 NA
ATOM     18  H   UNL     1      47.779   0.675   6.275  0.00  0.00    +0.000 HD
ENDBRANCH  10  13
ENDBRANCH   8   9
ENDBRANCH   5   8
ENDBRANCH   1   2
BRANCH   1  19
ATOM     19  N   UNL     1      48.219   5.952  14.450  0.00  0.00    +0.000 N 
ATOM     20  C   UNL     1      48.831   6.925  15.197  0.00  0.00    +0.000 C 
ATOM     21  O   UNL     1      48.516   7.191  16.352  0.00  0.00    +0.000 OA
ATOM     22  H   UNL     1      48.360   5.967  13.446  0.00  0.00    +0.000 HD
BRANCH  20  23
ATOM     23  C   UNL     1      49.940   7.620  14.538  0.00  0.00    +0.000 A 
ATOM     24  C   UNL     1      51.207   7.623  15.103  0.00  0.00    +0.000 A 
ATOM     25  S   UNL     1      52.346   8.523  14.205  0.00  0.00    +0.000 S 
ATOM     26  C   UNL     1      51.171   8.971  13.056  0.00  0.00    +0.000 A 
ATOM     27  N   UNL     1      51.468   9.810  12.029  0.00  0.00    +0.000 NA
ATOM     28  C   UNL     1      50.468  10.088  11.260  0.00  0.00    +0.000 A 
ATOM     29  N   UNL     1      49.203   9.583  11.408  0.00  0.00    +0.000 N 
ATOM     30  C   UNL     1      48.870   8.692  12.396  0.00  0.00    +0.000 A 
ATOM     31  O   UNL     1      47.757   8.183  12.443  0.00  0.00    +0.000 OA
ATOM     32  C   UNL     1      49.944   8.394  13.324  0.00  0.00    +0.000 A 
ATOM     33  H   UNL     1      48.471   9.803  10.748  0.00  0.00    +0.000 HD
ENDBRANCH  20  23
ENDBRANCH   1  19
BRANCH   1  34
ATOM     34  C   UNL     1      47.485   3.916  15.637  0.00  0.00    +0.000 C 
BRANCH  34  36
ATOM     35  C   UNL     1      48.075   2.994  17.888  0.00  0.00    +0.000 C 
ATOM     36  C   UNL     1      47.142   3.923  17.126  0.00  0.00    +0.000 C 
ENDBRANCH  34  36
ENDBRANCH   1  34
TORSDOF 8
ENDMDL
MODEL 5
REMARK VINA RESULT:    -6.875      3.374      8.716
REMARK INTER + INTRA:         -11.667
REMARK INTER:                 -10.149
REMARK INTRA:                  -1.518
REMARK UNBOUND:                -1.577
REMARK  Name = 
REMARK  9 active torsions:
REMARK  status: ('A' for Active; 'I' for Inactive)
REMARK    1  A    between atoms: C_1  and  C_2
REMARK    2  A    between atoms: C_2  and  C_3
REMARK    3  A    between atoms: C_3  and  C_4
REMARK    4  A    between atoms: C_4  and  N_5
REMARK    5  A    between atoms: C_4  and  C_18
REMARK    6  A    between atoms: C_6  and  C_8
REMARK    7  A    between atoms: C_21  and  C_22
REMARK    8  A    between atoms: C_22  and  N_23
REMARK    9  A    between atoms: C_24  and  C_26
REMARK                            x       y       z     vdW  Elec       q    Type
REMARK                         _______ _______ _______ _____ _____    ______ ____
ROOT
ATOM      1  C   UNL     1      47.744   7.059  12.994  0.00  0.00    +0.000 C 
ENDROOT
BRANCH   1   2
ATOM      2  C   UNL     1      48.222   6.602  14.374  0.00  0.00    +0.000 A 
ATOM      3  C   UNL     1      49.251   7.284  15.039  0.00  0.00    +0.000 A 
ATOM      4  C   UNL     1      49.711   6.849  16.291  0.00  0.00    +0.000 A 
ATOM      5  C   UNL     1      49.155   5.721  16.909  0.00  0.00    +0.000 A 
ATOM      6  C   UNL     1      48.093   5.069  16.269  0.00  0.00    +0.000 A 
ATOM      7  C   UNL     1      47.634   5.501  15.020  0.00  0.00    +0.000 A 
BRANCH   5   8
ATOM      8  C   UNL     1      49.708   5.183  18.203  0.00  0.00    +0.000 C 
BRANCH   8   9
ATOM      9  N   UNL     1      50.335   3.895  18.080  0.00  0.00    +0.000 N 
ATOM     10  C   UNL     1      51.686   3.798  17.821  0.00  0.00    +0.000 C 
ATOM     11  O   UNL     1      52.412   4.775  17.654  0.00  0.00    +0.000 OA
ATOM     12  H   UNL     1      49.824   3.032  18.231  0.00  0.00    +0.000 HD
BRANCH  10  13
ATOM     13  C   UNL     1      52.184   2.426  17.763  0.00  0.00    +0.000 A 
ATOM     14  C   UNL     1      51.454   1.299  17.428  0.00  0.00    +0.000 A 
ATOM     15  N   UNL     1      52.326   0.255  17.507  0.00  0.00    +0.000 N 
ATOM     16  C   UNL     1      53.541   0.758  17.880  0.00  0.00    +0.000 A 
ATOM     17  N   UNL     1      53.496   2.063  18.044  0.00  0.00    +0.000 NA
ATOM     18  H   UNL     1      52.120  -0.719  17.323  0.00  0.00    +0.000 HD
ENDBRANCH  10  13
ENDBRANCH   8   9
ENDBRANCH   5   8
ENDBRANCH   1   2
BRANCH   1  19
ATOM     19  N   UNL     1      46.903   6.016  12.424  0.00  0.00    +0.000 N 
ATOM     20  C   UNL     1      45.538   6.100  12.316  0.00  0.00    +0.000 C 
ATOM     21  O   UNL     1      44.898   7.106  12.601  0.00  0.00    +0.000 OA
ATOM     22  H   UNL     1      47.322   5.092  12.414  0.00  0.00    +0.000 HD
BRANCH  20  23
ATOM     23  C   UNL     1      44.874   4.907  11.784  0.00  0.00    +0.000 A 
ATOM     24  C   UNL     1      44.086   4.114  12.604  0.00  0.00    +0.000 A 
ATOM     25  S   UNL     1      43.440   2.749  11.806  0.00  0.00    +0.000 S 
ATOM     26  C   UNL     1      44.230   3.155  10.353  0.00  0.00    +0.000 A 
ATOM     27  N   UNL     1      44.153   2.353   9.258  0.00  0.00    +0.000 NA
ATOM     28  C   UNL     1      44.832   2.770   8.241  0.00  0.00    +0.000 A 
ATOM     29  N   UNL     1      45.561   3.931   8.210  0.00  0.00    +0.000 N 
ATOM     30  C   UNL     1      45.624   4.796   9.273  0.00  0.00    +0.000 A 
ATOM     31  O   UNL     1      46.203   5.871   9.181  0.00  0.00    +0.000 OA
ATOM     32  C   UNL     1      44.926   4.343  10.460  0.00  0.00    +0.000 A 
ATOM     33  H   UNL     1      46.037   4.228   7.371  0.00  0.00    +0.000 HD
ENDBRANCH  20  23
ENDBRANCH   1  19
BRANCH   1  34
ATOM     34  C   UNL     1      48.911   7.398  12.044  0.00  0.00    +0.000 C 
BRANCH  34  36
ATOM     35  C   UNL     1      47.733   9.607  12.012  0.00  0.00    +0.000 C 
ATOM     36  C   UNL     1      49.044   8.888  11.732  0.00  0.00    +0.000 C 
ENDBRANCH  34  36
ENDBRANCH   1  34
TORSDOF 8
ENDMDL
MODEL 6
REMARK VINA RESULT:    -6.795      2.217      2.843
REMARK INTER + INTRA:         -11.550
REMARK INTER:                  -9.925
REMARK INTRA:                  -1.625
REMARK UNBOUND:                -1.577
REMARK  Name = 
REMARK  9 active torsions:
REMARK  status: ('A' for Active; 'I' for Inactive)
REMARK    1  A    between atoms: C_1  and  C_2
REMARK    2  A    between atoms: C_2  and  C_3
REMARK    3  A    between atoms: C_3  and  C_4
REMARK    4  A    between atoms: C_4  and  N_5
REMARK    5  A    between atoms: C_4  and  C_18
REMARK    6  A    between atoms: C_6  and  C_8
REMARK    7  A    between atoms: C_21  and  C_22
REMARK    8  A    between atoms: C_22  and  N_23
REMARK    9  A    between atoms: C_24  and  C_26
REMARK                            x       y       z     vdW  Elec       q    Type
REMARK                         _______ _______ _______ _____ _____    ______ ____
ROOT
ATOM      1  C   UNL     1      46.641   8.304  13.001  0.00  0.00    +0.000 C 
ENDROOT
BRANCH   1   2
ATOM      2  C   UNL     1      46.049   7.236  12.080  0.00  0.00    +0.000 A 
ATOM      3  C   UNL     1      44.875   6.555  12.433  0.00  0.00    +0.000 A 
ATOM      4  C   UNL     1      44.347   5.553  11.604  0.00  0.00    +0.000 A 
ATOM      5  C   UNL     1      44.980   5.207  10.402  0.00  0.00    +0.000 A 
ATOM      6  C   UNL     1      46.123   5.922  10.023  0.00  0.00    +0.000 A 
ATOM      7  C   UNL     1      46.652   6.920  10.851  0.00  0.00    +0.000 A 
BRANCH   5   8
ATOM      8  C   UNL     1      44.481   4.066   9.554  0.00  0.00    +0.000 C 
BRANCH   8   9
ATOM      9  N   UNL     1      45.318   3.770   8.423  0.00  0.00    +0.000 N 
ATOM     10  C   UNL     1      45.936   2.542   8.314  0.00  0.00    +0.000 C 
ATOM     11  O   UNL     1      45.839   1.661   9.165  0.00  0.00    +0.000 OA
ATOM     12  H   UNL     1      45.434   4.422   7.655  0.00  0.00    +0.000 HD
BRANCH  10  13
ATOM     13  C   UNL     1      46.719   2.377   7.092  0.00  0.00    +0.000 A 
ATOM     14  C   UNL     1      47.823   1.559   6.926  0.00  0.00    +0.000 A 
ATOM     15  N   UNL     1      48.217   1.727   5.632  0.00  0.00    +0.000 N 
ATOM     16  C   UNL     1      47.363   2.623   5.052  0.00  0.00    +0.000 A 
ATOM     17  N   UNL     1      46.446   3.038   5.899  0.00  0.00    +0.000 NA
ATOM     18  H   UNL     1      48.999   1.274   5.176  0.00  0.00    +0.000 HD
ENDBRANCH  10  13
ENDBRANCH   8   9
ENDBRANCH   5   8
ENDBRANCH   1   2
BRANCH   1  19
ATOM     19  N   UNL     1      47.135   7.655  14.208  0.00  0.00    +0.000 N 
ATOM     20  C   UNL     1      48.446   7.311  14.416  0.00  0.00    +0.000 C 
ATOM     21  O   UNL     1      49.353   7.602  13.644  0.00  0.00    +0.000 OA
ATOM     22  H   UNL     1      46.427   7.168  14.748  0.00  0.00    +0.000 HD
BRANCH  20  23
ATOM     23  C   UNL     1      48.718   6.595  15.665  0.00  0.00    +0.000 A 
ATOM     24  C   UNL     1      49.623   7.103  16.587  0.00  0.00    +0.000 A 
ATOM     25  S   UNL     1      49.832   6.099  17.952  0.00  0.00    +0.000 S 
ATOM     26  C   UNL     1      48.752   4.937  17.333  0.00  0.00    +0.000 A 
ATOM     27  N   UNL     1      48.518   3.768  17.987  0.00  0.00    +0.000 NA
ATOM     28  C   UNL     1      47.705   2.969  17.380  0.00  0.00    +0.000 A 
ATOM     29  N   UNL     1      47.083   3.242  16.189  0.00  0.00    +0.000 N 
ATOM     30  C   UNL     1      47.247   4.429  15.521  0.00  0.00    +0.000 A 
ATOM     31  O   UNL     1      46.603   4.682  14.511  0.00  0.00    +0.000 OA
ATOM     32  C   UNL     1      48.198   5.337  16.132  0.00  0.00    +0.000 A 
ATOM     33  H   UNL     1      46.422   2.596  15.783  0.00  0.00    +0.000 HD
ENDBRANCH  20  23
ENDBRANCH   1  19
BRANCH   1  34
ATOM     34  C   UNL     1      45.628   9.413  13.354  0.00  0.00    +0.000 C 
BRANCH  34  36
ATOM     35  C   UNL     1      45.795  11.127  11.538  0.00  0.00    +0.000 C 
ATOM     36  C   UNL     1      44.933  10.027  12.140  0.00  0.00    +0.000 C 
ENDBRANCH  34  36
ENDBRANCH   1  34
TORSDOF 8
ENDMDL
MODEL 7
REMARK VINA RESULT:    -6.506      2.742      4.430
REMARK INTER + INTRA:         -11.126
REMARK INTER:                  -9.932
REMARK INTRA:                  -1.194
REMARK UNBOUND:                -1.577
REMARK  Name = 
REMARK  9 active torsions:
REMARK  status: ('A' for Active; 'I' for Inactive)
REMARK    1  A    between atoms: C_1  and  C_2
REMARK    2  A    between atoms: C_2  and  C_3
REMARK    3  A    between atoms: C_3  and  C_4
REMARK    4  A    between atoms: C_4  and  N_5
REMARK    5  A    between atoms: C_4  and  C_18
REMARK    6  A    between atoms: C_6  and  C_8
REMARK    7  A    between atoms: C_21  and  C_22
REMARK    8  A    between atoms: C_22  and  N_23
REMARK    9  A    between atoms: C_24  and  C_26
REMARK                            x       y       z     vdW  Elec       q    Type
REMARK                         _______ _______ _______ _____ _____    ______ ____
ROOT
ATOM      1  C   UNL     1      47.138   5.488  14.813  0.00  0.00    +0.000 C 
ENDROOT
BRANCH   1   2
ATOM      2  C   UNL     1      46.270   5.222  13.582  0.00  0.00    +0.000 A 
ATOM      3  C   UNL     1      45.816   3.927  13.291  0.00  0.00    +0.000 A 
ATOM      4  C   UNL     1      45.045   3.674  12.146  0.00  0.00    +0.000 A 
ATOM      5  C   UNL     1      44.710   4.709  11.263  0.00  0.00    +0.000 A 
ATOM      6  C   UNL     1      45.119   6.011  11.579  0.00  0.00    +0.000 A 
ATOM      7  C   UNL     1      45.889   6.263  12.720  0.00  0.00    +0.000 A 
BRANCH   5   8
ATOM      8  C   UNL     1      43.971   4.434   9.978  0.00  0.00    +0.000 C 
BRANCH   8   9
ATOM      9  N   UNL     1      44.665   3.547   9.084  0.00  0.00    +0.000 N 
ATOM     10  C   UNL     1      45.701   4.015   8.302  0.00  0.00    +0.000 C 
ATOM     11  O   UNL     1      46.065   5.188   8.298  0.00  0.00    +0.000 OA
ATOM     12  H   UNL     1      44.456   2.556   9.040  0.00  0.00    +0.000 HD
BRANCH  10  13
ATOM     13  C   UNL     1      46.332   2.988   7.477  0.00  0.00    +0.000 A 
ATOM     14  C   UNL     1      46.741   3.125   6.163  0.00  0.00    +0.000 A 
ATOM     15  N   UNL     1      47.272   1.919   5.812  0.00  0.00    +0.000 N 
ATOM     16  C   UNL     1      47.178   1.094   6.897  0.00  0.00    +0.000 A 
ATOM     17  N   UNL     1      46.617   1.701   7.921  0.00  0.00    +0.000 NA
ATOM     18  H   UNL     1      47.668   1.673   4.913  0.00  0.00    +0.000 HD
ENDBRANCH  10  13
ENDBRANCH   8   9
ENDBRANCH   5   8
ENDBRANCH   1   2
BRANCH   1  19
ATOM     19  N   UNL     1      48.319   6.232  14.397  0.00  0.00    +0.000 N 
ATOM     20  C   UNL     1      48.946   7.177  15.168  0.00  0.00    +0.000 C 
ATOM     21  O   UNL     1      48.630   7.423  16.327  0.00  0.00    +0.000 OA
ATOM     22  H   UNL     1      48.466   6.267  13.393  0.00  0.00    +0.000 HD
BRANCH  20  23
ATOM     23  C   UNL     1      50.072   7.864  14.529  0.00  0.00    +0.000 A 
ATOM     24  C   UNL     1      49.862   8.712  13.452  0.00  0.00    +0.000 A 
ATOM     25  S   UNL     1      51.304   9.377  12.824  0.00  0.00    +0.000 S 
ATOM     26  C   UNL     1      52.255   8.518  13.946  0.00  0.00    +0.000 A 
ATOM     27  N   UNL     1      53.613   8.583  13.920  0.00  0.00    +0.000 NA
ATOM     28  C   UNL     1      54.200   7.851  14.808  0.00  0.00    +0.000 A 
ATOM     29  N   UNL     1      53.553   7.078  15.737  0.00  0.00    +0.000 N 
ATOM     30  C   UNL     1      52.186   7.024  15.835  0.00  0.00    +0.000 A 
ATOM     31  O   UNL     1      51.639   6.403  16.738  0.00  0.00    +0.000 OA
ATOM     32  C   UNL     1      51.479   7.783  14.822  0.00  0.00    +0.000 A 
ATOM     33  H   UNL     1      54.066   6.560  16.435  0.00  0.00    +0.000 HD
ENDBRANCH  20  23
ENDBRANCH   1  19
BRANCH   1  34
ATOM     34  C   UNL     1      47.540   4.194  15.549  0.00  0.00    +0.000 C 
BRANCH  34  36
ATOM     35  C   UNL     1      47.461   2.812  17.635  0.00  0.00    +0.000 C 
ATOM     36  C   UNL     1      47.127   4.163  17.020  0.00  0.00    +0.000 C 
ENDBRANCH  34  36
ENDBRANCH   1  34
TORSDOF 8
ENDMDL
MODEL 8
REMARK VINA RESULT:    -6.288      3.263      5.593
REMARK INTER + INTRA:         -10.806
REMARK INTER:                  -9.250
REMARK INTRA:                  -1.556
REMARK UNBOUND:                -1.577
REMARK  Name = 
REMARK  9 active torsions:
REMARK  status: ('A' for Active; 'I' for Inactive)
REMARK    1  A    between atoms: C_1  and  C_2
REMARK    2  A    between atoms: C_2  and  C_3
REMARK    3  A    between atoms: C_3  and  C_4
REMARK    4  A    between atoms: C_4  and  N_5
REMARK    5  A    between atoms: C_4  and  C_18
REMARK    6  A    between atoms: C_6  and  C_8
REMARK    7  A    between atoms: C_21  and  C_22
REMARK    8  A    between atoms: C_22  and  N_23
REMARK    9  A    between atoms: C_24  and  C_26
REMARK                            x       y       z     vdW  Elec       q    Type
REMARK                         _______ _______ _______ _____ _____    ______ ____
ROOT
ATOM      1  C   UNL     1      47.809   7.250  13.930  0.00  0.00    +0.000 C 
ENDROOT
BRANCH   1   2
ATOM      2  C   UNL     1      46.808   6.466  13.078  0.00  0.00    +0.000 A 
ATOM      3  C   UNL     1      46.472   5.144  13.400  0.00  0.00    +0.000 A 
ATOM      4  C   UNL     1      45.578   4.413  12.602  0.00  0.00    +0.000 A 
ATOM      5  C   UNL     1      44.999   4.986  11.462  0.00  0.00    +0.000 A 
ATOM      6  C   UNL     1      45.294   6.323  11.168  0.00  0.00    +0.000 A 
ATOM      7  C   UNL     1      46.187   7.052  11.962  0.00  0.00    +0.000 A 
BRANCH   5   8
ATOM      8  C   UNL     1      44.119   4.181  10.542  0.00  0.00    +0.000 C 
BRANCH   8   9
ATOM      9  N   UNL     1      44.821   3.167   9.802  0.00  0.00    +0.000 N 
ATOM     10  C   UNL     1      45.436   3.476   8.607  0.00  0.00    +0.000 C 
ATOM     11  O   UNL     1      45.400   4.595   8.099  0.00  0.00    +0.000 OA
ATOM     12  H   UNL     1      44.931   2.223  10.155  0.00  0.00    +0.000 HD
BRANCH  10  13
ATOM     13  C   UNL     1      46.142   2.353   7.994  0.00  0.00    +0.000 A 
ATOM     14  C   UNL     1      47.084   2.426   6.983  0.00  0.00    +0.000 A 
ATOM     15  N   UNL     1      47.466   1.140   6.739  0.00  0.00    +0.000 N 
ATOM     16  C   UNL     1      46.765   0.332   7.589  0.00  0.00    +0.000 A 
ATOM     17  N   UNL     1      45.956   1.025   8.362  0.00  0.00    +0.000 NA
ATOM     18  H   UNL     1      48.146   0.833   6.055  0.00  0.00    +0.000 HD
ENDBRANCH  10  13
ENDBRANCH   8   9
ENDBRANCH   5   8
ENDBRANCH   1   2
BRANCH   1  19
ATOM     19  N   UNL     1      48.659   8.034  13.045  0.00  0.00    +0.000 N 
ATOM     20  C   UNL     1      48.893   9.377  13.192  0.00  0.00    +0.000 C 
ATOM     21  O   UNL     1      48.483  10.035  14.142  0.00  0.00    +0.000 OA
ATOM     22  H   UNL     1      48.808   7.625  12.129  0.00  0.00    +0.000 HD
BRANCH  20  23
ATOM     23  C   UNL     1      49.717   9.990  12.148  0.00  0.00    +0.000 A 
ATOM     24  C   UNL     1      49.188  10.962  11.311  0.00  0.00    +0.000 A 
ATOM     25  S   UNL     1      50.295  11.516  10.134  0.00  0.00    +0.000 S 
ATOM     26  C   UNL     1      51.499  10.443  10.681  0.00  0.00    +0.000 A 
ATOM     27  N   UNL     1      52.703  10.352  10.056  0.00  0.00    +0.000 NA
ATOM     28  C   UNL     1      53.502   9.471  10.559  0.00  0.00    +0.000 A 
ATOM     29  N   UNL     1      53.217   8.688  11.648  0.00  0.00    +0.000 N 
ATOM     30  C   UNL     1      52.038   8.783  12.341  0.00  0.00    +0.000 A 
ATOM     31  O   UNL     1      51.852   8.140  13.367  0.00  0.00    +0.000 OA
ATOM     32  C   UNL     1      51.082   9.717  11.780  0.00  0.00    +0.000 A 
ATOM     33  H   UNL     1      53.899   8.045  12.024  0.00  0.00    +0.000 HD
ENDBRANCH  20  23
ENDBRANCH   1  19
BRANCH   1  34
ATOM     34  C   UNL     1      48.659   6.337  14.837  0.00  0.00    +0.000 C 
BRANCH  34  36
ATOM     35  C   UNL     1      50.567   6.933  16.344  0.00  0.00    +0.000 C 
ATOM     36  C   UNL     1      49.057   6.979  16.165  0.00  0.00    +0.000 C 
ENDBRANCH  34  36
ENDBRANCH   1  34
TORSDOF 8
ENDMDL
MODEL 9
REMARK VINA RESULT:    -6.231      2.892      9.110
REMARK INTER + INTRA:         -10.723
REMARK INTER:                  -9.326
REMARK INTRA:                  -1.397
REMARK UNBOUND:                -1.577
REMARK  Name = 
REMARK  9 active torsions:
REMARK  status: ('A' for Active; 'I' for Inactive)
REMARK    1  A    between atoms: C_1  and  C_2
REMARK    2  A    between atoms: C_2  and  C_3
REMARK    3  A    between atoms: C_3  and  C_4
REMARK    4  A    between atoms: C_4  and  N_5
REMARK    5  A    between atoms: C_4  and  C_18
REMARK    6  A    between atoms: C_6  and  C_8
REMARK    7  A    between atoms: C_21  and  C_22
REMARK    8  A    between atoms: C_22  and  N_23
REMARK    9  A    between atoms: C_24  and  C_26
REMARK                            x       y       z     vdW  Elec       q    Type
REMARK                         _______ _______ _______ _____ _____    ______ ____
ROOT
ATOM      1  C   UNL     1      47.648   7.723  12.262  0.00  0.00    +0.000 C 
ENDROOT
BRANCH   1   2
ATOM      2  C   UNL     1      48.002   7.701  13.751  0.00  0.00    +0.000 A 
ATOM      3  C   UNL     1      47.982   8.881  14.509  0.00  0.00    +0.000 A 
ATOM      4  C   UNL     1      48.336   8.870  15.867  0.00  0.00    +0.000 A 
ATOM      5  C   UNL     1      48.719   7.679  16.500  0.00  0.00    +0.000 A 
ATOM      6  C   UNL     1      48.690   6.493  15.757  0.00  0.00    +0.000 A 
ATOM      7  C   UNL     1      48.339   6.504  14.402  0.00  0.00    +0.000 A 
BRANCH   5   8
ATOM      8  C   UNL     1      49.199   7.671  17.928  0.00  0.00    +0.000 C 
BRANCH   8   9
ATOM      9  N   UNL     1      50.249   6.722  18.186  0.00  0.00    +0.000 N 
ATOM     10  C   UNL     1      50.066   5.712  19.107  0.00  0.00    +0.000 C 
ATOM     11  O   UNL     1      49.038   5.580  19.767  0.00  0.00    +0.000 OA
ATOM     12  H   UNL     1      51.122   6.732  17.669  0.00  0.00    +0.000 HD
BRANCH  10  13
ATOM     13  C   UNL     1      51.205   4.805  19.228  0.00  0.00    +0.000 A 
ATOM     14  C   UNL     1      52.004   4.633  20.344  0.00  0.00    +0.000 A 
ATOM     15  N   UNL     1      52.928   3.693  19.997  0.00  0.00    +0.000 N 
ATOM     16  C   UNL     1      52.676   3.321  18.707  0.00  0.00    +0.000 A 
ATOM     17  N   UNL     1      51.644   3.969  18.208  0.00  0.00    +0.000 NA
ATOM     18  H   UNL     1      53.669   3.330  20.584  0.00  0.00    +0.000 HD
ENDBRANCH  10  13
ENDBRANCH   8   9
ENDBRANCH   5   8
ENDBRANCH   1   2
BRANCH   1  19
ATOM     19  N   UNL     1      46.821   6.560  11.965  0.00  0.00    +0.000 N 
ATOM     20  C   UNL     1      45.472   6.616  11.725  0.00  0.00    +0.000 C 
ATOM     21  O   UNL     1      44.841   7.664  11.644  0.00  0.00    +0.000 OA
ATOM     22  H   UNL     1      47.213   5.674  12.265  0.00  0.00    +0.000 HD
BRANCH  20  23
ATOM     23  C   UNL     1      44.816   5.321  11.523  0.00  0.00    +0.000 A 
ATOM     24  C   UNL     1      44.022   4.769  12.519  0.00  0.00    +0.000 A 
ATOM     25  S   UNL     1      43.387   3.239  12.105  0.00  0.00    +0.000 S 
ATOM     26  C   UNL     1      44.187   3.250  10.602  0.00  0.00    +0.000 A 
ATOM     27  N   UNL     1      44.122   2.187   9.757  0.00  0.00    +0.000 NA
ATOM     28  C   UNL     1      44.808   2.324   8.672  0.00  0.00    +0.000 A 
ATOM     29  N   UNL     1      45.534   3.438   8.340  0.00  0.00    +0.000 N 
ATOM     30  C   UNL     1      45.586   4.553   9.136  0.00  0.00    +0.000 A 
ATOM     31  O   UNL     1      46.163   5.569   8.768  0.00  0.00    +0.000 OA
ATOM     32  C   UNL     1      44.880   4.427  10.397  0.00  0.00    +0.000 A 
ATOM     33  H   UNL     1      46.017   3.505   7.456  0.00  0.00    +0.000 HD
ENDBRANCH  20  23
ENDBRANCH   1  19
BRANCH   1  34
ATOM     34  C   UNL     1      48.894   7.752  11.355  0.00  0.00    +0.000 C 
BRANCH  34  36
ATOM     35  C   UNL     1      51.234   8.465  11.888  0.00  0.00    +0.000 C 
ATOM     36  C   UNL     1      49.818   8.943  11.608  0.00  0.00    +0.000 C 
ENDBRANCH  34  36
ENDBRANCH   1  34
TORSDOF 8
ENDMDL
