MODEL 1
REMARK VINA RESULT:    -7.550      0.000      0.000
REMARK INTER + INTRA:         -11.394
REMARK INTER:                 -10.418
REMARK INTRA:                  -0.976
REMARK UNBOUND:                -0.976
REMARK  Name = 
REMARK  7 active torsions:
REMARK  status: ('A' for Active; 'I' for Inactive)
REMARK    1  A    between atoms: C_2  and  C_19
REMARK    2  A    between atoms: N_3  and  C_4
REMARK    3  A    between atoms: C_4  and  C_5
REMARK    4  A    between atoms: C_8  and  C_9
REMARK    5  A    between atoms: C_9  and  O_10
REMARK    6  A    between atoms: C_9  and  C_11
REMARK    7  A    between atoms: C_11  and  C_12
REMARK                            x       y       z     vdW  Elec       q    Type
REMARK                         _______ _______ _______ _____ _____    ______ ____
ROOT
ATOM      1  C   UNL     1      46.343   7.508  12.807  0.00  0.00    +0.000 C 
ENDROOT
BRANCH   1   2
ATOM      2  C   UNL     1      45.840   6.372  11.957  0.00  0.00    +0.000 A 
ATOM      3  C   UNL     1      46.074   6.365  10.577  0.00  0.00    +0.000 A 
ATOM      4  C   UNL     1      45.657   5.287   9.793  0.00  0.00    +0.000 A 
ATOM      5  C   UNL     1      44.983   4.198  10.367  0.00  0.00    +0.000 A 
ATOM      6  C   UNL     1      44.702   4.235  11.740  0.00  0.00    +0.000 A 
ATOM      7  C   UNL     1      45.127   5.310  12.526  0.00  0.00    +0.000 A 
BRANCH   5   8
ATOM      8  C   UNL     1      44.590   3.017   9.498  0.00  0.00    +0.000 C 
BRANCH   8   9
ATOM      9  O   UNL     1      43.763   3.435   8.411  0.00  0.00    +0.000 OA
ATOM     10  H   UNL     1      44.015   2.928   7.624  0.00  0.00    +0.000 HD
ENDBRANCH   8   9
BRANCH   8  11
ATOM     11  C   UNL     1      45.802   2.261   8.937  0.00  0.00    +0.000 C 
BRANCH  11  12
ATOM     12  C   UNL     1      45.943   2.360   7.401  0.00  0.00    +0.000 C 
ATOM     13  C   UNL     1      46.771   1.238   6.783  0.00  0.00    +0.000 C 
ATOM     14  C   UNL     1      48.183   1.772   6.869  0.00  0.00    +0.000 C 
ATOM     15  N   UNL     1      48.044   3.185   6.511  0.00  0.00    +0.000 NA
ATOM     16  C   UNL     1      46.727   3.619   7.008  0.00  0.00    +0.000 C 
ATOM     17  H   UNL     1      48.034   3.254   5.492  0.00  0.00    +0.000 HD
ENDBRANCH  11  12
ENDBRANCH   8  11
ENDBRANCH   5   8
ENDBRANCH   1   2
BRANCH   1  20
ATOM     18  O   UNL     1      49.012   6.721  13.157  0.00  0.00    +0.000 OA
ATOM     19  C   UNL     1      48.256   6.695  14.126  0.00  0.00    +0.000 C 
ATOM     20  N   UNL     1      46.932   7.035  14.032  0.00  0.00    +0.000 N 
ATOM     21  H   UNL     1      46.387   7.165  14.877  0.00  0.00    +0.000 HD
BRANCH  19  22
ATOM     22  C   UNL     1      48.723   6.239  15.440  0.00  0.00    +0.000 A 
ATOM     23  C   UNL     1      49.708   6.959  16.103  0.00  0.00    +0.000 A 
ATOM     24  S   UNL     1      50.138   6.299  17.616  0.00  0.00    +0.000 S 
ATOM     25  C   UNL     1      48.992   5.053  17.457  0.00  0.00    +0.000 A 
ATOM     26  N   UNL     1      48.810   4.142  18.451  0.00  0.00    +0.000 NA
ATOM     27  C   UNL     1      47.879   3.279  18.220  0.00  0.00    +0.000 A 
ATOM     28  N   UNL     1      47.125   3.230  17.076  0.00  0.00    +0.000 N 
ATOM     29  C   UNL     1      47.331   4.076  16.011  0.00  0.00    +0.000 A 
ATOM     30  O   UNL     1      46.741   3.915  14.947  0.00  0.00    +0.000 OA
ATOM     31  C   UNL     1      48.320   5.112  16.248  0.00  0.00    +0.000 A 
ATOM     32  H   UNL     1      46.437   2.503  16.944  0.00  0.00    +0.000 HD
ENDBRANCH  19  22
ENDBRANCH   1  20
TORSDOF 7
ENDMDL
MODEL 2
REMARK VINA RESULT:    -7.169      1.857      2.386
REMARK INTER + INTRA:         -10.868
REMARK INTER:                 -10.117
REMARK INTRA:                  -0.751
REMARK UNBOUND:                -0.976
REMARK  Name = 
REMARK  7 active torsions:
REMARK  status: ('A' for Active; 'I' for Inactive)
REMARK    1  A    between atoms: C_2  and  C_19
REMARK    2  A    between atoms: N_3  and  C_4
REMARK    3  A    between atoms: C_4  and  C_5
REMARK    4  A    between atoms: C_8  and  C_9
REMARK    5  A    between atoms: C_9  and  O_10
REMARK    6  A    between atoms: C_9  and  C_11
REMARK    7  A    between atoms: C_11  and  C_12
REMARK                            x       y       z     vdW  Elec       q    Type
REMARK                         _______ _______ _______ _____ _____    ______ ____
ROOT
ATOM      1  C   UNL     1      47.363   6.766  13.622  0.00  0.00    +0.000 C 
ENDROOT
BRANCH   1   2
ATOM      2  C   UNL     1      46.557   5.970  12.630  0.00  0.00    +0.000 A 
ATOM      3  C   UNL     1      46.346   6.460  11.336  0.00  0.00    +0.000 A 
ATOM      4  C   UNL     1      45.646   5.701  10.396  0.00  0.00    +0.000 A 
ATOM      5  C   UNL     1      45.125   4.441  10.733  0.00  0.00    +0.000 A 
ATOM      6  C   UNL     1      45.291   3.980  12.046  0.00  0.00    +0.000 A 
ATOM      7  C   UNL     1      45.999   4.736  12.984  0.00  0.00    +0.000 A 
BRANCH   5   8
ATOM      8  C   UNL     1      44.414   3.617   9.675  0.00  0.00    +0.000 C 
BRANCH   8   9
ATOM      9  O   UNL     1      43.781   4.459   8.710  0.00  0.00    +0.000 OA
ATOM     10  H   UNL     1      43.279   3.899   8.099  0.00  0.00    +0.000 HD
ENDBRANCH   8   9
BRANCH   8  11
ATOM     11  C   UNL     1      45.353   2.647   8.945  0.00  0.00    +0.000 C 
BRANCH  11  12
ATOM     12  C   UNL     1      45.646   3.044   7.481  0.00  0.00    +0.000 C 
ATOM     13  C   UNL     1      46.179   1.899   6.624  0.00  0.00    +0.000 C 
ATOM     14  C   UNL     1      47.671   1.967   6.859  0.00  0.00    +0.000 C 
ATOM     15  N   UNL     1      47.961   3.403   6.848  0.00  0.00    +0.000 NA
ATOM     16  C   UNL     1      46.778   4.076   7.414  0.00  0.00    +0.000 C 
ATOM     17  H   UNL     1      48.056   3.699   5.876  0.00  0.00    +0.000 HD
ENDBRANCH  11  12
ENDBRANCH   8  11
ENDBRANCH   5   8
ENDBRANCH   1   2
BRANCH   1  20
ATOM     18  O   UNL     1      49.689   6.617  15.184  0.00  0.00    +0.000 OA
ATOM     19  C   UNL     1      48.667   6.071  15.592  0.00  0.00    +0.000 C 
ATOM     20  N   UNL     1      47.498   6.072  14.876  0.00  0.00    +0.000 N 
ATOM     21  H   UNL     1      46.640   5.762  15.318  0.00  0.00    +0.000 HD
BRANCH  19  22
ATOM     22  C   UNL     1      48.657   5.331  16.859  0.00  0.00    +0.000 A 
ATOM     23  C   UNL     1      48.387   3.969  16.853  0.00  0.00    +0.000 A 
ATOM     24  S   UNL     1      48.414   3.258  18.402  0.00  0.00    +0.000 S 
ATOM     25  C   UNL     1      48.832   4.736  19.131  0.00  0.00    +0.000 A 
ATOM     26  N   UNL     1      49.056   4.815  20.471  0.00  0.00    +0.000 NA
ATOM     27  C   UNL     1      49.409   5.986  20.885  0.00  0.00    +0.000 A 
ATOM     28  N   UNL     1      49.539   7.092  20.085  0.00  0.00    +0.000 N 
ATOM     29  C   UNL     1      49.241   7.079  18.742  0.00  0.00    +0.000 A 
ATOM     30  O   UNL     1      49.226   8.115  18.084  0.00  0.00    +0.000 OA
ATOM     31  C   UNL     1      48.906   5.770  18.212  0.00  0.00    +0.000 A 
ATOM     32  H   UNL     1      49.782   7.987  20.482  0.00  0.00    +0.000 HD
ENDBRANCH  19  22
ENDBRANCH   1  20
TORSDOF 7
ENDMDL
MODEL 3
REMARK VINA RESULT:    -7.103      4.097      9.098
REMARK INTER + INTRA:         -10.778
REMARK INTER:                  -9.725
REMARK INTRA:                  -1.054
REMARK UNBOUND:                -0.976
REMARK  Name = 
REMARK  7 active torsions:
REMARK  status: ('A' for Active; 'I' for Inactive)
REMARK    1  A    between atoms: C_2  and  C_19
REMARK    2  A    between atoms: N_3  and  C_4
REMARK    3  A    between atoms: C_4  and  C_5
REMARK    4  A    between atoms: C_8  and  C_9
REMARK    5  A    between atoms: C_9  and  O_10
REMARK    6  A    between atoms: C_9  and  C_11
REMARK    7  A    between atoms: C_11  and  C_12
REMARK                            x       y       z     vdW  Elec       q    Type
REMARK                         _______ _______ _______ _____ _____    ______ ____
ROOT
ATOM      1  C   UNL     1      47.186   3.435  16.840  0.00  0.00    +0.000 C 
ENDROOT
BRANCH   1   2
ATOM      2  C   UNL     1      48.654   3.576  17.145  0.00  0.00    +0.000 A 
ATOM      3  C   UNL     1      49.475   2.444  17.206  0.00  0.00    +0.000 A 
ATOM      4  C   UNL     1      50.846   2.574  17.434  0.00  0.00    +0.000 A 
ATOM      5  C   UNL     1      51.427   3.838  17.623  0.00  0.00    +0.000 A 
ATOM      6  C   UNL     1      50.593   4.964  17.617  0.00  0.00    +0.000 A 
ATOM      7  C   UNL     1      49.221   4.834  17.380  0.00  0.00    +0.000 A 
BRANCH   5   8
ATOM      8  C   UNL     1      52.928   3.951  17.817  0.00  0.00    +0.000 C 
BRANCH   8   9
ATOM      9  O   UNL     1      53.305   5.294  18.124  0.00  0.00    +0.000 OA
ATOM     10  H   UNL     1      54.260   5.383  17.982  0.00  0.00    +0.000 HD
ENDBRANCH   8   9
BRANCH   8  11
ATOM     11  C   UNL     1      53.459   3.023  18.918  0.00  0.00    +0.000 C 
BRANCH  11  12
ATOM     12  C   UNL     1      54.618   2.109  18.459  0.00  0.00    +0.000 C 
ATOM     13  C   UNL     1      54.242   1.153  17.331  0.00  0.00    +0.000 C 
ATOM     14  C   UNL     1      53.693  -0.046  18.071  0.00  0.00    +0.000 C 
ATOM     15  N   UNL     1      54.603  -0.199  19.210  0.00  0.00    +0.000 NA
ATOM     16  C   UNL     1      55.038   1.158  19.586  0.00  0.00    +0.000 C 
ATOM     17  H   UNL     1      55.424  -0.715  18.891  0.00  0.00    +0.000 HD
ENDBRANCH  11  12
ENDBRANCH   8  11
ENDBRANCH   5   8
ENDBRANCH   1   2
BRANCH   1  20
ATOM     18  O   UNL     1      47.230   3.091  14.057  0.00  0.00    +0.000 OA
ATOM     19  C   UNL     1      46.781   4.139  14.516  0.00  0.00    +0.000 C 
ATOM     20  N   UNL     1      46.752   4.397  15.861  0.00  0.00    +0.000 N 
ATOM     21  H   UNL     1      46.224   5.189  16.208  0.00  0.00    +0.000 HD
BRANCH  19  22
ATOM     22  C   UNL     1      46.297   5.207  13.634  0.00  0.00    +0.000 A 
ATOM     23  C   UNL     1      47.118   6.293  13.362  0.00  0.00    +0.000 A 
ATOM     24  S   UNL     1      46.410   7.445  12.323  0.00  0.00    +0.000 S 
ATOM     25  C   UNL     1      44.998   6.510  12.164  0.00  0.00    +0.000 A 
ATOM     26  N   UNL     1      43.981   6.914  11.356  0.00  0.00    +0.000 NA
ATOM     27  C   UNL     1      42.990   6.091  11.293  0.00  0.00    +0.000 A 
ATOM     28  N   UNL     1      42.912   4.908  11.981  0.00  0.00    +0.000 N 
ATOM     29  C   UNL     1      43.876   4.499  12.874  0.00  0.00    +0.000 A 
ATOM     30  O   UNL     1      43.710   3.511  13.581  0.00  0.00    +0.000 OA
ATOM     31  C   UNL     1      45.046   5.357  12.929  0.00  0.00    +0.000 A 
ATOM     32  H   UNL     1      42.088   4.328  11.915  0.00  0.00    +0.000 HD
ENDBRANCH  19  22
ENDBRANCH   1  20
TORSDOF 7
ENDMDL
MODEL 4
REMARK VINA RESULT:    -7.076      1.772      2.224
REMARK INTER + INTRA:         -10.741
REMARK INTER:                  -9.941
REMARK INTRA:                  -0.800
REMARK UNBOUND:                -0.976
REMARK  Name = 
REMARK  7 active torsions:
REMARK  status: ('A' for Active; 'I' for Inactive)
REMARK    1  A    between atoms: C_2  and  C_19
REMARK    2  A    between atoms: N_3  and  C_4
REMARK    3  A    between atoms: C_4  and  C_5
REMARK    4  A    between atoms: C_8  and  C_9
REMARK    5  A    between atoms: C_9  and  O_10
REMARK    6  A    between atoms: C_9  and  C_11
REMARK    7  A    between atoms: C_11  and  C_12
REMARK                            x       y       z     vdW  Elec       q    Type
REMARK                         _______ _______ _______ _____ _____    ______ ____
ROOT
ATOM      1  C   UNL     1      48.312   7.311  13.711  0.00  0.00    +0.000 C 
ENDROOT
BRANCH   1   2
ATOM      2  C   UNL     1      47.226   6.545  13.003  0.00  0.00    +0.000 A 
ATOM      3  C   UNL     1      46.584   7.096  11.889  0.00  0.00    +0.000 A 
ATOM      4  C   UNL     1      45.615   6.367  11.197  0.00  0.00    +0.000 A 
ATOM      5  C   UNL     1      45.253   5.076  11.612  0.00  0.00    +0.000 A 
ATOM      6  C   UNL     1      45.859   4.550  12.762  0.00  0.00    +0.000 A 
ATOM      7  C   UNL     1      46.835   5.277  13.449  0.00  0.00    +0.000 A 
BRANCH   5   8
ATOM      8  C   UNL     1      44.234   4.288  10.808  0.00  0.00    +0.000 C 
BRANCH   8   9
ATOM      9  O   UNL     1      43.320   5.162  10.145  0.00  0.00    +0.000 OA
ATOM     10  H   UNL     1      42.422   4.822  10.280  0.00  0.00    +0.000 HD
ENDBRANCH   8   9
BRANCH   8  11
ATOM     11  C   UNL     1      44.882   3.365   9.767  0.00  0.00    +0.000 C 
BRANCH  11  12
ATOM     12  C   UNL     1      44.911   3.958   8.340  0.00  0.00    +0.000 C 
ATOM     13  C   UNL     1      45.081   2.913   7.241  0.00  0.00    +0.000 C 
ATOM     14  C   UNL     1      46.582   2.777   7.131  0.00  0.00    +0.000 C 
ATOM     15  N   UNL     1      47.066   4.156   7.243  0.00  0.00    +0.000 NA
ATOM     16  C   UNL     1      46.140   4.856   8.150  0.00  0.00    +0.000 C 
ATOM     17  H   UNL     1      46.994   4.592   6.322  0.00  0.00    +0.000 HD
ENDBRANCH  11  12
ENDBRANCH   8  11
ENDBRANCH   5   8
ENDBRANCH   1   2
BRANCH   1  20
ATOM     18  O   UNL     1      50.372   6.661  15.500  0.00  0.00    +0.000 OA
ATOM     19  C   UNL     1      49.256   6.911  15.950  0.00  0.00    +0.000 C 
ATOM     20  N   UNL     1      48.190   7.208  15.141  0.00  0.00    +0.000 N 
ATOM     21  H   UNL     1      47.337   7.571  15.551  0.00  0.00    +0.000 HD
BRANCH  19  22
ATOM     22  C   UNL     1      48.987   6.849  17.391  0.00  0.00    +0.000 A 
ATOM     23  C   UNL     1      48.711   8.018  18.086  0.00  0.00    +0.000 A 
ATOM     24  S   UNL     1      48.422   7.776  19.748  0.00  0.00    +0.000 S 
ATOM     25  C   UNL     1      48.611   6.094  19.590  0.00  0.00    +0.000 A 
ATOM     26  N   UNL     1      48.444   5.269  20.659  0.00  0.00    +0.000 NA
ATOM     27  C   UNL     1      48.574   4.013  20.389  0.00  0.00    +0.000 A 
ATOM     28  N   UNL     1      48.876   3.506  19.152  0.00  0.00    +0.000 N 
ATOM     29  C   UNL     1      49.137   4.305  18.063  0.00  0.00    +0.000 A 
ATOM     30  O   UNL     1      49.546   3.829  17.008  0.00  0.00    +0.000 OA
ATOM     31  C   UNL     1      48.936   5.724  18.295  0.00  0.00    +0.000 A 
ATOM     32  H   UNL     1      48.999   2.513  19.019  0.00  0.00    +0.000 HD
ENDBRANCH  19  22
ENDBRANCH   1  20
TORSDOF 7
ENDMDL
MODEL 5
REMARK VINA RESULT:    -7.043      2.439      4.269
REMARK INTER + INTRA:         -10.695
REMARK INTER:                  -9.622
REMARK INTRA:                  -1.072
REMARK UNBOUND:                -0.976
REMARK  Name = 
REMARK  7 active torsions:
REMARK  status: ('A' for Active; 'I' for Inactive)
REMARK    1  A    between atoms: C_2  and  C_19
REMARK    2  A    between atoms: N_3  and  C_4
REMARK    3  A    between atoms: C_4  and  C_5
REMARK    4  A    between atoms: C_8  and  C_9
REMARK    5  A    between atoms: C_9  and  O_10
REMARK    6  A    between atoms: C_9  and  C_11
REMARK    7  A    between atoms: C_11  and  C_12
REMARK                            x       y       z     vdW  Elec       q    Type
REMARK                         _______ _______ _______ _____ _____    ______ ____
ROOT
ATOM      1  C   UNL     1      46.841   4.981  14.255  0.00  0.00    +0.000 C 
ENDROOT
BRANCH   1   2
ATOM      2  C   UNL     1      46.161   4.575  12.975  0.00  0.00    +0.000 A 
ATOM      3  C   UNL     1      45.743   3.252  12.786  0.00  0.00    +0.000 A 
ATOM      4  C   UNL     1      45.064   2.882  11.624  0.00  0.00    +0.000 A 
ATOM      5  C   UNL     1      44.800   3.822  10.615  0.00  0.00    +0.000 A 
ATOM      6  C   UNL     1      45.269   5.133  10.784  0.00  0.00    +0.000 A 
ATOM      7  C   UNL     1      45.942   5.504  11.952  0.00  0.00    +0.000 A 
BRANCH   5   8
ATOM      8  C   UNL     1      44.013   3.402   9.387  0.00  0.00    +0.000 C 
BRANCH   8   9
ATOM      9  O   UNL     1      43.832   4.502   8.495  0.00  0.00    +0.000 OA
ATOM     10  H   UNL     1      44.680   4.689   8.064  0.00  0.00    +0.000 HD
ENDBRANCH   8   9
BRANCH   8  11
ATOM     11  C   UNL     1      44.674   2.248   8.622  0.00  0.00    +0.000 C 
BRANCH  11  12
ATOM     12  C   UNL     1      46.198   2.419   8.428  0.00  0.00    +0.000 C 
ATOM     13  C   UNL     1      46.575   3.499   7.418  0.00  0.00    +0.000 C 
ATOM     14  C   UNL     1      46.570   2.750   6.104  0.00  0.00    +0.000 C 
ATOM     15  N   UNL     1      47.197   1.467   6.432  0.00  0.00    +0.000 NA
ATOM     16  C   UNL     1      46.814   1.153   7.820  0.00  0.00    +0.000 C 
ATOM     17  H   UNL     1      48.210   1.594   6.407  0.00  0.00    +0.000 HD
ENDBRANCH  11  12
ENDBRANCH   8  11
ENDBRANCH   5   8
ENDBRANCH   1   2
BRANCH   1  20
ATOM     18  O   UNL     1      49.218   6.044  15.300  0.00  0.00    +0.000 OA
ATOM     19  C   UNL     1      48.426   6.802  14.742  0.00  0.00    +0.000 C 
ATOM     20  N   UNL     1      47.231   6.367  14.233  0.00  0.00    +0.000 N 
ATOM     21  H   UNL     1      46.688   6.981  13.636  0.00  0.00    +0.000 HD
BRANCH  19  22
ATOM     22  C   UNL     1      48.697   8.240  14.641  0.00  0.00    +0.000 A 
ATOM     23  C   UNL     1      48.808   8.998  15.799  0.00  0.00    +0.000 A 
ATOM     24  S   UNL     1      49.123  10.648  15.511  0.00  0.00    +0.000 S 
ATOM     25  C   UNL     1      49.167  10.400  13.829  0.00  0.00    +0.000 A 
ATOM     26  N   UNL     1      49.443  11.426  12.979  0.00  0.00    +0.000 NA
ATOM     27  C   UNL     1      49.489  11.090  11.734  0.00  0.00    +0.000 A 
ATOM     28  N   UNL     1      49.263   9.825  11.257  0.00  0.00    +0.000 N 
ATOM     29  C   UNL     1      48.897   8.776  12.069  0.00  0.00    +0.000 A 
ATOM     30  O   UNL     1      48.560   7.694  11.599  0.00  0.00    +0.000 OA
ATOM     31  C   UNL     1      48.900   9.085  13.488  0.00  0.00    +0.000 A 
ATOM     32  H   UNL     1      49.277   9.639  10.265  0.00  0.00    +0.000 HD
ENDBRANCH  19  22
ENDBRANCH   1  20
TORSDOF 7
ENDMDL
MODEL 6
REMARK VINA RESULT:    -6.974      2.515      3.391
REMARK INTER + INTRA:         -10.600
REMARK INTER:                  -9.322
REMARK INTRA:                  -1.278
REMARK UNBOUND:                -0.976
REMARK  Name = 
REMARK  7 active torsions:
REMARK  status: ('A' for Active; 'I' for Inactive)
REMARK    1  A    between atoms: C_2  and  C_19
REMARK    2  A    between atoms: N_3  and  C_4
REMARK    3  A    between atoms: C_4  and  C_5
REMARK    4  A    between atoms: C_8  and  C_9
REMARK    5  A    between atoms: C_9  and  O_10
REMARK    6  A    between atoms: C_9  and  C_11
REMARK    7  A    between atoms: C_11  and  C_12
REMARK                            x       y       z     vdW  Elec       q    Type
REMARK                         _______ _______ _______ _____ _____    ______ ____
ROOT
ATOM      1  C   UNL     1      48.843   7.335  14.010  0.00  0.00    +0.000 C 
ENDROOT
BRANCH   1   2
ATOM      2  C   UNL     1      47.533   6.678  13.665  0.00  0.00    +0.000 A 
ATOM      3  C   UNL     1      47.310   5.334  13.988  0.00  0.00    +0.000 A 
ATOM      4  C   UNL     1      46.077   4.736  13.719  0.00  0.00    +0.000 A 
ATOM      5  C   UNL     1      45.044   5.461  13.105  0.00  0.00    +0.000 A 
ATOM      6  C   UNL     1      45.291   6.790  12.733  0.00  0.00    +0.000 A 
ATOM      7  C   UNL     1      46.522   7.391  13.010  0.00  0.00    +0.000 A 
BRANCH   5   8
ATOM      8  C   UNL     1      43.698   4.798  12.874  0.00  0.00    +0.000 C 
BRANCH   8   9
ATOM      9  O   UNL     1      42.630   5.646  13.298  0.00  0.00    +0.000 OA
ATOM     10  H   UNL     1      41.829   5.107  13.385  0.00  0.00    +0.000 HD
ENDBRANCH   8   9
BRANCH   8  11
ATOM     11  C   UNL     1      43.470   4.410  11.406  0.00  0.00    +0.000 C 
BRANCH  11  12
ATOM     12  C   UNL     1      44.691   3.735  10.742  0.00  0.00    +0.000 C 
ATOM     13  C   UNL     1      45.295   4.539   9.595  0.00  0.00    +0.000 C 
ATOM     14  C   UNL     1      44.489   4.082   8.400  0.00  0.00    +0.000 C 
ATOM     15  N   UNL     1      44.351   2.637   8.605  0.00  0.00    +0.000 NA
ATOM     16  C   UNL     1      44.282   2.423  10.061  0.00  0.00    +0.000 C 
ATOM     17  H   UNL     1      45.201   2.187   8.261  0.00  0.00    +0.000 HD
ENDBRANCH  11  12
ENDBRANCH   8  11
ENDBRANCH   5   8
ENDBRANCH   1   2
BRANCH   1  20
ATOM     18  O   UNL     1      48.273   8.934  16.243  0.00  0.00    +0.000 OA
ATOM     19  C   UNL     1      48.889   7.884  16.410  0.00  0.00    +0.000 C 
ATOM     20  N   UNL     1      49.232   7.062  15.369  0.00  0.00    +0.000 N 
ATOM     21  H   UNL     1      49.585   6.132  15.561  0.00  0.00    +0.000 HD
BRANCH  19  22
ATOM     22  C   UNL     1      49.345   7.476  17.743  0.00  0.00    +0.000 A 
ATOM     23  C   UNL     1      50.207   8.301  18.453  0.00  0.00    +0.000 A 
ATOM     24  S   UNL     1      50.641   7.685  19.983  0.00  0.00    +0.000 S 
ATOM     25  C   UNL     1      49.657   6.315  19.769  0.00  0.00    +0.000 A 
ATOM     26  N   UNL     1      49.537   5.382  20.751  0.00  0.00    +0.000 NA
ATOM     27  C   UNL     1      48.725   4.418  20.475  0.00  0.00    +0.000 A 
ATOM     28  N   UNL     1      48.035   4.289  19.297  0.00  0.00    +0.000 N 
ATOM     29  C   UNL     1      48.189   5.162  18.245  0.00  0.00    +0.000 A 
ATOM     30  O   UNL     1      47.672   4.941  17.154  0.00  0.00    +0.000 OA
ATOM     31  C   UNL     1      49.040   6.304  18.529  0.00  0.00    +0.000 A 
ATOM     32  H   UNL     1      47.444   3.488  19.132  0.00  0.00    +0.000 HD
ENDBRANCH  19  22
ENDBRANCH   1  20
TORSDOF 7
ENDMDL
MODEL 7
REMARK VINA RESULT:    -6.963      2.645      3.946
REMARK INTER + INTRA:         -10.584
REMARK INTER:                  -9.451
REMARK INTRA:                  -1.133
REMARK UNBOUND:                -0.976
REMARK  Name = 
REMARK  7 active torsions:
REMARK  status: ('A' for Active; 'I' for Inactive)
REMARK    1  A    between atoms: C_2  and  C_19
REMARK    2  A    between atoms: N_3  and  C_4
REMARK    3  A    between atoms: C_4  and  C_5
REMARK    4  A    between atoms: C_8  and  C_9
REMARK    5  A    between atoms: C_9  and  O_10
REMARK    6  A    between atoms: C_9  and  C_11
REMARK    7  A    between atoms: C_11  and  C_12
REMARK                            x       y       z     vdW  Elec       q    Type
REMARK                         _______ _______ _______ _____ _____    ______ ____
ROOT
ATOM      1  C   UNL     1      47.535   3.999  15.639  0.00  0.00    +0.000 C 
ENDROOT
BRANCH   1   2
ATOM      2  C   UNL     1      46.877   4.307  14.320  0.00  0.00    +0.000 A 
ATOM      3  C   UNL     1      46.357   3.273  13.532  0.00  0.00    +0.000 A 
ATOM      4  C   UNL     1      45.698   3.558  12.334  0.00  0.00    +0.000 A 
ATOM      5  C   UNL     1      45.557   4.881  11.888  0.00  0.00    +0.000 A 
ATOM      6  C   UNL     1      46.127   5.908  12.652  0.00  0.00    +0.000 A 
ATOM      7  C   UNL     1      46.780   5.624  13.855  0.00  0.00    +0.000 A 
BRANCH   5   8
ATOM      8  C   UNL     1      44.789   5.162  10.609  0.00  0.00    +0.000 C 
BRANCH   8   9
ATOM      9  O   UNL     1      44.240   6.481  10.621  0.00  0.00    +0.000 OA
ATOM     10  H   UNL     1      44.957   7.108  10.803  0.00  0.00    +0.000 HD
ENDBRANCH   8   9
BRANCH   8  11
ATOM     11  C   UNL     1      45.649   4.995   9.349  0.00  0.00    +0.000 C 
BRANCH  11  12
ATOM     12  C   UNL     1      45.024   4.063   8.286  0.00  0.00    +0.000 C 
ATOM     13  C   UNL     1      44.487   2.751   8.852  0.00  0.00    +0.000 C 
ATOM     14  C   UNL     1      45.699   1.848   8.820  0.00  0.00    +0.000 C 
ATOM     15  N   UNL     1      46.335   2.163   7.538  0.00  0.00    +0.000 NA
ATOM     16  C   UNL     1      46.086   3.593   7.284  0.00  0.00    +0.000 C 
ATOM     17  H   UNL     1      45.860   1.627   6.810  0.00  0.00    +0.000 HD
ENDBRANCH  11  12
ENDBRANCH   8  11
ENDBRANCH   5   8
ENDBRANCH   1   2
BRANCH   1  20
ATOM     18  O   UNL     1      49.719   5.554  16.465  0.00  0.00    +0.000 OA
ATOM     19  C   UNL     1      48.597   5.851  16.867  0.00  0.00    +0.000 C 
ATOM     20  N   UNL     1      47.483   5.126  16.534  0.00  0.00    +0.000 N 
ATOM     21  H   UNL     1      46.563   5.497  16.742  0.00  0.00    +0.000 HD
BRANCH  19  22
ATOM     22  C   UNL     1      48.393   6.980  17.781  0.00  0.00    +0.000 A 
ATOM     23  C   UNL     1      48.323   6.749  19.148  0.00  0.00    +0.000 A 
ATOM     24  S   UNL     1      48.084   8.162  20.071  0.00  0.00    +0.000 S 
ATOM     25  C   UNL     1      48.112   9.139  18.680  0.00  0.00    +0.000 A 
ATOM     26  N   UNL     1      48.003  10.492  18.775  0.00  0.00    +0.000 NA
ATOM     27  C   UNL     1      48.083  11.114  17.647  0.00  0.00    +0.000 A 
ATOM     28  N   UNL     1      48.242  10.506  16.428  0.00  0.00    +0.000 N 
ATOM     29  C   UNL     1      48.272   9.140  16.275  0.00  0.00    +0.000 A 
ATOM     30  O   UNL     1      48.268   8.623  15.162  0.00  0.00    +0.000 OA
ATOM     31  C   UNL     1      48.255   8.394  17.521  0.00  0.00    +0.000 A 
ATOM     32  H   UNL     1      48.260  11.053  15.580  0.00  0.00    +0.000 HD
ENDBRANCH  19  22
ENDBRANCH   1  20
TORSDOF 7
ENDMDL
MODEL 8
REMARK VINA RESULT:    -6.798      3.960      8.740
REMARK INTER + INTRA:         -10.357
REMARK INTER:                  -9.192
REMARK INTRA:                  -1.165
REMARK UNBOUND:                -0.976
REMARK  Name = 
REMARK  7 active torsions:
REMARK  status: ('A' for Active; 'I' for Inactive)
REMARK    1  A    between atoms: C_2  and  C_19
REMARK    2  A    between atoms: N_3  and  C_4
REMARK    3  A    between atoms: C_4  and  C_5
REMARK    4  A    between atoms: C_8  and  C_9
REMARK    5  A    between atoms: C_9  and  O_10
REMARK    6  A    between atoms: C_9  and  C_11
REMARK    7  A    between atoms: C_11  and  C_12
REMARK                            x       y       z     vdW  Elec       q    Type
REMARK                         _______ _______ _______ _____ _____    ______ ____
ROOT
ATOM      1  C   UNL     1      47.182   3.304  16.819  0.00  0.00    +0.000 C 
ENDROOT
BRANCH   1   2
ATOM      2  C   UNL     1      48.546   3.594  17.386  0.00  0.00    +0.000 A 
ATOM      3  C   UNL     1      49.595   2.686  17.203  0.00  0.00    +0.000 A 
ATOM      4  C   UNL     1      50.875   2.975  17.680  0.00  0.00    +0.000 A 
ATOM      5  C   UNL     1      51.134   4.172  18.366  0.00  0.00    +0.000 A 
ATOM      6  C   UNL     1      50.068   5.054  18.595  0.00  0.00    +0.000 A 
ATOM      7  C   UNL     1      48.788   4.768  18.110  0.00  0.00    +0.000 A 
BRANCH   5   8
ATOM      8  C   UNL     1      52.546   4.483  18.826  0.00  0.00    +0.000 C 
BRANCH   8   9
ATOM      9  O   UNL     1      52.972   3.559  19.829  0.00  0.00    +0.000 OA
ATOM     10  H   UNL     1      52.727   3.917  20.697  0.00  0.00    +0.000 HD
ENDBRANCH   8   9
BRANCH   8  11
ATOM     11  C   UNL     1      53.563   4.470  17.677  0.00  0.00    +0.000 C 
BRANCH  11  12
ATOM     12  C   UNL     1      54.132   5.865  17.332  0.00  0.00    +0.000 C 
ATOM     13  C   UNL     1      53.099   6.986  17.393  0.00  0.00    +0.000 C 
ATOM     14  C   UNL     1      52.501   6.972  16.005  0.00  0.00    +0.000 C 
ATOM     15  N   UNL     1      53.657   6.765  15.129  0.00  0.00    +0.000 NA
ATOM     16  C   UNL     1      54.602   5.914  15.873  0.00  0.00    +0.000 C 
ATOM     17  H   UNL     1      54.104   7.670  14.976  0.00  0.00    +0.000 HD
ENDBRANCH  11  12
ENDBRANCH   8  11
ENDBRANCH   5   8
ENDBRANCH   1   2
BRANCH   1  20
ATOM     18  O   UNL     1      47.274   3.055  14.026  0.00  0.00    +0.000 OA
ATOM     19  C   UNL     1      46.831   4.093  14.512  0.00  0.00    +0.000 C 
ATOM     20  N   UNL     1      46.780   4.305  15.865  0.00  0.00    +0.000 N 
ATOM     21  H   UNL     1      46.256   5.093  16.229  0.00  0.00    +0.000 HD
BRANCH  19  22
ATOM     22  C   UNL     1      46.379   5.197  13.659  0.00  0.00    +0.000 A 
ATOM     23  C   UNL     1      47.219   6.280  13.439  0.00  0.00    +0.000 A 
ATOM     24  S   UNL     1      46.547   7.476  12.427  0.00  0.00    +0.000 S 
ATOM     25  C   UNL     1      45.125   6.568  12.211  0.00  0.00    +0.000 A 
ATOM     26  N   UNL     1      44.129   7.015  11.399  0.00  0.00    +0.000 NA
ATOM     27  C   UNL     1      43.127   6.208  11.291  0.00  0.00    +0.000 A 
ATOM     28  N   UNL     1      43.020   5.004  11.937  0.00  0.00    +0.000 N 
ATOM     29  C   UNL     1      43.961   4.552  12.832  0.00  0.00    +0.000 A 
ATOM     30  O   UNL     1      43.769   3.542  13.503  0.00  0.00    +0.000 OA
ATOM     31  C   UNL     1      45.142   5.389  12.937  0.00  0.00    +0.000 A 
ATOM     32  H   UNL     1      42.190   4.439  11.836  0.00  0.00    +0.000 HD
ENDBRANCH  19  22
ENDBRANCH   1  20
TORSDOF 7
ENDMDL
MODEL 9
REMARK VINA RESULT:    -6.760      2.949      8.619
REMARK INTER + INTRA:         -10.305
REMARK INTER:                  -8.976
REMARK INTRA:                  -1.329
REMARK UNBOUND:                -0.976
REMARK  Name = 
REMARK  7 active torsions:
REMARK  status: ('A' for Active; 'I' for Inactive)
REMARK    1  A    between atoms: C_2  and  C_19
REMARK    2  A    between atoms: N_3  and  C_4
REMARK    3  A    between atoms: C_4  and  C_5
REMARK    4  A    between atoms: C_8  and  C_9
REMARK    5  A    between atoms: C_9  and  O_10
REMARK    6  A    between atoms: C_9  and  C_11
REMARK    7  A    between atoms: C_11  and  C_12
REMARK                            x       y       z     vdW  Elec       q    Type
REMARK                         _______ _______ _______ _____ _____    ______ ____
ROOT
ATOM      1  C   UNL     1      47.514   7.890  11.857  0.00  0.00    +0.000 C 
ENDROOT
BRANCH   1   2
ATOM      2  C   UNL     1      48.105   7.951  13.240  0.00  0.00    +0.000 A 
ATOM      3  C   UNL     1      47.724   8.963  14.128  0.00  0.00    +0.000 A 
ATOM      4  C   UNL     1      48.228   8.991  15.430  0.00  0.00    +0.000 A 
ATOM      5  C   UNL     1      49.138   8.017  15.870  0.00  0.00    +0.000 A 
ATOM      6  C   UNL     1      49.559   7.037  14.960  0.00  0.00    +0.000 A 
ATOM      7  C   UNL     1      49.048   7.005  13.660  0.00  0.00    +0.000 A 
BRANCH   5   8
ATOM      8  C   UNL     1      49.627   8.044  17.307  0.00  0.00    +0.000 C 
BRANCH   8   9
ATOM      9  O   UNL     1      50.350   9.245  17.579  0.00  0.00    +0.000 OA
ATOM     10  H   UNL     1      51.208   9.005  17.961  0.00  0.00    +0.000 HD
ENDBRANCH   8   9
BRANCH   8  11
ATOM     11  C   UNL     1      48.488   7.909  18.326  0.00  0.00    +0.000 C 
BRANCH  11  12
ATOM     12  C   UNL     1      48.456   6.543  19.048  0.00  0.00    +0.000 C 
ATOM     13  C   UNL     1      48.948   5.380  18.193  0.00  0.00    +0.000 C 
ATOM     14  C   UNL     1      47.697   4.939  17.467  0.00  0.00    +0.000 C 
ATOM     15  N   UNL     1      46.654   5.015  18.493  0.00  0.00    +0.000 NA
ATOM     16  C   UNL     1      47.013   6.137  19.377  0.00  0.00    +0.000 C 
ATOM     17  H   UNL     1      46.690   4.157  19.044  0.00  0.00    +0.000 HD
ENDBRANCH  11  12
ENDBRANCH   8  11
ENDBRANCH   5   8
ENDBRANCH   1   2
BRANCH   1  20
ATOM     18  O   UNL     1      44.748   7.454  12.023  0.00  0.00    +0.000 OA
ATOM     19  C   UNL     1      45.475   6.518  11.697  0.00  0.00    +0.000 C 
ATOM     20  N   UNL     1      46.838   6.641  11.621  0.00  0.00    +0.000 N 
ATOM     21  H   UNL     1      47.384   5.905  11.188  0.00  0.00    +0.000 HD
BRANCH  19  22
ATOM     22  C   UNL     1      44.922   5.188  11.422  0.00  0.00    +0.000 A 
ATOM     23  C   UNL     1      44.189   4.536  12.404  0.00  0.00    +0.000 A 
ATOM     24  S   UNL     1      43.617   3.002  11.927  0.00  0.00    +0.000 S 
ATOM     25  C   UNL     1      44.290   3.174  10.376  0.00  0.00    +0.000 A 
ATOM     26  N   UNL     1      44.123   2.210   9.431  0.00  0.00    +0.000 NA
ATOM     27  C   UNL     1      44.648   2.488   8.285  0.00  0.00    +0.000 A 
ATOM     28  N   UNL     1      45.343   3.635   8.002  0.00  0.00    +0.000 N 
ATOM     29  C   UNL     1      45.610   4.598   8.947  0.00  0.00    +0.000 A 
ATOM     30  O   UNL     1      46.357   5.540   8.703  0.00  0.00    +0.000 OA
ATOM     31  C   UNL     1      44.982   4.366  10.236  0.00  0.00    +0.000 A 
ATOM     32  H   UNL     1      45.760   3.772   7.093  0.00  0.00    +0.000 HD
ENDBRANCH  19  22
ENDBRANCH   1  20
TORSDOF 7
ENDMDL
