MODEL 1
REMARK VINA RESULT:    -8.379      0.000      0.000
REMARK INTER + INTRA:         -11.897
REMARK INTER:                 -11.074
REMARK INTRA:                  -0.823
REMARK UNBOUND:                -0.823
REMARK  Name = 
REMARK  6 active torsions:
REMARK  status: ('A' for Active; 'I' for Inactive)
REMARK    1  A    between atoms: C_2  and  C_19
REMARK    2  A    between atoms: N_3  and  C_4
REMARK    3  A    between atoms: C_4  and  C_5
REMARK    4  A    between atoms: C_8  and  C_9
REMARK    5  A    between atoms: C_9  and  O_10
REMARK    6  A    between atoms: C_9  and  C_11
REMARK                            x       y       z     vdW  Elec       q    Type
REMARK                         _______ _______ _______ _____ _____    ______ ____
ROOT
ATOM      1  C   UNL     1      47.089   7.425  13.142  0.00  0.00    +0.000 C 
ENDROOT
BRANCH   1   2
ATOM      2  C   UNL     1      46.395   6.441  12.247  0.00  0.00    +0.000 A 
ATOM      3  C   UNL     1      45.793   5.286  12.752  0.00  0.00    +0.000 A 
ATOM      4  C   UNL     1      45.159   4.398  11.887  0.00  0.00    +0.000 A 
ATOM      5  C   UNL     1      45.115   4.703  10.529  0.00  0.00    +0.000 A 
ATOM      6  N   UNL     1      45.666   5.838  10.016  0.00  0.00    +0.000 NA
ATOM      7  C   UNL     1      46.293   6.670  10.880  0.00  0.00    +0.000 A 
BRANCH   5   8
ATOM      8  C   UNL     1      44.442   3.760   9.538  0.00  0.00    +0.000 C 
BRANCH   8   9
ATOM      9  C   UNL     1      45.417   2.996   8.679  0.00  0.00    +0.000 A 
ATOM     10  C   UNL     1      46.159   3.622   7.672  0.00  0.00    +0.000 A 
ATOM     11  C   UNL     1      47.000   2.866   6.859  0.00  0.00    +0.000 A 
ATOM     12  C   UNL     1      47.081   1.502   7.085  0.00  0.00    +0.000 A 
ATOM     13  N   UNL     1      46.405   0.864   8.062  0.00  0.00    +0.000 NA
ATOM     14  C   UNL     1      45.600   1.624   8.842  0.00  0.00    +0.000 A 
ENDBRANCH   8   9
BRANCH   8  15
ATOM     15  O   UNL     1      43.555   4.488   8.681  0.00  0.00    +0.000 OA
ATOM     16  H   UNL     1      44.033   5.318   8.477  0.00  0.00    +0.000 HD
ENDBRANCH   8  15
ENDBRANCH   5   8
ENDBRANCH   1   2
BRANCH   1  19
ATOM     17  O   UNL     1      49.655   6.934  14.157  0.00  0.00    +0.000 OA
ATOM     18  C   UNL     1      48.685   6.669  14.862  0.00  0.00    +0.000 C 
ATOM     19  N   UNL     1      47.398   6.836  14.422  0.00  0.00    +0.000 N 
ATOM     20  H   UNL     1      46.633   6.774  15.086  0.00  0.00    +0.000 HD
BRANCH  18  21
ATOM     21  C   UNL     1      48.847   6.118  16.212  0.00  0.00    +0.000 A 
ATOM     22  C   UNL     1      49.507   6.859  17.183  0.00  0.00    +0.000 A 
ATOM     23  S   UNL     1      49.623   6.071  18.690  0.00  0.00    +0.000 S 
ATOM     24  C   UNL     1      48.754   4.726  18.114  0.00  0.00    +0.000 A 
ATOM     25  N   UNL     1      48.467   3.677  18.932  0.00  0.00    +0.000 NA
ATOM     26  C   UNL     1      47.767   2.745  18.378  0.00  0.00    +0.000 A 
ATOM     27  N   UNL     1      47.340   2.758  17.075  0.00  0.00    +0.000 N 
ATOM     28  C   UNL     1      47.669   3.760  16.193  0.00  0.00    +0.000 A 
ATOM     29  O   UNL     1      47.378   3.678  15.004  0.00  0.00    +0.000 OA
ATOM     30  C   UNL     1      48.410   4.861  16.780  0.00  0.00    +0.000 A 
ATOM     31  H   UNL     1      46.818   1.981  16.696  0.00  0.00    +0.000 HD
ENDBRANCH  18  21
ENDBRANCH   1  19
TORSDOF 6
ENDMDL
MODEL 2
REMARK VINA RESULT:    -8.165      1.488      2.122
REMARK INTER + INTRA:         -11.614
REMARK INTER:                 -10.859
REMARK INTRA:                  -0.755
REMARK UNBOUND:                -0.823
REMARK  Name = 
REMARK  6 active torsions:
REMARK  status: ('A' for Active; 'I' for Inactive)
REMARK    1  A    between atoms: C_2  and  C_19
REMARK    2  A    between atoms: N_3  and  C_4
REMARK    3  A    between atoms: C_4  and  C_5
REMARK    4  A    between atoms: C_8  and  C_9
REMARK    5  A    between atoms: C_9  and  O_10
REMARK    6  A    between atoms: C_9  and  C_11
REMARK                            x       y       z     vdW  Elec       q    Type
REMARK                         _______ _______ _______ _____ _____    ______ ____
ROOT
ATOM      1  C   UNL     1      46.966   6.605  13.533  0.00  0.00    +0.000 C 
ENDROOT
BRANCH   1   2
ATOM      2  C   UNL     1      46.310   5.774  12.470  0.00  0.00    +0.000 A 
ATOM      3  C   UNL     1      45.804   4.500  12.740  0.00  0.00    +0.000 A 
ATOM      4  C   UNL     1      45.202   3.762  11.725  0.00  0.00    +0.000 A 
ATOM      5  C   UNL     1      45.092   4.331  10.459  0.00  0.00    +0.000 A 
ATOM      6  N   UNL     1      45.548   5.583  10.177  0.00  0.00    +0.000 NA
ATOM      7  C   UNL     1      46.147   6.267  11.180  0.00  0.00    +0.000 A 
BRANCH   5   8
ATOM      8  C   UNL     1      44.451   3.561   9.310  0.00  0.00    +0.000 C 
BRANCH   8   9
ATOM      9  C   UNL     1      45.445   2.815   8.457  0.00  0.00    +0.000 A 
ATOM     10  C   UNL     1      46.128   3.438   7.407  0.00  0.00    +0.000 A 
ATOM     11  C   UNL     1      46.990   2.695   6.604  0.00  0.00    +0.000 A 
ATOM     12  C   UNL     1      47.150   1.348   6.882  0.00  0.00    +0.000 A 
ATOM     13  N   UNL     1      46.534   0.716   7.901  0.00  0.00    +0.000 NA
ATOM     14  C   UNL     1      45.706   1.462   8.670  0.00  0.00    +0.000 A 
ENDBRANCH   8   9
BRANCH   8  15
ATOM     15  O   UNL     1      43.707   4.450   8.469  0.00  0.00    +0.000 OA
ATOM     16  H   UNL     1      44.206   5.292   8.495  0.00  0.00    +0.000 HD
ENDBRANCH   8  15
ENDBRANCH   5   8
ENDBRANCH   1   2
BRANCH   1  19
ATOM     17  O   UNL     1      49.321   6.504  15.050  0.00  0.00    +0.000 OA
ATOM     18  C   UNL     1      48.341   5.881  15.447  0.00  0.00    +0.000 C 
ATOM     19  N   UNL     1      47.167   5.841  14.740  0.00  0.00    +0.000 N 
ATOM     20  H   UNL     1      46.334   5.466  15.180  0.00  0.00    +0.000 HD
BRANCH  18  21
ATOM     21  C   UNL     1      48.379   5.105  16.692  0.00  0.00    +0.000 A 
ATOM     22  C   UNL     1      48.254   3.724  16.645  0.00  0.00    +0.000 A 
ATOM     23  S   UNL     1      48.304   2.975  18.176  0.00  0.00    +0.000 S 
ATOM     24  C   UNL     1      48.539   4.468  18.957  0.00  0.00    +0.000 A 
ATOM     25  N   UNL     1      48.697   4.532  20.307  0.00  0.00    +0.000 NA
ATOM     26  C   UNL     1      48.910   5.721  20.763  0.00  0.00    +0.000 A 
ATOM     27  N   UNL     1      48.963   6.856  19.994  0.00  0.00    +0.000 N 
ATOM     28  C   UNL     1      48.735   6.848  18.637  0.00  0.00    +0.000 A 
ATOM     29  O   UNL     1      48.665   7.893  18.001  0.00  0.00    +0.000 OA
ATOM     30  C   UNL     1      48.545   5.527  18.066  0.00  0.00    +0.000 A 
ATOM     31  H   UNL     1      49.105   7.760  20.419  0.00  0.00    +0.000 HD
ENDBRANCH  18  21
ENDBRANCH   1  19
TORSDOF 6
ENDMDL
MODEL 3
REMARK VINA RESULT:    -7.912      2.479      4.305
REMARK INTER + INTRA:         -11.279
REMARK INTER:                 -10.234
REMARK INTRA:                  -1.045
REMARK UNBOUND:                -0.823
REMARK  Name = 
REMARK  6 active torsions:
REMARK  status: ('A' for Active; 'I' for Inactive)
REMARK    1  A    between atoms: C_2  and  C_19
REMARK    2  A    between atoms: N_3  and  C_4
REMARK    3  A    between atoms: C_4  and  C_5
REMARK    4  A    between atoms: C_8  and  C_9
REMARK    5  A    between atoms: C_9  and  O_10
REMARK    6  A    between atoms: C_9  and  C_11
REMARK                            x       y       z     vdW  Elec       q    Type
REMARK                         _______ _______ _______ _____ _____    ______ ____
ROOT
ATOM      1  C   UNL     1      46.719   5.027  14.401  0.00  0.00    +0.000 C 
ENDROOT
BRANCH   1   2
ATOM      2  C   UNL     1      46.134   4.663  13.068  0.00  0.00    +0.000 A 
ATOM      3  C   UNL     1      46.008   5.601  12.041  0.00  0.00    +0.000 A 
ATOM      4  C   UNL     1      45.459   5.222  10.818  0.00  0.00    +0.000 A 
ATOM      5  C   UNL     1      45.072   3.896  10.640  0.00  0.00    +0.000 A 
ATOM      6  N   UNL     1      45.214   2.956  11.615  0.00  0.00    +0.000 NA
ATOM      7  C   UNL     1      45.731   3.360  12.799  0.00  0.00    +0.000 A 
BRANCH   5   8
ATOM      8  C   UNL     1      44.457   3.432   9.325  0.00  0.00    +0.000 C 
BRANCH   8   9
ATOM      9  C   UNL     1      45.465   2.868   8.356  0.00  0.00    +0.000 A 
ATOM     10  C   UNL     1      45.990   3.635   7.311  0.00  0.00    +0.000 A 
ATOM     11  C   UNL     1      46.870   3.054   6.400  0.00  0.00    +0.000 A 
ATOM     12  C   UNL     1      47.205   1.721   6.568  0.00  0.00    +0.000 A 
ATOM     13  N   UNL     1      46.744   0.955   7.577  0.00  0.00    +0.000 NA
ATOM     14  C   UNL     1      45.896   1.546   8.452  0.00  0.00    +0.000 A 
ENDBRANCH   8   9
BRANCH   8  15
ATOM     15  O   UNL     1      43.769   4.514   8.687  0.00  0.00    +0.000 OA
ATOM     16  H   UNL     1      43.454   5.076   9.425  0.00  0.00    +0.000 HD
ENDBRANCH   8  15
ENDBRANCH   5   8
ENDBRANCH   1   2
BRANCH   1  19
ATOM     17  O   UNL     1      49.149   5.883  15.506  0.00  0.00    +0.000 OA
ATOM     18  C   UNL     1      48.447   6.705  14.923  0.00  0.00    +0.000 C 
ATOM     19  N   UNL     1      47.225   6.377  14.396  0.00  0.00    +0.000 N 
ATOM     20  H   UNL     1      46.758   7.031  13.777  0.00  0.00    +0.000 HD
BRANCH  18  21
ATOM     21  C   UNL     1      48.861   8.107  14.788  0.00  0.00    +0.000 A 
ATOM     22  C   UNL     1      49.067   8.875  15.924  0.00  0.00    +0.000 A 
ATOM     23  S   UNL     1      49.528  10.483  15.595  0.00  0.00    +0.000 S 
ATOM     24  C   UNL     1      49.513  10.200  13.917  0.00  0.00    +0.000 A 
ATOM     25  N   UNL     1      49.855  11.182  13.040  0.00  0.00    +0.000 NA
ATOM     26  C   UNL     1      49.841  10.818  11.801  0.00  0.00    +0.000 A 
ATOM     27  N   UNL     1      49.502   9.566  11.357  0.00  0.00    +0.000 N 
ATOM     28  C   UNL     1      49.078   8.566  12.201  0.00  0.00    +0.000 A 
ATOM     29  O   UNL     1      48.662   7.500  11.761  0.00  0.00    +0.000 OA
ATOM     30  C   UNL     1      49.128   8.906  13.611  0.00  0.00    +0.000 A 
ATOM     31  H   UNL     1      49.484   9.357  10.370  0.00  0.00    +0.000 HD
ENDBRANCH  18  21
ENDBRANCH   1  19
TORSDOF 6
ENDMDL
MODEL 4
REMARK VINA RESULT:    -7.730      1.233      1.688
REMARK INTER + INTRA:         -11.039
REMARK INTER:                 -10.163
REMARK INTRA:                  -0.876
REMARK UNBOUND:                -0.823
REMARK  Name = 
REMARK  6 active torsions:
REMARK  status: ('A' for Active; 'I' for Inactive)
REMARK    1  A    between atoms: C_2  and  C_19
REMARK    2  A    between atoms: N_3  and  C_4
REMARK    3  A    between atoms: C_4  and  C_5
REMARK    4  A    between atoms: C_8  and  C_9
REMARK    5  A    between atoms: C_9  and  O_10
REMARK    6  A    between atoms: C_9  and  C_11
REMARK                            x       y       z     vdW  Elec       q    Type
REMARK                         _______ _______ _______ _____ _____    ______ ____
ROOT
ATOM      1  C   UNL     1      47.608   8.215  13.750  0.00  0.00    +0.000 C 
ENDROOT
BRANCH   1   2
ATOM      2  C   UNL     1      46.700   7.328  12.950  0.00  0.00    +0.000 A 
ATOM      3  C   UNL     1      45.651   7.847  12.187  0.00  0.00    +0.000 A 
ATOM      4  C   UNL     1      44.831   6.989  11.459  0.00  0.00    +0.000 A 
ATOM      5  C   UNL     1      45.099   5.623  11.486  0.00  0.00    +0.000 A 
ATOM      6  N   UNL     1      46.134   5.095  12.197  0.00  0.00    +0.000 NA
ATOM      7  C   UNL     1      46.900   5.953  12.911  0.00  0.00    +0.000 A 
BRANCH   5   8
ATOM      8  C   UNL     1      44.226   4.640  10.715  0.00  0.00    +0.000 C 
BRANCH   8   9
ATOM      9  C   UNL     1      44.955   3.936   9.600  0.00  0.00    +0.000 A 
ATOM     10  C   UNL     1      45.016   2.540   9.525  0.00  0.00    +0.000 A 
ATOM     11  C   UNL     1      45.756   1.931   8.514  0.00  0.00    +0.000 A 
ATOM     12  C   UNL     1      46.408   2.741   7.599  0.00  0.00    +0.000 A 
ATOM     13  N   UNL     1      46.353   4.087   7.618  0.00  0.00    +0.000 NA
ATOM     14  C   UNL     1      45.622   4.653   8.607  0.00  0.00    +0.000 A 
ENDBRANCH   8   9
BRANCH   8  15
ATOM     15  O   UNL     1      43.088   5.312  10.162  0.00  0.00    +0.000 OA
ATOM     16  H   UNL     1      42.836   5.972  10.840  0.00  0.00    +0.000 HD
ENDBRANCH   8  15
ENDBRANCH   5   8
ENDBRANCH   1   2
BRANCH   1  19
ATOM     17  O   UNL     1      50.007   6.985  14.518  0.00  0.00    +0.000 OA
ATOM     18  C   UNL     1      49.111   7.093  15.350  0.00  0.00    +0.000 C 
ATOM     19  N   UNL     1      47.892   7.639  15.042  0.00  0.00    +0.000 N 
ATOM     20  H   UNL     1      47.246   7.868  15.790  0.00  0.00    +0.000 HD
BRANCH  18  21
ATOM     21  C   UNL     1      49.278   6.605  16.724  0.00  0.00    +0.000 A 
ATOM     22  C   UNL     1      49.885   7.416  17.673  0.00  0.00    +0.000 A 
ATOM     23  S   UNL     1      50.017   6.695  19.212  0.00  0.00    +0.000 S 
ATOM     24  C   UNL     1      49.225   5.286  18.679  0.00  0.00    +0.000 A 
ATOM     25  N   UNL     1      48.978   4.258  19.535  0.00  0.00    +0.000 NA
ATOM     26  C   UNL     1      48.333   3.270  19.009  0.00  0.00    +0.000 A 
ATOM     27  N   UNL     1      47.927   3.209  17.701  0.00  0.00    +0.000 N 
ATOM     28  C   UNL     1      48.220   4.191  16.783  0.00  0.00    +0.000 A 
ATOM     29  O   UNL     1      47.953   4.048  15.595  0.00  0.00    +0.000 OA
ATOM     30  C   UNL     1      48.896   5.350  17.336  0.00  0.00    +0.000 A 
ATOM     31  H   UNL     1      47.451   2.393  17.346  0.00  0.00    +0.000 HD
ENDBRANCH  18  21
ENDBRANCH   1  19
TORSDOF 6
ENDMDL
MODEL 5
REMARK VINA RESULT:    -7.573      2.825      3.825
REMARK INTER + INTRA:         -10.832
REMARK INTER:                  -9.851
REMARK INTRA:                  -0.980
REMARK UNBOUND:                -0.823
REMARK  Name = 
REMARK  6 active torsions:
REMARK  status: ('A' for Active; 'I' for Inactive)
REMARK    1  A    between atoms: C_2  and  C_19
REMARK    2  A    between atoms: N_3  and  C_4
REMARK    3  A    between atoms: C_4  and  C_5
REMARK    4  A    between atoms: C_8  and  C_9
REMARK    5  A    between atoms: C_9  and  O_10
REMARK    6  A    between atoms: C_9  and  C_11
REMARK                            x       y       z     vdW  Elec       q    Type
REMARK                         _______ _______ _______ _____ _____    ______ ____
ROOT
ATOM      1  C   UNL     1      46.721   5.615  14.071  0.00  0.00    +0.000 C 
ENDROOT
BRANCH   1   2
ATOM      2  C   UNL     1      46.144   5.088  12.790  0.00  0.00    +0.000 A 
ATOM      3  C   UNL     1      46.058   5.880  11.643  0.00  0.00    +0.000 A 
ATOM      4  C   UNL     1      45.516   5.353  10.474  0.00  0.00    +0.000 A 
ATOM      5  C   UNL     1      45.095   4.025  10.471  0.00  0.00    +0.000 A 
ATOM      6  N   UNL     1      45.197   3.223  11.567  0.00  0.00    +0.000 NA
ATOM      7  C   UNL     1      45.710   3.771  12.693  0.00  0.00    +0.000 A 
BRANCH   5   8
ATOM      8  C   UNL     1      44.484   3.402   9.221  0.00  0.00    +0.000 C 
BRANCH   8   9
ATOM      9  C   UNL     1      45.507   2.812   8.283  0.00  0.00    +0.000 A 
ATOM     10  C   UNL     1      46.033   3.544   7.213  0.00  0.00    +0.000 A 
ATOM     11  C   UNL     1      46.927   2.938   6.333  0.00  0.00    +0.000 A 
ATOM     12  C   UNL     1      47.275   1.616   6.556  0.00  0.00    +0.000 A 
ATOM     13  N   UNL     1      46.813   0.885   7.590  0.00  0.00    +0.000 NA
ATOM     14  C   UNL     1      45.951   1.500   8.434  0.00  0.00    +0.000 A 
ENDBRANCH   8   9
BRANCH   8  15
ATOM     15  O   UNL     1      43.717   4.375   8.503  0.00  0.00    +0.000 OA
ATOM     16  H   UNL     1      44.179   5.224   8.665  0.00  0.00    +0.000 HD
ENDBRANCH   8  15
ENDBRANCH   5   8
ENDBRANCH   1   2
BRANCH   1  19
ATOM     17  O   UNL     1      47.161   8.380  13.948  0.00  0.00    +0.000 OA
ATOM     18  C   UNL     1      48.125   7.628  13.840  0.00  0.00    +0.000 C 
ATOM     19  N   UNL     1      47.989   6.264  13.843  0.00  0.00    +0.000 N 
ATOM     20  H   UNL     1      48.815   5.682  13.926  0.00  0.00    +0.000 HD
BRANCH  18  21
ATOM     21  C   UNL     1      49.486   8.148  13.660  0.00  0.00    +0.000 A 
ATOM     22  C   UNL     1      49.747   9.052  12.641  0.00  0.00    +0.000 A 
ATOM     23  S   UNL     1      51.377   9.545  12.559  0.00  0.00    +0.000 S 
ATOM     24  C   UNL     1      51.786   8.600  13.915  0.00  0.00    +0.000 A 
ATOM     25  N   UNL     1      53.055   8.596  14.406  0.00  0.00    +0.000 NA
ATOM     26  C   UNL     1      53.216   7.870  15.461  0.00  0.00    +0.000 A 
ATOM     27  N   UNL     1      52.227   7.134  16.062  0.00  0.00    +0.000 N 
ATOM     28  C   UNL     1      50.950   7.050  15.557  0.00  0.00    +0.000 A 
ATOM     29  O   UNL     1      50.126   6.284  16.046  0.00  0.00    +0.000 OA
ATOM     30  C   UNL     1      50.702   7.891  14.402  0.00  0.00    +0.000 A 
ATOM     31  H   UNL     1      52.428   6.564  16.870  0.00  0.00    +0.000 HD
ENDBRANCH  18  21
ENDBRANCH   1  19
TORSDOF 6
ENDMDL
MODEL 6
REMARK VINA RESULT:    -7.539      2.237      3.039
REMARK INTER + INTRA:         -10.786
REMARK INTER:                  -9.822
REMARK INTRA:                  -0.964
REMARK UNBOUND:                -0.823
REMARK  Name = 
REMARK  6 active torsions:
REMARK  status: ('A' for Active; 'I' for Inactive)
REMARK    1  A    between atoms: C_2  and  C_19
REMARK    2  A    between atoms: N_3  and  C_4
REMARK    3  A    between atoms: C_4  and  C_5
REMARK    4  A    between atoms: C_8  and  C_9
REMARK    5  A    between atoms: C_9  and  O_10
REMARK    6  A    between atoms: C_9  and  C_11
REMARK                            x       y       z     vdW  Elec       q    Type
REMARK                         _______ _______ _______ _____ _____    ______ ____
ROOT
ATOM      1  C   UNL     1      48.026   7.706  13.958  0.00  0.00    +0.000 C 
ENDROOT
BRANCH   1   2
ATOM      2  C   UNL     1      47.036   6.974  13.100  0.00  0.00    +0.000 A 
ATOM      3  C   UNL     1      46.210   7.646  12.195  0.00  0.00    +0.000 A 
ATOM      4  C   UNL     1      45.305   6.929  11.417  0.00  0.00    +0.000 A 
ATOM      5  C   UNL     1      45.266   5.542  11.542  0.00  0.00    +0.000 A 
ATOM      6  N   UNL     1      46.082   4.862  12.393  0.00  0.00    +0.000 NA
ATOM      7  C   UNL     1      46.937   5.589  13.151  0.00  0.00    +0.000 A 
BRANCH   5   8
ATOM      8  C   UNL     1      44.286   4.711  10.721  0.00  0.00    +0.000 C 
BRANCH   8   9
ATOM      9  C   UNL     1      44.941   3.947   9.598  0.00  0.00    +0.000 A 
ATOM     10  C   UNL     1      44.972   2.549   9.580  0.00  0.00    +0.000 A 
ATOM     11  C   UNL     1      45.644   1.884   8.557  0.00  0.00    +0.000 A 
ATOM     12  C   UNL     1      46.260   2.641   7.574  0.00  0.00    +0.000 A 
ATOM     13  N   UNL     1      46.229   3.988   7.539  0.00  0.00    +0.000 NA
ATOM     14  C   UNL     1      45.564   4.610   8.542  0.00  0.00    +0.000 A 
ENDBRANCH   8   9
BRANCH   8  15
ATOM     15  O   UNL     1      43.265   5.549  10.167  0.00  0.00    +0.000 OA
ATOM     16  H   UNL     1      43.458   6.441  10.520  0.00  0.00    +0.000 HD
ENDBRANCH   8  15
ENDBRANCH   5   8
ENDBRANCH   1   2
BRANCH   1  19
ATOM     17  O   UNL     1      50.136   6.555  15.401  0.00  0.00    +0.000 OA
ATOM     18  C   UNL     1      49.064   6.733  15.972  0.00  0.00    +0.000 C 
ATOM     19  N   UNL     1      47.970   7.247  15.324  0.00  0.00    +0.000 N 
ATOM     20  H   UNL     1      47.163   7.540  15.866  0.00  0.00    +0.000 HD
BRANCH  18  21
ATOM     21  C   UNL     1      48.876   6.368  17.381  0.00  0.00    +0.000 A 
ATOM     22  C   UNL     1      49.237   5.102  17.817  0.00  0.00    +0.000 A 
ATOM     23  S   UNL     1      48.941   4.833  19.474  0.00  0.00    +0.000 S 
ATOM     24  C   UNL     1      48.359   6.419  19.682  0.00  0.00    +0.000 A 
ATOM     25  N   UNL     1      47.960   6.862  20.905  0.00  0.00    +0.000 NA
ATOM     26  C   UNL     1      47.582   8.096  20.927  0.00  0.00    +0.000 A 
ATOM     27  N   UNL     1      47.550   8.924  19.835  0.00  0.00    +0.000 N 
ATOM     28  C   UNL     1      47.873   8.498  18.567  0.00  0.00    +0.000 A 
ATOM     29  O   UNL     1      47.713   9.227  17.594  0.00  0.00    +0.000 OA
ATOM     30  C   UNL     1      48.358   7.132  18.495  0.00  0.00    +0.000 A 
ATOM     31  H   UNL     1      47.216   9.872  19.917  0.00  0.00    +0.000 HD
ENDBRANCH  18  21
ENDBRANCH   1  19
TORSDOF 6
ENDMDL
MODEL 7
REMARK VINA RESULT:    -7.173      3.789      8.836
REMARK INTER + INTRA:         -10.302
REMARK INTER:                  -9.400
REMARK INTRA:                  -0.902
REMARK UNBOUND:                -0.823
REMARK  Name = 
REMARK  6 active torsions:
REMARK  status: ('A' for Active; 'I' for Inactive)
REMARK    1  A    between atoms: C_2  and  C_19
REMARK    2  A    between atoms: N_3  and  C_4
REMARK    3  A    between atoms: C_4  and  C_5
REMARK    4  A    between atoms: C_8  and  C_9
REMARK    5  A    between atoms: C_9  and  O_10
REMARK    6  A    between atoms: C_9  and  C_11
REMARK                            x       y       z     vdW  Elec       q    Type
REMARK                         _______ _______ _______ _____ _____    ______ ____
ROOT
ATOM      1  C   UNL     1      47.145   3.326  16.956  0.00  0.00    +0.000 C 
ENDROOT
BRANCH   1   2
ATOM      2  C   UNL     1      48.576   3.406  17.400  0.00  0.00    +0.000 A 
ATOM      3  C   UNL     1      49.531   2.481  16.971  0.00  0.00    +0.000 A 
ATOM      4  C   UNL     1      50.849   2.591  17.407  0.00  0.00    +0.000 A 
ATOM      5  C   UNL     1      51.191   3.649  18.246  0.00  0.00    +0.000 A 
ATOM      6  N   UNL     1      50.286   4.582  18.652  0.00  0.00    +0.000 NA
ATOM      7  C   UNL     1      49.008   4.435  18.227  0.00  0.00    +0.000 A 
BRANCH   5   8
ATOM      8  C   UNL     1      52.617   3.809  18.760  0.00  0.00    +0.000 C 
BRANCH   8   9
ATOM      9  C   UNL     1      53.573   4.341  17.723  0.00  0.00    +0.000 A 
ATOM     10  C   UNL     1      54.792   3.711  17.453  0.00  0.00    +0.000 A 
ATOM     11  C   UNL     1      55.674   4.273  16.533  0.00  0.00    +0.000 A 
ATOM     12  C   UNL     1      55.305   5.450  15.903  0.00  0.00    +0.000 A 
ATOM     13  N   UNL     1      54.129   6.074  16.113  0.00  0.00    +0.000 NA
ATOM     14  C   UNL     1      53.287   5.503  17.007  0.00  0.00    +0.000 A 
ENDBRANCH   8   9
BRANCH   8  15
ATOM     15  O   UNL     1      53.117   2.556  19.239  0.00  0.00    +0.000 OA
ATOM     16  H   UNL     1      54.017   2.486  18.859  0.00  0.00    +0.000 HD
ENDBRANCH   8  15
ENDBRANCH   5   8
ENDBRANCH   1   2
BRANCH   1  19
ATOM     17  O   UNL     1      47.375   3.068  14.174  0.00  0.00    +0.000 OA
ATOM     18  C   UNL     1      46.944   4.123  14.631  0.00  0.00    +0.000 C 
ATOM     19  N   UNL     1      46.845   4.346  15.980  0.00  0.00    +0.000 N 
ATOM     20  H   UNL     1      46.328   5.151  16.315  0.00  0.00    +0.000 HD
BRANCH  18  21
ATOM     21  C   UNL     1      46.544   5.230  13.756  0.00  0.00    +0.000 A 
ATOM     22  C   UNL     1      47.414   6.290  13.546  0.00  0.00    +0.000 A 
ATOM     23  S   UNL     1      46.792   7.500  12.518  0.00  0.00    +0.000 S 
ATOM     24  C   UNL     1      45.350   6.628  12.277  0.00  0.00    +0.000 A 
ATOM     25  N   UNL     1      44.377   7.102  11.453  0.00  0.00    +0.000 NA
ATOM     26  C   UNL     1      43.356   6.320  11.329  0.00  0.00    +0.000 A 
ATOM     27  N   UNL     1      43.213   5.115  11.967  0.00  0.00    +0.000 N 
ATOM     28  C   UNL     1      44.136   4.632  12.865  0.00  0.00    +0.000 A 
ATOM     29  O   UNL     1      43.918   3.613  13.511  0.00  0.00    +0.000 OA
ATOM     30  C   UNL     1      45.329   5.447  13.000  0.00  0.00    +0.000 A 
ATOM     31  H   UNL     1      42.375   4.566  11.848  0.00  0.00    +0.000 HD
ENDBRANCH  18  21
ENDBRANCH   1  19
TORSDOF 6
ENDMDL
MODEL 8
REMARK VINA RESULT:    -7.124      3.684      8.036
REMARK INTER + INTRA:         -10.238
REMARK INTER:                  -9.241
REMARK INTRA:                  -0.997
REMARK UNBOUND:                -0.823
REMARK  Name = 
REMARK  6 active torsions:
REMARK  status: ('A' for Active; 'I' for Inactive)
REMARK    1  A    between atoms: C_2  and  C_19
REMARK    2  A    between atoms: N_3  and  C_4
REMARK    3  A    between atoms: C_4  and  C_5
REMARK    4  A    between atoms: C_8  and  C_9
REMARK    5  A    between atoms: C_9  and  O_10
REMARK    6  A    between atoms: C_9  and  C_11
REMARK                            x       y       z     vdW  Elec       q    Type
REMARK                         _______ _______ _______ _____ _____    ______ ____
ROOT
ATOM      1  C   UNL     1      48.396   7.478  14.159  0.00  0.00    +0.000 C 
ENDROOT
BRANCH   1   2
ATOM      2  C   UNL     1      48.898   6.664  15.315  0.00  0.00    +0.000 A 
ATOM      3  C   UNL     1      48.107   5.684  15.921  0.00  0.00    +0.000 A 
ATOM      4  C   UNL     1      48.611   4.951  16.992  0.00  0.00    +0.000 A 
ATOM      5  C   UNL     1      49.914   5.196  17.418  0.00  0.00    +0.000 A 
ATOM      6  N   UNL     1      50.715   6.124  16.824  0.00  0.00    +0.000 NA
ATOM      7  C   UNL     1      50.189   6.834  15.799  0.00  0.00    +0.000 A 
BRANCH   5   8
ATOM      8  C   UNL     1      50.510   4.429  18.593  0.00  0.00    +0.000 C 
BRANCH   8   9
ATOM      9  C   UNL     1      51.299   3.213  18.178  0.00  0.00    +0.000 A 
ATOM     10  C   UNL     1      52.663   3.089  18.463  0.00  0.00    +0.000 A 
ATOM     11  C   UNL     1      53.368   1.979  18.004  0.00  0.00    +0.000 A 
ATOM     12  C   UNL     1      52.683   1.019  17.278  0.00  0.00    +0.000 A 
ATOM     13  N   UNL     1      51.364   1.086  17.006  0.00  0.00    +0.000 NA
ATOM     14  C   UNL     1      50.701   2.172  17.469  0.00  0.00    +0.000 A 
ENDBRANCH   8   9
BRANCH   8  15
ATOM     15  O   UNL     1      49.476   4.014  19.493  0.00  0.00    +0.000 OA
ATOM     16  H   UNL     1      49.751   3.124  19.793  0.00  0.00    +0.000 HD
ENDBRANCH   8  15
ENDBRANCH   5   8
ENDBRANCH   1   2
BRANCH   1  19
ATOM     17  O   UNL     1      47.598   7.263  11.480  0.00  0.00    +0.000 OA
ATOM     18  C   UNL     1      46.829   6.872  12.354  0.00  0.00    +0.000 C 
ATOM     19  N   UNL     1      47.125   6.985  13.688  0.00  0.00    +0.000 N 
ATOM     20  H   UNL     1      46.550   6.499  14.368  0.00  0.00    +0.000 HD
BRANCH  18  21
ATOM     21  C   UNL     1      45.523   6.293  12.022  0.00  0.00    +0.000 A 
ATOM     22  C   UNL     1      44.540   7.092  11.456  0.00  0.00    +0.000 A 
ATOM     23  S   UNL     1      43.078   6.271  11.147  0.00  0.00    +0.000 S 
ATOM     24  C   UNL     1      43.721   4.802  11.716  0.00  0.00    +0.000 A 
ATOM     25  N   UNL     1      42.980   3.661  11.695  0.00  0.00    +0.000 NA
ATOM     26  C   UNL     1      43.604   2.612  12.116  0.00  0.00    +0.000 A 
ATOM     27  N   UNL     1      44.897   2.603  12.572  0.00  0.00    +0.000 N 
ATOM     28  C   UNL     1      45.658   3.744  12.681  0.00  0.00    +0.000 A 
ATOM     29  O   UNL     1      46.763   3.720  13.210  0.00  0.00    +0.000 OA
ATOM     30  C   UNL     1      45.021   4.943  12.169  0.00  0.00    +0.000 A 
ATOM     31  H   UNL     1      45.316   1.751  12.915  0.00  0.00    +0.000 HD
ENDBRANCH  18  21
ENDBRANCH   1  19
TORSDOF 6
ENDMDL
MODEL 9
REMARK VINA RESULT:    -7.115      3.983      9.105
REMARK INTER + INTRA:         -10.225
REMARK INTER:                  -9.586
REMARK INTRA:                  -0.640
REMARK UNBOUND:                -0.823
REMARK  Name = 
REMARK  6 active torsions:
REMARK  status: ('A' for Active; 'I' for Inactive)
REMARK    1  A    between atoms: C_2  and  C_19
REMARK    2  A    between atoms: N_3  and  C_4
REMARK    3  A    between atoms: C_4  and  C_5
REMARK    4  A    between atoms: C_8  and  C_9
REMARK    5  A    between atoms: C_9  and  O_10
REMARK    6  A    between atoms: C_9  and  C_11
REMARK                            x       y       z     vdW  Elec       q    Type
REMARK                         _______ _______ _______ _____ _____    ______ ____
ROOT
ATOM      1  C   UNL     1      47.276   3.429  16.743  0.00  0.00    +0.000 C 
ENDROOT
BRANCH   1   2
ATOM      2  C   UNL     1      48.738   3.617  17.026  0.00  0.00    +0.000 A 
ATOM      3  C   UNL     1      49.587   2.532  17.255  0.00  0.00    +0.000 A 
ATOM      4  C   UNL     1      50.938   2.750  17.513  0.00  0.00    +0.000 A 
ATOM      5  C   UNL     1      51.418   4.057  17.510  0.00  0.00    +0.000 A 
ATOM      6  N   UNL     1      50.617   5.129  17.259  0.00  0.00    +0.000 NA
ATOM      7  C   UNL     1      49.305   4.886  17.031  0.00  0.00    +0.000 A 
BRANCH   5   8
ATOM      8  C   UNL     1      52.886   4.351  17.798  0.00  0.00    +0.000 C 
BRANCH   8   9
ATOM      9  C   UNL     1      53.654   3.151  18.290  0.00  0.00    +0.000 A 
ATOM     10  C   UNL     1      54.153   2.185  17.410  0.00  0.00    +0.000 A 
ATOM     11  C   UNL     1      54.800   1.058  17.912  0.00  0.00    +0.000 A 
ATOM     12  C   UNL     1      54.936   0.936  19.285  0.00  0.00    +0.000 A 
ATOM     13  N   UNL     1      54.496   1.857  20.166  0.00  0.00    +0.000 NA
ATOM     14  C   UNL     1      53.876   2.945  19.651  0.00  0.00    +0.000 A 
ENDBRANCH   8   9
BRANCH   8  15
ATOM     15  O   UNL     1      53.003   5.396  18.769  0.00  0.00    +0.000 OA
ATOM     16  H   UNL     1      53.905   5.293  19.137  0.00  0.00    +0.000 HD
ENDBRANCH   8  15
ENDBRANCH   5   8
ENDBRANCH   1   2
BRANCH   1  19
ATOM     17  O   UNL     1      47.165   3.047  13.968  0.00  0.00    +0.000 OA
ATOM     18  C   UNL     1      46.745   4.103  14.432  0.00  0.00    +0.000 C 
ATOM     19  N   UNL     1      46.807   4.386  15.772  0.00  0.00    +0.000 N 
ATOM     20  H   UNL     1      46.297   5.184  16.136  0.00  0.00    +0.000 HD
BRANCH  18  21
ATOM     21  C   UNL     1      46.184   5.149  13.569  0.00  0.00    +0.000 A 
ATOM     22  C   UNL     1      46.941   6.273  13.270  0.00  0.00    +0.000 A 
ATOM     23  S   UNL     1      46.138   7.398  12.271  0.00  0.00    +0.000 S 
ATOM     24  C   UNL     1      44.763   6.401  12.163  0.00  0.00    +0.000 A 
ATOM     25  N   UNL     1      43.692   6.769  11.410  0.00  0.00    +0.000 NA
ATOM     26  C   UNL     1      42.736   5.902  11.383  0.00  0.00    +0.000 A 
ATOM     27  N   UNL     1      42.746   4.706  12.054  0.00  0.00    +0.000 N 
ATOM     28  C   UNL     1      43.775   4.327  12.885  0.00  0.00    +0.000 A 
ATOM     29  O   UNL     1      43.696   3.311  13.567  0.00  0.00    +0.000 OA
ATOM     30  C   UNL     1      44.900   5.243  12.908  0.00  0.00    +0.000 A 
ATOM     31  H   UNL     1      41.952   4.085  12.013  0.00  0.00    +0.000 HD
ENDBRANCH  18  21
ENDBRANCH   1  19
TORSDOF 6
ENDMDL
