MODEL 1
REMARK VINA RESULT:    -7.720      0.000      0.000
REMARK INTER + INTRA:         -12.574
REMARK INTER:                 -11.781
REMARK INTRA:                  -0.793
REMARK UNBOUND:                -0.793
REMARK  Name = 
REMARK  9 active torsions:
REMARK  status: ('A' for Active; 'I' for Inactive)
REMARK    1  A    between atoms: C_2  and  C_3
REMARK    2  A    between atoms: C_3  and  N_4
REMARK    3  A    between atoms: C_3  and  C_20
REMARK    4  A    between atoms: N_4  and  C_5
REMARK    5  A    between atoms: C_5  and  C_6
REMARK    6  A    between atoms: C_9  and  C_10
REMARK    7  A    between atoms: C_10  and  N_11
REMARK    8  A    between atoms: N_11  and  C_12
REMARK    9  A    between atoms: C_12  and  C_13
REMARK                            x       y       z     vdW  Elec       q    Type
REMARK                         _______ _______ _______ _____ _____    ______ ____
ROOT
ATOM      1  C   UNL     1      47.458   3.482  15.059  0.00  0.00    +0.000 C 
ENDROOT
BRANCH   1   2
ATOM      2  C   UNL     1      46.752   4.086  13.869  0.00  0.00    +0.000 A 
ATOM      3  C   UNL     1      47.023   5.392  13.474  0.00  0.00    +0.000 A 
ATOM      4  C   UNL     1      46.389   5.895  12.346  0.00  0.00    +0.000 A 
ATOM      5  C   UNL     1      45.511   5.082  11.623  0.00  0.00    +0.000 A 
ATOM      6  C   UNL     1      45.296   3.795  12.097  0.00  0.00    +0.000 A 
ATOM      7  N   UNL     1      45.895   3.283  13.193  0.00  0.00    +0.000 NA
BRANCH   5   8
ATOM      8  C   UNL     1      44.815   5.573  10.388  0.00  0.00    +0.000 C 
BRANCH   8   9
ATOM      9  N   UNL     1      45.543   5.188   9.183  0.00  0.00    +0.000 NA
ATOM     10  H   UNL     1      46.451   4.799   9.442  0.00  0.00    +0.000 HD
BRANCH   9  11
ATOM     11  C   UNL     1      44.813   4.151   8.453  0.00  0.00    +0.000 C 
BRANCH  11  12
ATOM     12  C   UNL     1      45.798   3.161   7.929  0.00  0.00    +0.000 A 
ATOM     13  C   UNL     1      46.032   1.867   8.351  0.00  0.00    +0.000 A 
ATOM     14  N   UNL     1      47.030   1.398   7.543  0.00  0.00    +0.000 N 
ATOM     15  C   UNL     1      47.361   2.398   6.674  0.00  0.00    +0.000 A 
ATOM     16  N   UNL     1      46.635   3.474   6.878  0.00  0.00    +0.000 NA
ATOM     17  H   UNL     1      47.447   0.478   7.575  0.00  0.00    +0.000 HD
ENDBRANCH  11  12
ENDBRANCH   9  11
ENDBRANCH   8   9
ENDBRANCH   5   8
ENDBRANCH   1   2
BRANCH   1  18
ATOM     18  N   UNL     1      48.204   4.473  15.852  0.00  0.00    +0.000 NA
ATOM     19  H   UNL     1      49.156   4.538  15.504  0.00  0.00    +0.000 HD
BRANCH  18  20
ATOM     20  C   UNL     1      48.247   4.068  17.268  0.00  0.00    +0.000 C 
BRANCH  20  21
ATOM     21  C   UNL     1      49.686   4.102  17.745  0.00  0.00    +0.000 A 
ATOM     22  C   UNL     1      50.278   5.132  18.463  0.00  0.00    +0.000 A 
ATOM     23  S   UNL     1      51.906   4.819  18.876  0.00  0.00    +0.000 S 
ATOM     24  C   UNL     1      51.866   3.287  18.134  0.00  0.00    +0.000 A 
ATOM     25  N   UNL     1      52.946   2.461  18.143  0.00  0.00    +0.000 NA
ATOM     26  C   UNL     1      52.750   1.322  17.565  0.00  0.00    +0.000 A 
ATOM     27  N   UNL     1      51.575   0.936  16.967  0.00  0.00    +0.000 N 
ATOM     28  C   UNL     1      50.464   1.744  16.914  0.00  0.00    +0.000 A 
ATOM     29  O   UNL     1      49.428   1.399  16.353  0.00  0.00    +0.000 OA
ATOM     30  C   UNL     1      50.633   3.027  17.567  0.00  0.00    +0.000 A 
ATOM     31  H   UNL     1      51.493   0.030  16.529  0.00  0.00    +0.000 HD
ENDBRANCH  20  21
BRANCH  20  33
ATOM     32  N   UNL     1      46.749   5.769  18.879  0.00  0.00    +0.000 NA
ATOM     33  C   UNL     1      47.429   4.998  18.148  0.00  0.00    +0.000 C 
ENDBRANCH  20  33
ENDBRANCH  18  20
ENDBRANCH   1  18
TORSDOF 9
ENDMDL
MODEL 2
REMARK VINA RESULT:    -7.565      1.569      2.026
REMARK INTER + INTRA:         -12.338
REMARK INTER:                 -11.543
REMARK INTRA:                  -0.795
REMARK UNBOUND:                -0.793
REMARK  Name = 
REMARK  9 active torsions:
REMARK  status: ('A' for Active; 'I' for Inactive)
REMARK    1  A    between atoms: C_2  and  C_3
REMARK    2  A    between atoms: C_3  and  N_4
REMARK    3  A    between atoms: C_3  and  C_20
REMARK    4  A    between atoms: N_4  and  C_5
REMARK    5  A    between atoms: C_5  and  C_6
REMARK    6  A    between atoms: C_9  and  C_10
REMARK    7  A    between atoms: C_10  and  N_11
REMARK    8  A    between atoms: N_11  and  C_12
REMARK    9  A    between atoms: C_12  and  C_13
REMARK                            x       y       z     vdW  Elec       q    Type
REMARK                         _______ _______ _______ _____ _____    ______ ____
ROOT
ATOM      1  C   UNL     1      47.981   5.845  14.101  0.00  0.00    +0.000 C 
ENDROOT
BRANCH   1   2
ATOM      2  C   UNL     1      46.882   5.583  13.100  0.00  0.00    +0.000 A 
ATOM      3  C   UNL     1      46.752   6.380  11.967  0.00  0.00    +0.000 A 
ATOM      4  C   UNL     1      45.758   6.077  11.047  0.00  0.00    +0.000 A 
ATOM      5  C   UNL     1      44.925   4.975  11.262  0.00  0.00    +0.000 A 
ATOM      6  C   UNL     1      45.124   4.242  12.424  0.00  0.00    +0.000 A 
ATOM      7  N   UNL     1      46.078   4.517  13.337  0.00  0.00    +0.000 NA
BRANCH   5   8
ATOM      8  C   UNL     1      43.848   4.597  10.288  0.00  0.00    +0.000 C 
BRANCH   8   9
ATOM      9  N   UNL     1      44.400   4.356   8.958  0.00  0.00    +0.000 NA
ATOM     10  H   UNL     1      45.308   4.817   8.876  0.00  0.00    +0.000 HD
BRANCH   9  11
ATOM     11  C   UNL     1      44.615   2.924   8.744  0.00  0.00    +0.000 C 
BRANCH  11  12
ATOM     12  C   UNL     1      45.873   2.748   7.963  0.00  0.00    +0.000 A 
ATOM     13  C   UNL     1      46.578   3.685   7.235  0.00  0.00    +0.000 A 
ATOM     14  N   UNL     1      47.649   3.012   6.718  0.00  0.00    +0.000 N 
ATOM     15  C   UNL     1      47.565   1.717   7.141  0.00  0.00    +0.000 A 
ATOM     16  N   UNL     1      46.507   1.524   7.896  0.00  0.00    +0.000 NA
ATOM     17  H   UNL     1      48.377   3.398   6.133  0.00  0.00    +0.000 HD
ENDBRANCH  11  12
ENDBRANCH   9  11
ENDBRANCH   8   9
ENDBRANCH   5   8
ENDBRANCH   1   2
BRANCH   1  18
ATOM     18  N   UNL     1      47.514   5.791  15.497  0.00  0.00    +0.000 NA
ATOM     19  H   UNL     1      47.684   6.687  15.945  0.00  0.00    +0.000 HD
BRANCH  18  20
ATOM     20  C   UNL     1      48.241   4.747  16.241  0.00  0.00    +0.000 C 
BRANCH  20  21
ATOM     21  C   UNL     1      49.074   5.406  17.322  0.00  0.00    +0.000 A 
ATOM     22  C   UNL     1      48.814   6.636  17.910  0.00  0.00    +0.000 A 
ATOM     23  S   UNL     1      49.935   7.053  19.130  0.00  0.00    +0.000 S 
ATOM     24  C   UNL     1      50.787   5.593  18.935  0.00  0.00    +0.000 A 
ATOM     25  N   UNL     1      51.868   5.289  19.702  0.00  0.00    +0.000 NA
ATOM     26  C   UNL     1      52.388   4.132  19.454  0.00  0.00    +0.000 A 
ATOM     27  N   UNL     1      51.935   3.254  18.500  0.00  0.00    +0.000 N 
ATOM     28  C   UNL     1      50.860   3.526  17.687  0.00  0.00    +0.000 A 
ATOM     29  O   UNL     1      50.480   2.746  16.819  0.00  0.00    +0.000 OA
ATOM     30  C   UNL     1      50.233   4.807  17.942  0.00  0.00    +0.000 A 
ATOM     31  H   UNL     1      52.393   2.366  18.357  0.00  0.00    +0.000 HD
ENDBRANCH  20  21
BRANCH  20  33
ATOM     32  N   UNL     1      46.509   2.936  17.444  0.00  0.00    +0.000 NA
ATOM     33  C   UNL     1      47.295   3.758  16.899  0.00  0.00    +0.000 C 
ENDBRANCH  20  33
ENDBRANCH  18  20
ENDBRANCH   1  18
TORSDOF 9
ENDMDL
MODEL 3
REMARK VINA RESULT:    -7.348      2.803      3.598
REMARK INTER + INTRA:         -12.008
REMARK INTER:                 -11.210
REMARK INTRA:                  -0.798
REMARK UNBOUND:                -0.793
REMARK  Name = 
REMARK  9 active torsions:
REMARK  status: ('A' for Active; 'I' for Inactive)
REMARK    1  A    between atoms: C_2  and  C_3
REMARK    2  A    between atoms: C_3  and  N_4
REMARK    3  A    between atoms: C_3  and  C_20
REMARK    4  A    between atoms: N_4  and  C_5
REMARK    5  A    between atoms: C_5  and  C_6
REMARK    6  A    between atoms: C_9  and  C_10
REMARK    7  A    between atoms: C_10  and  N_11
REMARK    8  A    between atoms: N_11  and  C_12
REMARK    9  A    between atoms: C_12  and  C_13
REMARK                            x       y       z     vdW  Elec       q    Type
REMARK                         _______ _______ _______ _____ _____    ______ ____
ROOT
ATOM      1  C   UNL     1      47.252   3.857  14.509  0.00  0.00    +0.000 C 
ENDROOT
BRANCH   1   2
ATOM      2  C   UNL     1      46.332   4.150  13.348  0.00  0.00    +0.000 A 
ATOM      3  C   UNL     1      46.348   5.396  12.729  0.00  0.00    +0.000 A 
ATOM      4  C   UNL     1      45.521   5.610  11.635  0.00  0.00    +0.000 A 
ATOM      5  C   UNL     1      44.708   4.573  11.167  0.00  0.00    +0.000 A 
ATOM      6  C   UNL     1      44.752   3.367  11.853  0.00  0.00    +0.000 A 
ATOM      7  N   UNL     1      45.543   3.134  12.922  0.00  0.00    +0.000 NA
BRANCH   5   8
ATOM      8  C   UNL     1      43.809   4.750   9.978  0.00  0.00    +0.000 C 
BRANCH   8   9
ATOM      9  N   UNL     1      44.522   4.480   8.733  0.00  0.00    +0.000 NA
ATOM     10  H   UNL     1      45.456   4.891   8.778  0.00  0.00    +0.000 HD
BRANCH   9  11
ATOM     11  C   UNL     1      44.687   3.038   8.540  0.00  0.00    +0.000 C 
BRANCH  11  12
ATOM     12  C   UNL     1      45.986   2.801   7.847  0.00  0.00    +0.000 A 
ATOM     13  C   UNL     1      46.803   3.710   7.205  0.00  0.00    +0.000 A 
ATOM     14  N   UNL     1      47.864   2.983   6.743  0.00  0.00    +0.000 N 
ATOM     15  C   UNL     1      47.664   1.683   7.113  0.00  0.00    +0.000 A 
ATOM     16  N   UNL     1      46.542   1.540   7.782  0.00  0.00    +0.000 NA
ATOM     17  H   UNL     1      48.656   3.336   6.227  0.00  0.00    +0.000 HD
ENDBRANCH  11  12
ENDBRANCH   9  11
ENDBRANCH   8   9
ENDBRANCH   5   8
ENDBRANCH   1   2
BRANCH   1  18
ATOM     18  N   UNL     1      47.533   5.043  15.337  0.00  0.00    +0.000 NA
ATOM     19  H   UNL     1      48.172   5.657  14.842  0.00  0.00    +0.000 HD
BRANCH  18  20
ATOM     20  C   UNL     1      48.156   4.642  16.610  0.00  0.00    +0.000 C 
BRANCH  20  21
ATOM     21  C   UNL     1      48.175   5.835  17.544  0.00  0.00    +0.000 A 
ATOM     22  C   UNL     1      47.472   5.945  18.735  0.00  0.00    +0.000 A 
ATOM     23  S   UNL     1      47.762   7.413  19.560  0.00  0.00    +0.000 S 
ATOM     24  C   UNL     1      48.858   7.938  18.369  0.00  0.00    +0.000 A 
ATOM     25  N   UNL     1      49.505   9.131  18.470  0.00  0.00    +0.000 NA
ATOM     26  C   UNL     1      50.327   9.374  17.502  0.00  0.00    +0.000 A 
ATOM     27  N   UNL     1      50.552   8.542  16.433  0.00  0.00    +0.000 N 
ATOM     28  C   UNL     1      49.905   7.338  16.277  0.00  0.00    +0.000 A 
ATOM     29  O   UNL     1      50.094   6.614  15.303  0.00  0.00    +0.000 OA
ATOM     30  C   UNL     1      48.987   7.014  17.349  0.00  0.00    +0.000 A 
ATOM     31  H   UNL     1      51.206   8.798  15.709  0.00  0.00    +0.000 HD
ENDBRANCH  20  21
BRANCH  20  33
ATOM     32  N   UNL     1      46.753   2.584  17.847  0.00  0.00    +0.000 NA
ATOM     33  C   UNL     1      47.390   3.517  17.286  0.00  0.00    +0.000 C 
ENDBRANCH  20  33
ENDBRANCH  18  20
ENDBRANCH   1  18
TORSDOF 9
ENDMDL
MODEL 4
REMARK VINA RESULT:    -6.911      2.245      2.821
REMARK INTER + INTRA:         -11.341
REMARK INTER:                 -10.411
REMARK INTRA:                  -0.930
REMARK UNBOUND:                -0.793
REMARK  Name = 
REMARK  9 active torsions:
REMARK  status: ('A' for Active; 'I' for Inactive)
REMARK    1  A    between atoms: C_2  and  C_3
REMARK    2  A    between atoms: C_3  and  N_4
REMARK    3  A    between atoms: C_3  and  C_20
REMARK    4  A    between atoms: N_4  and  C_5
REMARK    5  A    between atoms: C_5  and  C_6
REMARK    6  A    between atoms: C_9  and  C_10
REMARK    7  A    between atoms: C_10  and  N_11
REMARK    8  A    between atoms: N_11  and  C_12
REMARK    9  A    between atoms: C_12  and  C_13
REMARK                            x       y       z     vdW  Elec       q    Type
REMARK                         _______ _______ _______ _____ _____    ______ ____
ROOT
ATOM      1  C   UNL     1      47.785   6.727  13.424  0.00  0.00    +0.000 C 
ENDROOT
BRANCH   1   2
ATOM      2  C   UNL     1      46.769   5.903  12.672  0.00  0.00    +0.000 A 
ATOM      3  C   UNL     1      46.167   4.802  13.271  0.00  0.00    +0.000 A 
ATOM      4  C   UNL     1      45.203   4.098  12.563  0.00  0.00    +0.000 A 
ATOM      5  C   UNL     1      44.843   4.517  11.278  0.00  0.00    +0.000 A 
ATOM      6  C   UNL     1      45.503   5.622  10.758  0.00  0.00    +0.000 A 
ATOM      7  N   UNL     1      46.447   6.320  11.423  0.00  0.00    +0.000 NA
BRANCH   5   8
ATOM      8  C   UNL     1      43.794   3.800  10.479  0.00  0.00    +0.000 C 
BRANCH   8   9
ATOM      9  N   UNL     1      44.232   3.586   9.104  0.00  0.00    +0.000 NA
ATOM     10  H   UNL     1      44.895   4.316   8.839  0.00  0.00    +0.000 HD
BRANCH   9  11
ATOM     11  C   UNL     1      44.922   2.301   8.980  0.00  0.00    +0.000 C 
BRANCH  11  12
ATOM     12  C   UNL     1      46.062   2.468   8.033  0.00  0.00    +0.000 A 
ATOM     13  C   UNL     1      46.542   3.624   7.451  0.00  0.00    +0.000 A 
ATOM     14  N   UNL     1      47.593   3.229   6.673  0.00  0.00    +0.000 N 
ATOM     15  C   UNL     1      47.719   1.875   6.806  0.00  0.00    +0.000 A 
ATOM     16  N   UNL     1      46.813   1.385   7.621  0.00  0.00    +0.000 NA
ATOM     17  H   UNL     1      48.178   3.825   6.104  0.00  0.00    +0.000 HD
ENDBRANCH  11  12
ENDBRANCH   9  11
ENDBRANCH   8   9
ENDBRANCH   5   8
ENDBRANCH   1   2
BRANCH   1  18
ATOM     18  N   UNL     1      48.402   6.000  14.547  0.00  0.00    +0.000 NA
ATOM     19  H   UNL     1      47.734   5.336  14.927  0.00  0.00    +0.000 HD
BRANCH  18  20
ATOM     20  C   UNL     1      48.793   6.939  15.613  0.00  0.00    +0.000 C 
BRANCH  20  21
ATOM     21  C   UNL     1      50.218   6.640  16.032  0.00  0.00    +0.000 A 
ATOM     22  C   UNL     1      51.335   7.396  15.707  0.00  0.00    +0.000 A 
ATOM     23  S   UNL     1      52.782   6.793  16.387  0.00  0.00    +0.000 S 
ATOM     24  C   UNL     1      51.961   5.518  17.160  0.00  0.00    +0.000 A 
ATOM     25  N   UNL     1      52.615   4.620  17.945  0.00  0.00    +0.000 NA
ATOM     26  C   UNL     1      51.850   3.730  18.486  0.00  0.00    +0.000 A 
ATOM     27  N   UNL     1      50.491   3.645  18.304  0.00  0.00    +0.000 N 
ATOM     28  C   UNL     1      49.790   4.516  17.503  0.00  0.00    +0.000 A 
ATOM     29  O   UNL     1      48.580   4.415  17.327  0.00  0.00    +0.000 OA
ATOM     30  C   UNL     1      50.606   5.545  16.890  0.00  0.00    +0.000 A 
ATOM     31  H   UNL     1      49.955   2.919  18.756  0.00  0.00    +0.000 HD
ENDBRANCH  20  21
BRANCH  20  33
ATOM     32  N   UNL     1      48.666   9.583  14.761  0.00  0.00    +0.000 NA
ATOM     33  C   UNL     1      48.723   8.384  15.148  0.00  0.00    +0.000 C 
ENDBRANCH  20  33
ENDBRANCH  18  20
ENDBRANCH   1  18
TORSDOF 9
ENDMDL
MODEL 5
REMARK VINA RESULT:    -6.905      2.095      2.702
REMARK INTER + INTRA:         -11.331
REMARK INTER:                 -10.454
REMARK INTRA:                  -0.876
REMARK UNBOUND:                -0.793
REMARK  Name = 
REMARK  9 active torsions:
REMARK  status: ('A' for Active; 'I' for Inactive)
REMARK    1  A    between atoms: C_2  and  C_3
REMARK    2  A    between atoms: C_3  and  N_4
REMARK    3  A    between atoms: C_3  and  C_20
REMARK    4  A    between atoms: N_4  and  C_5
REMARK    5  A    between atoms: C_5  and  C_6
REMARK    6  A    between atoms: C_9  and  C_10
REMARK    7  A    between atoms: C_10  and  N_11
REMARK    8  A    between atoms: N_11  and  C_12
REMARK    9  A    between atoms: C_12  and  C_13
REMARK                            x       y       z     vdW  Elec       q    Type
REMARK                         _______ _______ _______ _____ _____    ______ ____
ROOT
ATOM      1  C   UNL     1      49.620   6.977  15.079  0.00  0.00    +0.000 C 
ENDROOT
BRANCH   1   2
ATOM      2  C   UNL     1      48.343   7.042  14.278  0.00  0.00    +0.000 A 
ATOM      3  C   UNL     1      47.759   8.267  13.973  0.00  0.00    +0.000 A 
ATOM      4  C   UNL     1      46.611   8.286  13.194  0.00  0.00    +0.000 A 
ATOM      5  C   UNL     1      46.077   7.085  12.716  0.00  0.00    +0.000 A 
ATOM      6  C   UNL     1      46.722   5.911  13.077  0.00  0.00    +0.000 A 
ATOM      7  N   UNL     1      47.836   5.864  13.838  0.00  0.00    +0.000 NA
BRANCH   5   8
ATOM      8  C   UNL     1      44.848   7.055  11.855  0.00  0.00    +0.000 C 
BRANCH   8   9
ATOM      9  N   UNL     1      43.817   6.201  12.437  0.00  0.00    +0.000 NA
ATOM     10  H   UNL     1      43.241   6.749  13.078  0.00  0.00    +0.000 HD
BRANCH   9  11
ATOM     11  C   UNL     1      42.934   5.679  11.392  0.00  0.00    +0.000 C 
BRANCH  11  12
ATOM     12  C   UNL     1      43.451   4.348  10.960  0.00  0.00    +0.000 A 
ATOM     13  C   UNL     1      43.383   3.138  11.620  0.00  0.00    +0.000 A 
ATOM     14  N   UNL     1      44.002   2.241  10.795  0.00  0.00    +0.000 N 
ATOM     15  C   UNL     1      44.416   2.918   9.685  0.00  0.00    +0.000 A 
ATOM     16  N   UNL     1      44.097   4.191   9.750  0.00  0.00    +0.000 NA
ATOM     17  H   UNL     1      44.130   1.253  10.969  0.00  0.00    +0.000 HD
ENDBRANCH  11  12
ENDBRANCH   9  11
ENDBRANCH   8   9
ENDBRANCH   5   8
ENDBRANCH   1   2
BRANCH   1  18
ATOM     18  N   UNL     1      49.389   6.972  16.534  0.00  0.00    +0.000 NA
ATOM     19  H   UNL     1      50.202   7.353  17.007  0.00  0.00    +0.000 HD
BRANCH  18  20
ATOM     20  C   UNL     1      49.168   5.596  17.012  0.00  0.00    +0.000 C 
BRANCH  20  21
ATOM     21  C   UNL     1      50.484   5.033  17.511  0.00  0.00    +0.000 A 
ATOM     22  C   UNL     1      51.492   5.757  18.132  0.00  0.00    +0.000 A 
ATOM     23  S   UNL     1      52.822   4.795  18.607  0.00  0.00    +0.000 S 
ATOM     24  C   UNL     1      52.083   3.376  18.026  0.00  0.00    +0.000 A 
ATOM     25  N   UNL     1      52.683   2.160  18.139  0.00  0.00    +0.000 NA
ATOM     26  C   UNL     1      51.984   1.177  17.677  0.00  0.00    +0.000 A 
ATOM     27  N   UNL     1      50.745   1.296  17.098  0.00  0.00    +0.000 N 
ATOM     28  C   UNL     1      50.108   2.505  16.942  0.00  0.00    +0.000 A 
ATOM     29  O   UNL     1      49.012   2.604  16.398  0.00  0.00    +0.000 OA
ATOM     30  C   UNL     1      50.848   3.637  17.463  0.00  0.00    +0.000 A 
ATOM     31  H   UNL     1      50.255   0.483  16.754  0.00  0.00    +0.000 HD
ENDBRANCH  20  21
BRANCH  20  33
ATOM     32  N   UNL     1      47.328   5.505  19.095  0.00  0.00    +0.000 NA
ATOM     33  C   UNL     1      48.163   5.547  18.151  0.00  0.00    +0.000 C 
ENDBRANCH  20  33
ENDBRANCH  18  20
ENDBRANCH   1  18
TORSDOF 9
ENDMDL
MODEL 6
REMARK VINA RESULT:    -6.826      2.850      3.995
REMARK INTER + INTRA:         -11.211
REMARK INTER:                 -10.358
REMARK INTRA:                  -0.853
REMARK UNBOUND:                -0.793
REMARK  Name = 
REMARK  9 active torsions:
REMARK  status: ('A' for Active; 'I' for Inactive)
REMARK    1  A    between atoms: C_2  and  C_3
REMARK    2  A    between atoms: C_3  and  N_4
REMARK    3  A    between atoms: C_3  and  C_20
REMARK    4  A    between atoms: N_4  and  C_5
REMARK    5  A    between atoms: C_5  and  C_6
REMARK    6  A    between atoms: C_9  and  C_10
REMARK    7  A    between atoms: C_10  and  N_11
REMARK    8  A    between atoms: N_11  and  C_12
REMARK    9  A    between atoms: C_12  and  C_13
REMARK                            x       y       z     vdW  Elec       q    Type
REMARK                         _______ _______ _______ _____ _____    ______ ____
ROOT
ATOM      1  C   UNL     1      47.929   6.626  13.654  0.00  0.00    +0.000 C 
ENDROOT
BRANCH   1   2
ATOM      2  C   UNL     1      46.810   6.060  12.815  0.00  0.00    +0.000 A 
ATOM      3  C   UNL     1      46.504   6.613  11.576  0.00  0.00    +0.000 A 
ATOM      4  C   UNL     1      45.499   6.034  10.814  0.00  0.00    +0.000 A 
ATOM      5  C   UNL     1      44.829   4.904  11.293  0.00  0.00    +0.000 A 
ATOM      6  C   UNL     1      45.196   4.427  12.544  0.00  0.00    +0.000 A 
ATOM      7  N   UNL     1      46.165   4.973  13.307  0.00  0.00    +0.000 NA
BRANCH   5   8
ATOM      8  C   UNL     1      43.747   4.231  10.499  0.00  0.00    +0.000 C 
BRANCH   8   9
ATOM      9  N   UNL     1      44.232   3.827   9.183  0.00  0.00    +0.000 NA
ATOM     10  H   UNL     1      45.066   4.366   8.945  0.00  0.00    +0.000 HD
BRANCH   9  11
ATOM     11  C   UNL     1      44.611   2.414   9.189  0.00  0.00    +0.000 C 
BRANCH  11  12
ATOM     12  C   UNL     1      45.790   2.238   8.293  0.00  0.00    +0.000 A 
ATOM     13  C   UNL     1      46.453   1.076   7.952  0.00  0.00    +0.000 A 
ATOM     14  N   UNL     1      47.454   1.464   7.107  0.00  0.00    +0.000 N 
ATOM     15  C   UNL     1      47.369   2.818   6.962  0.00  0.00    +0.000 A 
ATOM     16  N   UNL     1      46.375   3.317   7.661  0.00  0.00    +0.000 NA
ATOM     17  H   UNL     1      48.134   0.862   6.664  0.00  0.00    +0.000 HD
ENDBRANCH  11  12
ENDBRANCH   9  11
ENDBRANCH   8   9
ENDBRANCH   5   8
ENDBRANCH   1   2
BRANCH   1  18
ATOM     18  N   UNL     1      48.267   5.781  14.812  0.00  0.00    +0.000 NA
ATOM     19  H   UNL     1      47.434   5.296  15.131  0.00  0.00    +0.000 HD
BRANCH  18  20
ATOM     20  C   UNL     1      48.782   6.609  15.917  0.00  0.00    +0.000 C 
BRANCH  20  21
ATOM     21  C   UNL     1      48.624   5.846  17.217  0.00  0.00    +0.000 A 
ATOM     22  C   UNL     1      48.907   4.500  17.407  0.00  0.00    +0.000 A 
ATOM     23  S   UNL     1      48.657   3.977  19.014  0.00  0.00    +0.000 S 
ATOM     24  C   UNL     1      48.190   5.535  19.515  0.00  0.00    +0.000 A 
ATOM     25  N   UNL     1      47.858   5.800  20.808  0.00  0.00    +0.000 NA
ATOM     26  C   UNL     1      47.555   7.035  21.037  0.00  0.00    +0.000 A 
ATOM     27  N   UNL     1      47.538   8.030  20.090  0.00  0.00    +0.000 N 
ATOM     28  C   UNL     1      47.844   7.805  18.768  0.00  0.00    +0.000 A 
ATOM     29  O   UNL     1      47.800   8.696  17.925  0.00  0.00    +0.000 OA
ATOM     30  C   UNL     1      48.209   6.436  18.467  0.00  0.00    +0.000 A 
ATOM     31  H   UNL     1      47.287   8.975  20.339  0.00  0.00    +0.000 HD
ENDBRANCH  20  21
BRANCH  20  33
ATOM     32  N   UNL     1      51.473   7.225  15.583  0.00  0.00    +0.000 NA
ATOM     33  C   UNL     1      50.253   6.945  15.734  0.00  0.00    +0.000 C 
ENDBRANCH  20  33
ENDBRANCH  18  20
ENDBRANCH   1  18
TORSDOF 9
ENDMDL
MODEL 7
REMARK VINA RESULT:    -6.794      2.137      3.671
REMARK INTER + INTRA:         -11.162
REMARK INTER:                 -10.279
REMARK INTRA:                  -0.883
REMARK UNBOUND:                -0.793
REMARK  Name = 
REMARK  9 active torsions:
REMARK  status: ('A' for Active; 'I' for Inactive)
REMARK    1  A    between atoms: C_2  and  C_3
REMARK    2  A    between atoms: C_3  and  N_4
REMARK    3  A    between atoms: C_3  and  C_20
REMARK    4  A    between atoms: N_4  and  C_5
REMARK    5  A    between atoms: C_5  and  C_6
REMARK    6  A    between atoms: C_9  and  C_10
REMARK    7  A    between atoms: C_10  and  N_11
REMARK    8  A    between atoms: N_11  and  C_12
REMARK    9  A    between atoms: C_12  and  C_13
REMARK                            x       y       z     vdW  Elec       q    Type
REMARK                         _______ _______ _______ _____ _____    ______ ____
ROOT
ATOM      1  C   UNL     1      47.317   3.745  15.230  0.00  0.00    +0.000 C 
ENDROOT
BRANCH   1   2
ATOM      2  C   UNL     1      46.718   4.369  13.993  0.00  0.00    +0.000 A 
ATOM      3  C   UNL     1      47.074   5.657  13.606  0.00  0.00    +0.000 A 
ATOM      4  C   UNL     1      46.537   6.177  12.437  0.00  0.00    +0.000 A 
ATOM      5  C   UNL     1      45.671   5.397  11.664  0.00  0.00    +0.000 A 
ATOM      6  C   UNL     1      45.367   4.126  12.133  0.00  0.00    +0.000 A 
ATOM      7  N   UNL     1      45.870   3.599  13.268  0.00  0.00    +0.000 NA
BRANCH   5   8
ATOM      8  C   UNL     1      45.079   5.907  10.383  0.00  0.00    +0.000 C 
BRANCH   8   9
ATOM      9  N   UNL     1      45.690   5.263   9.225  0.00  0.00    +0.000 NA
ATOM     10  H   UNL     1      46.561   4.809   9.507  0.00  0.00    +0.000 HD
BRANCH   9  11
ATOM     11  C   UNL     1      44.808   4.224   8.691  0.00  0.00    +0.000 C 
BRANCH  11  12
ATOM     12  C   UNL     1      45.647   3.074   8.249  0.00  0.00    +0.000 A 
ATOM     13  C   UNL     1      45.581   1.752   8.644  0.00  0.00    +0.000 A 
ATOM     14  N   UNL     1      46.565   1.115   7.943  0.00  0.00    +0.000 N 
ATOM     15  C   UNL     1      47.183   2.047   7.159  0.00  0.00    +0.000 A 
ATOM     16  N   UNL     1      46.652   3.238   7.318  0.00  0.00    +0.000 NA
ATOM     17  H   UNL     1      46.795   0.132   7.987  0.00  0.00    +0.000 HD
ENDBRANCH  11  12
ENDBRANCH   9  11
ENDBRANCH   8   9
ENDBRANCH   5   8
ENDBRANCH   1   2
BRANCH   1  18
ATOM     18  N   UNL     1      47.443   4.692  16.351  0.00  0.00    +0.000 NA
ATOM     19  H   UNL     1      47.303   5.639  16.011  0.00  0.00    +0.000 HD
BRANCH  18  20
ATOM     20  C   UNL     1      48.785   4.600  16.952  0.00  0.00    +0.000 C 
BRANCH  20  21
ATOM     21  C   UNL     1      48.695   4.986  18.414  0.00  0.00    +0.000 A 
ATOM     22  C   UNL     1      48.742   4.110  19.489  0.00  0.00    +0.000 A 
ATOM     23  S   UNL     1      48.659   4.893  21.005  0.00  0.00    +0.000 S 
ATOM     24  C   UNL     1      48.587   6.430  20.278  0.00  0.00    +0.000 A 
ATOM     25  N   UNL     1      48.526   7.569  21.019  0.00  0.00    +0.000 NA
ATOM     26  C   UNL     1      48.506   8.657  20.322  0.00  0.00    +0.000 A 
ATOM     27  N   UNL     1      48.527   8.713  18.950  0.00  0.00    +0.000 N 
ATOM     28  C   UNL     1      48.567   7.589  18.159  0.00  0.00    +0.000 A 
ATOM     29  O   UNL     1      48.559   7.650  16.933  0.00  0.00    +0.000 OA
ATOM     30  C   UNL     1      48.609   6.344  18.899  0.00  0.00    +0.000 A 
ATOM     31  H   UNL     1      48.506   9.601  18.470  0.00  0.00    +0.000 HD
ENDBRANCH  20  21
BRANCH  20  33
ATOM     32  N   UNL     1      49.819   2.024  16.785  0.00  0.00    +0.000 NA
ATOM     33  C   UNL     1      49.350   3.192  16.861  0.00  0.00    +0.000 C 
ENDBRANCH  20  33
ENDBRANCH  18  20
ENDBRANCH   1  18
TORSDOF 9
ENDMDL
MODEL 8
REMARK VINA RESULT:    -6.777      3.136      4.262
REMARK INTER + INTRA:         -11.136
REMARK INTER:                  -9.772
REMARK INTRA:                  -1.364
REMARK UNBOUND:                -0.793
REMARK  Name = 
REMARK  9 active torsions:
REMARK  status: ('A' for Active; 'I' for Inactive)
REMARK    1  A    between atoms: C_2  and  C_3
REMARK    2  A    between atoms: C_3  and  N_4
REMARK    3  A    between atoms: C_3  and  C_20
REMARK    4  A    between atoms: N_4  and  C_5
REMARK    5  A    between atoms: C_5  and  C_6
REMARK    6  A    between atoms: C_9  and  C_10
REMARK    7  A    between atoms: C_10  and  N_11
REMARK    8  A    between atoms: N_11  and  C_12
REMARK    9  A    between atoms: C_12  and  C_13
REMARK                            x       y       z     vdW  Elec       q    Type
REMARK                         _______ _______ _______ _____ _____    ______ ____
ROOT
ATOM      1  C   UNL     1      49.190   7.594  12.790  0.00  0.00    +0.000 C 
ENDROOT
BRANCH   1   2
ATOM      2  C   UNL     1      47.741   7.620  12.371  0.00  0.00    +0.000 A 
ATOM      3  C   UNL     1      47.147   6.497  11.804  0.00  0.00    +0.000 A 
ATOM      4  C   UNL     1      45.799   6.547  11.475  0.00  0.00    +0.000 A 
ATOM      5  C   UNL     1      45.064   7.707  11.735  0.00  0.00    +0.000 A 
ATOM      6  C   UNL     1      45.742   8.781  12.296  0.00  0.00    +0.000 A 
ATOM      7  N   UNL     1      47.052   8.761  12.620  0.00  0.00    +0.000 NA
BRANCH   5   8
ATOM      8  C   UNL     1      43.601   7.803  11.415  0.00  0.00    +0.000 C 
BRANCH   8   9
ATOM      9  N   UNL     1      43.113   6.572  10.801  0.00  0.00    +0.000 NA
ATOM     10  H   UNL     1      43.903   6.025  10.458  0.00  0.00    +0.000 HD
BRANCH   9  11
ATOM     11  C   UNL     1      42.408   5.753  11.788  0.00  0.00    +0.000 C 
BRANCH  11  12
ATOM     12  C   UNL     1      43.062   4.413  11.843  0.00  0.00    +0.000 A 
ATOM     13  C   UNL     1      43.479   3.699  12.947  0.00  0.00    +0.000 A 
ATOM     14  N   UNL     1      44.008   2.541  12.451  0.00  0.00    +0.000 N 
ATOM     15  C   UNL     1      43.895   2.586  11.091  0.00  0.00    +0.000 A 
ATOM     16  N   UNL     1      43.326   3.700  10.691  0.00  0.00    +0.000 NA
ATOM     17  H   UNL     1      44.407   1.784  12.988  0.00  0.00    +0.000 HD
ENDBRANCH  11  12
ENDBRANCH   9  11
ENDBRANCH   8   9
ENDBRANCH   5   8
ENDBRANCH   1   2
BRANCH   1  18
ATOM     18  N   UNL     1      49.446   6.692  13.927  0.00  0.00    +0.000 NA
ATOM     19  H   UNL     1      48.987   5.802  13.762  0.00  0.00    +0.000 HD
BRANCH  18  20
ATOM     20  C   UNL     1      48.914   7.274  15.172  0.00  0.00    +0.000 C 
BRANCH  20  21
ATOM     21  C   UNL     1      49.261   6.358  16.328  0.00  0.00    +0.000 A 
ATOM     22  C   UNL     1      50.229   6.599  17.292  0.00  0.00    +0.000 A 
ATOM     23  S   UNL     1      50.323   5.374  18.479  0.00  0.00    +0.000 S 
ATOM     24  C   UNL     1      49.055   4.495  17.761  0.00  0.00    +0.000 A 
ATOM     25  N   UNL     1      48.602   3.329  18.296  0.00  0.00    +0.000 NA
ATOM     26  C   UNL     1      47.615   2.796  17.653  0.00  0.00    +0.000 A 
ATOM     27  N   UNL     1      47.047   3.314  16.516  0.00  0.00    +0.000 N 
ATOM     28  C   UNL     1      47.484   4.477  15.926  0.00  0.00    +0.000 A 
ATOM     29  O   UNL     1      46.986   4.916  14.894  0.00  0.00    +0.000 OA
ATOM     30  C   UNL     1      48.579   5.120  16.624  0.00  0.00    +0.000 A 
ATOM     31  H   UNL     1      46.279   2.841  16.061  0.00  0.00    +0.000 HD
ENDBRANCH  20  21
BRANCH  20  33
ATOM     32  N   UNL     1      49.994   9.785  15.685  0.00  0.00    +0.000 NA
ATOM     33  C   UNL     1      49.505   8.646  15.453  0.00  0.00    +0.000 C 
ENDBRANCH  20  33
ENDBRANCH  18  20
ENDBRANCH   1  18
TORSDOF 9
ENDMDL
MODEL 9
REMARK VINA RESULT:    -6.727      2.457      3.200
REMARK INTER + INTRA:         -11.059
REMARK INTER:                 -10.078
REMARK INTRA:                  -0.981
REMARK UNBOUND:                -0.793
REMARK  Name = 
REMARK  9 active torsions:
REMARK  status: ('A' for Active; 'I' for Inactive)
REMARK    1  A    between atoms: C_2  and  C_3
REMARK    2  A    between atoms: C_3  and  N_4
REMARK    3  A    between atoms: C_3  and  C_20
REMARK    4  A    between atoms: N_4  and  C_5
REMARK    5  A    between atoms: C_5  and  C_6
REMARK    6  A    between atoms: C_9  and  C_10
REMARK    7  A    between atoms: C_10  and  N_11
REMARK    8  A    between atoms: N_11  and  C_12
REMARK    9  A    between atoms: C_12  and  C_13
REMARK                            x       y       z     vdW  Elec       q    Type
REMARK                         _______ _______ _______ _____ _____    ______ ____
ROOT
ATOM      1  C   UNL     1      48.201   6.727  13.063  0.00  0.00    +0.000 C 
ENDROOT
BRANCH   1   2
ATOM      2  C   UNL     1      47.081   5.876  12.515  0.00  0.00    +0.000 A 
ATOM      3  C   UNL     1      46.379   6.275  11.382  0.00  0.00    +0.000 A 
ATOM      4  C   UNL     1      45.388   5.441  10.881  0.00  0.00    +0.000 A 
ATOM      5  C   UNL     1      45.128   4.219  11.508  0.00  0.00    +0.000 A 
ATOM      6  C   UNL     1      45.873   3.909  12.638  0.00  0.00    +0.000 A 
ATOM      7  N   UNL     1      46.838   4.702  13.148  0.00  0.00    +0.000 NA
BRANCH   5   8
ATOM      8  C   UNL     1      44.079   3.276  10.995  0.00  0.00    +0.000 C 
BRANCH   8   9
ATOM      9  N   UNL     1      44.627   2.378   9.983  0.00  0.00    +0.000 NA
ATOM     10  H   UNL     1      44.075   1.519   9.952  0.00  0.00    +0.000 HD
BRANCH   9  11
ATOM     11  C   UNL     1      44.551   2.994   8.657  0.00  0.00    +0.000 C 
BRANCH  11  12
ATOM     12  C   UNL     1      45.835   2.734   7.943  0.00  0.00    +0.000 A 
ATOM     13  C   UNL     1      46.608   3.610   7.208  0.00  0.00    +0.000 A 
ATOM     14  N   UNL     1      47.673   2.874   6.770  0.00  0.00    +0.000 N 
ATOM     15  C   UNL     1      47.518   1.603   7.245  0.00  0.00    +0.000 A 
ATOM     16  N   UNL     1      46.421   1.485   7.958  0.00  0.00    +0.000 NA
ATOM     17  H   UNL     1      48.441   3.205   6.203  0.00  0.00    +0.000 HD
ENDBRANCH  11  12
ENDBRANCH   9  11
ENDBRANCH   8   9
ENDBRANCH   5   8
ENDBRANCH   1   2
BRANCH   1  18
ATOM     18  N   UNL     1      48.673   6.279  14.385  0.00  0.00    +0.000 NA
ATOM     19  H   UNL     1      48.260   5.378  14.603  0.00  0.00    +0.000 HD
BRANCH  18  20
ATOM     20  C   UNL     1      48.275   7.244  15.424  0.00  0.00    +0.000 C 
BRANCH  20  21
ATOM     21  C   UNL     1      49.042   6.940  16.695  0.00  0.00    +0.000 A 
ATOM     22  C   UNL     1      50.039   7.731  17.250  0.00  0.00    +0.000 A 
ATOM     23  S   UNL     1      50.660   7.108  18.715  0.00  0.00    +0.000 S 
ATOM     24  C   UNL     1      49.601   5.777  18.671  0.00  0.00    +0.000 A 
ATOM     25  N   UNL     1      49.588   4.842  19.659  0.00  0.00    +0.000 NA
ATOM     26  C   UNL     1      48.707   3.910  19.498  0.00  0.00    +0.000 A 
ATOM     27  N   UNL     1      47.846   3.817  18.433  0.00  0.00    +0.000 N 
ATOM     28  C   UNL     1      47.837   4.725  17.400  0.00  0.00    +0.000 A 
ATOM     29  O   UNL     1      47.081   4.617  16.439  0.00  0.00    +0.000 OA
ATOM     30  C   UNL     1      48.797   5.801  17.547  0.00  0.00    +0.000 A 
ATOM     31  H   UNL     1      47.184   3.057  18.369  0.00  0.00    +0.000 HD
ENDBRANCH  20  21
BRANCH  20  33
ATOM     32  N   UNL     1      48.827   9.863  14.672  0.00  0.00    +0.000 NA
ATOM     33  C   UNL     1      48.576   8.675  15.013  0.00  0.00    +0.000 C 
ENDBRANCH  20  33
ENDBRANCH  18  20
ENDBRANCH   1  18
TORSDOF 9
ENDMDL
