MODEL 1
REMARK VINA RESULT:    -8.722      0.000      0.000
REMARK INTER + INTRA:         -13.563
REMARK INTER:                 -12.291
REMARK INTRA:                  -1.272
REMARK UNBOUND:                -1.272
REMARK  Name = 
REMARK  8 active torsions:
REMARK  status: ('A' for Active; 'I' for Inactive)
REMARK    1  A    between atoms: C_1  and  C_2
REMARK    2  A    between atoms: C_2  and  N_3
REMARK    3  A    between atoms: C_2  and  C_16
REMARK    4  A    between atoms: C_4  and  C_6
REMARK    5  A    between atoms: C_19  and  C_20
REMARK    6  A    between atoms: C_20  and  N_21
REMARK    7  A    between atoms: N_21  and  C_22
REMARK    8  A    between atoms: C_22  and  C_23
REMARK                            x       y       z     vdW  Elec       q    Type
REMARK                         _______ _______ _______ _____ _____    ______ ____
ROOT
ATOM      1  C   UNL     1      48.016   8.370  12.659  0.00  0.00    +0.000 C 
ATOM      2  C   UNL     1      48.091   6.956  13.241  0.00  0.00    +0.000 C 
ENDROOT
BRANCH   2   3
ATOM      3  C   UNL     1      46.986   6.092  12.649  0.00  0.00    +0.000 A 
ATOM      4  C   UNL     1      46.455   5.018  13.374  0.00  0.00    +0.000 A 
ATOM      5  C   UNL     1      45.381   4.279  12.863  0.00  0.00    +0.000 A 
ATOM      6  C   UNL     1      44.807   4.603  11.623  0.00  0.00    +0.000 A 
ATOM      7  C   UNL     1      45.366   5.647  10.879  0.00  0.00    +0.000 A 
ATOM      8  C   UNL     1      46.445   6.379  11.384  0.00  0.00    +0.000 A 
BRANCH   6   9
ATOM      9  C   UNL     1      43.594   3.854  11.114  0.00  0.00    +0.000 C 
BRANCH   9  10
ATOM     10  N   UNL     1      43.782   3.465   9.717  0.00  0.00    +0.000 NA
ATOM     11  H   UNL     1      44.319   4.196   9.247  0.00  0.00    +0.000 HD
BRANCH  10  12
ATOM     12  C   UNL     1      44.521   2.204   9.590  0.00  0.00    +0.000 C 
BRANCH  12  13
ATOM     13  C   UNL     1      45.562   2.263   8.484  0.00  0.00    +0.000 A 
ATOM     14  C   UNL     1      45.748   3.435   7.748  0.00  0.00    +0.000 A 
ATOM     15  C   UNL     1      46.713   3.461   6.744  0.00  0.00    +0.000 A 
ATOM     16  C   UNL     1      47.457   2.316   6.490  0.00  0.00    +0.000 A 
ATOM     17  C   UNL     1      47.211   1.192   7.258  0.00  0.00    +0.000 A 
ATOM     18  N   UNL     1      46.289   1.141   8.248  0.00  0.00    +0.000 NA
ENDBRANCH  12  13
ENDBRANCH  10  12
ENDBRANCH   9  10
ENDBRANCH   6   9
ENDBRANCH   2   3
BRANCH   2  19
ATOM     19  N   UNL     1      47.972   6.949  14.691  0.00  0.00    +0.000 N 
ATOM     20  C   UNL     1      49.043   6.819  15.538  0.00  0.00    +0.000 C 
ATOM     21  O   UNL     1      50.200   6.723  15.143  0.00  0.00    +0.000 OA
ATOM     22  H   UNL     1      47.058   6.682  15.048  0.00  0.00    +0.000 HD
BRANCH  20  23
ATOM     23  C   UNL     1      48.734   6.881  16.969  0.00  0.00    +0.000 A 
ATOM     24  C   UNL     1      48.356   8.085  17.547  0.00  0.00    +0.000 A 
ATOM     25  S   UNL     1      48.020   7.962  19.216  0.00  0.00    +0.000 S 
ATOM     26  C   UNL     1      48.411   6.306  19.229  0.00  0.00    +0.000 A 
ATOM     27  N   UNL     1      48.371   5.582  20.380  0.00  0.00    +0.000 NA
ATOM     28  C   UNL     1      48.723   4.345  20.243  0.00  0.00    +0.000 A 
ATOM     29  N   UNL     1      49.095   3.761  19.059  0.00  0.00    +0.000 N 
ATOM     30  C   UNL     1      49.110   4.446  17.869  0.00  0.00    +0.000 A 
ATOM     31  O   UNL     1      49.379   3.880  16.814  0.00  0.00    +0.000 OA
ATOM     32  C   UNL     1      48.755   5.847  17.975  0.00  0.00    +0.000 A 
ATOM     33  H   UNL     1      49.335   2.783  19.019  0.00  0.00    +0.000 HD
ENDBRANCH  20  23
ENDBRANCH   2  19
TORSDOF 7
ENDMDL
MODEL 2
REMARK VINA RESULT:    -8.362      1.333      2.065
REMARK INTER + INTRA:         -13.056
REMARK INTER:                 -11.691
REMARK INTRA:                  -1.364
REMARK UNBOUND:                -1.272
REMARK  Name = 
REMARK  8 active torsions:
REMARK  status: ('A' for Active; 'I' for Inactive)
REMARK    1  A    between atoms: C_1  and  C_2
REMARK    2  A    between atoms: C_2  and  N_3
REMARK    3  A    between atoms: C_2  and  C_16
REMARK    4  A    between atoms: C_4  and  C_6
REMARK    5  A    between atoms: C_19  and  C_20
REMARK    6  A    between atoms: C_20  and  N_21
REMARK    7  A    between atoms: N_21  and  C_22
REMARK    8  A    between atoms: C_22  and  C_23
REMARK                            x       y       z     vdW  Elec       q    Type
REMARK                         _______ _______ _______ _____ _____    ______ ____
ROOT
ATOM      1  C   UNL     1      47.674   8.465  13.121  0.00  0.00    +0.000 C 
ATOM      2  C   UNL     1      47.911   6.990  13.454  0.00  0.00    +0.000 C 
ENDROOT
BRANCH   2   3
ATOM      3  C   UNL     1      46.846   6.130  12.790  0.00  0.00    +0.000 A 
ATOM      4  C   UNL     1      46.246   5.074  13.486  0.00  0.00    +0.000 A 
ATOM      5  C   UNL     1      45.206   4.339  12.903  0.00  0.00    +0.000 A 
ATOM      6  C   UNL     1      44.736   4.649  11.617  0.00  0.00    +0.000 A 
ATOM      7  C   UNL     1      45.365   5.676  10.904  0.00  0.00    +0.000 A 
ATOM      8  C   UNL     1      46.410   6.403  11.482  0.00  0.00    +0.000 A 
BRANCH   6   9
ATOM      9  C   UNL     1      43.557   3.907  11.025  0.00  0.00    +0.000 C 
BRANCH   9  10
ATOM     10  N   UNL     1      43.834   3.528   9.640  0.00  0.00    +0.000 NA
ATOM     11  H   UNL     1      44.431   4.244   9.223  0.00  0.00    +0.000 HD
BRANCH  10  12
ATOM     12  C   UNL     1      44.533   2.242   9.549  0.00  0.00    +0.000 C 
BRANCH  12  13
ATOM     13  C   UNL     1      45.587   2.243   8.453  0.00  0.00    +0.000 A 
ATOM     14  C   UNL     1      45.815   3.391   7.691  0.00  0.00    +0.000 A 
ATOM     15  C   UNL     1      46.791   3.363   6.697  0.00  0.00    +0.000 A 
ATOM     16  C   UNL     1      47.503   2.191   6.479  0.00  0.00    +0.000 A 
ATOM     17  C   UNL     1      47.216   1.094   7.272  0.00  0.00    +0.000 A 
ATOM     18  N   UNL     1      46.282   1.094   8.252  0.00  0.00    +0.000 NA
ENDBRANCH  12  13
ENDBRANCH  10  12
ENDBRANCH   9  10
ENDBRANCH   6   9
ENDBRANCH   2   3
BRANCH   2  19
ATOM     19  N   UNL     1      47.897   6.739  14.887  0.00  0.00    +0.000 N 
ATOM     20  C   UNL     1      49.033   6.589  15.641  0.00  0.00    +0.000 C 
ATOM     21  O   UNL     1      50.163   6.679  15.173  0.00  0.00    +0.000 OA
ATOM     22  H   UNL     1      47.041   6.325  15.245  0.00  0.00    +0.000 HD
BRANCH  20  23
ATOM     23  C   UNL     1      48.822   6.388  17.077  0.00  0.00    +0.000 A 
ATOM     24  C   UNL     1      49.070   5.148  17.649  0.00  0.00    +0.000 A 
ATOM     25  S   UNL     1      48.786   5.107  19.331  0.00  0.00    +0.000 S 
ATOM     26  C   UNL     1      48.281   6.732  19.342  0.00  0.00    +0.000 A 
ATOM     27  N   UNL     1      47.854   7.329  20.487  0.00  0.00    +0.000 NA
ATOM     28  C   UNL     1      47.473   8.556  20.338  0.00  0.00    +0.000 A 
ATOM     29  N   UNL     1      47.495   9.246  19.152  0.00  0.00    +0.000 N 
ATOM     30  C   UNL     1      47.956   8.693  17.982  0.00  0.00    +0.000 A 
ATOM     31  O   UNL     1      48.031   9.355  16.952  0.00  0.00    +0.000 OA
ATOM     32  C   UNL     1      48.364   7.306  18.091  0.00  0.00    +0.000 A 
ATOM     33  H   UNL     1      47.205  10.210  19.110  0.00  0.00    +0.000 HD
ENDBRANCH  20  23
ENDBRANCH   2  19
TORSDOF 7
ENDMDL
MODEL 3
REMARK VINA RESULT:    -7.531      2.965      8.573
REMARK INTER + INTRA:         -11.885
REMARK INTER:                 -10.168
REMARK INTRA:                  -1.717
REMARK UNBOUND:                -1.272
REMARK  Name = 
REMARK  8 active torsions:
REMARK  status: ('A' for Active; 'I' for Inactive)
REMARK    1  A    between atoms: C_1  and  C_2
REMARK    2  A    between atoms: C_2  and  N_3
REMARK    3  A    between atoms: C_2  and  C_16
REMARK    4  A    between atoms: C_4  and  C_6
REMARK    5  A    between atoms: C_19  and  C_20
REMARK    6  A    between atoms: C_20  and  N_21
REMARK    7  A    between atoms: N_21  and  C_22
REMARK    8  A    between atoms: C_22  and  C_23
REMARK                            x       y       z     vdW  Elec       q    Type
REMARK                         _______ _______ _______ _____ _____    ______ ____
ROOT
ATOM      1  C   UNL     1      49.133   7.750  11.383  0.00  0.00    +0.000 C 
ATOM      2  C   UNL     1      47.852   7.732  12.220  0.00  0.00    +0.000 C 
ENDROOT
BRANCH   2   3
ATOM      3  C   UNL     1      48.198   7.810  13.701  0.00  0.00    +0.000 A 
ATOM      4  C   UNL     1      47.944   8.976  14.432  0.00  0.00    +0.000 A 
ATOM      5  C   UNL     1      48.184   9.015  15.811  0.00  0.00    +0.000 A 
ATOM      6  C   UNL     1      48.672   7.888  16.491  0.00  0.00    +0.000 A 
ATOM      7  C   UNL     1      48.968   6.737  15.753  0.00  0.00    +0.000 A 
ATOM      8  C   UNL     1      48.738   6.701  14.375  0.00  0.00    +0.000 A 
BRANCH   6   9
ATOM      9  C   UNL     1      48.850   7.910  17.994  0.00  0.00    +0.000 C 
BRANCH   9  10
ATOM     10  N   UNL     1      47.631   7.451  18.660  0.00  0.00    +0.000 NA
ATOM     11  H   UNL     1      46.940   7.221  17.945  0.00  0.00    +0.000 HD
BRANCH  10  12
ATOM     12  C   UNL     1      47.864   6.251  19.472  0.00  0.00    +0.000 C 
BRANCH  12  13
ATOM     13  C   UNL     1      48.026   5.007  18.613  0.00  0.00    +0.000 A 
ATOM     14  C   UNL     1      49.235   4.308  18.599  0.00  0.00    +0.000 A 
ATOM     15  C   UNL     1      49.352   3.169  17.807  0.00  0.00    +0.000 A 
ATOM     16  C   UNL     1      48.268   2.762  17.040  0.00  0.00    +0.000 A 
ATOM     17  C   UNL     1      47.105   3.509  17.104  0.00  0.00    +0.000 A 
ATOM     18  N   UNL     1      46.958   4.614  17.873  0.00  0.00    +0.000 NA
ENDBRANCH  12  13
ENDBRANCH  10  12
ENDBRANCH   9  10
ENDBRANCH   6   9
ENDBRANCH   2   3
BRANCH   2  19
ATOM     19  N   UNL     1      47.054   6.538  11.983  0.00  0.00    +0.000 N 
ATOM     20  C   UNL     1      45.690   6.501  12.116  0.00  0.00    +0.000 C 
ATOM     21  O   UNL     1      45.020   7.481  12.423  0.00  0.00    +0.000 OA
ATOM     22  H   UNL     1      47.557   5.659  12.068  0.00  0.00    +0.000 HD
BRANCH  20  23
ATOM     23  C   UNL     1      45.053   5.222  11.789  0.00  0.00    +0.000 A 
ATOM     24  C   UNL     1      44.349   4.528  12.763  0.00  0.00    +0.000 A 
ATOM     25  S   UNL     1      43.664   3.070  12.197  0.00  0.00    +0.000 S 
ATOM     26  C   UNL     1      44.324   3.299  10.645  0.00  0.00    +0.000 A 
ATOM     27  N   UNL     1      44.146   2.375   9.662  0.00  0.00    +0.000 NA
ATOM     28  C   UNL     1      44.729   2.668   8.545  0.00  0.00    +0.000 A 
ATOM     29  N   UNL     1      45.461   3.806   8.316  0.00  0.00    +0.000 N 
ATOM     30  C   UNL     1      45.630   4.781   9.268  0.00  0.00    +0.000 A 
ATOM     31  O   UNL     1      46.229   5.821   9.014  0.00  0.00    +0.000 OA
ATOM     32  C   UNL     1      45.022   4.484  10.551  0.00  0.00    +0.000 A 
ATOM     33  H   UNL     1      45.870   3.984   7.413  0.00  0.00    +0.000 HD
ENDBRANCH  20  23
ENDBRANCH   2  19
TORSDOF 7
ENDMDL
MODEL 4
REMARK VINA RESULT:    -7.313      3.302      8.186
REMARK INTER + INTRA:         -11.578
REMARK INTER:                 -10.000
REMARK INTRA:                  -1.578
REMARK UNBOUND:                -1.272
REMARK  Name = 
REMARK  8 active torsions:
REMARK  status: ('A' for Active; 'I' for Inactive)
REMARK    1  A    between atoms: C_1  and  C_2
REMARK    2  A    between atoms: C_2  and  N_3
REMARK    3  A    between atoms: C_2  and  C_16
REMARK    4  A    between atoms: C_4  and  C_6
REMARK    5  A    between atoms: C_19  and  C_20
REMARK    6  A    between atoms: C_20  and  N_21
REMARK    7  A    between atoms: N_21  and  C_22
REMARK    8  A    between atoms: C_22  and  C_23
REMARK                            x       y       z     vdW  Elec       q    Type
REMARK                         _______ _______ _______ _____ _____    ______ ____
ROOT
ATOM      1  C   UNL     1      49.799   8.106  11.501  0.00  0.00    +0.000 C 
ATOM      2  C   UNL     1      48.368   8.067  12.044  0.00  0.00    +0.000 C 
ENDROOT
BRANCH   2   3
ATOM      3  C   UNL     1      48.392   7.963  13.562  0.00  0.00    +0.000 A 
ATOM      4  C   UNL     1      48.632   6.734  14.189  0.00  0.00    +0.000 A 
ATOM      5  C   UNL     1      48.738   6.657  15.582  0.00  0.00    +0.000 A 
ATOM      6  C   UNL     1      48.619   7.806  16.380  0.00  0.00    +0.000 A 
ATOM      7  C   UNL     1      48.336   9.026  15.758  0.00  0.00    +0.000 A 
ATOM      8  C   UNL     1      48.219   9.102  14.367  0.00  0.00    +0.000 A 
BRANCH   6   9
ATOM      9  C   UNL     1      48.818   7.731  17.879  0.00  0.00    +0.000 C 
BRANCH   9  10
ATOM     10  N   UNL     1      47.674   7.079  18.515  0.00  0.00    +0.000 NA
ATOM     11  H   UNL     1      47.044   6.746  17.784  0.00  0.00    +0.000 HD
BRANCH  10  12
ATOM     12  C   UNL     1      48.078   5.927  19.328  0.00  0.00    +0.000 C 
BRANCH  12  13
ATOM     13  C   UNL     1      48.386   4.707  18.474  0.00  0.00    +0.000 A 
ATOM     14  C   UNL     1      47.374   4.077  17.748  0.00  0.00    +0.000 A 
ATOM     15  C   UNL     1      47.689   2.965  16.970  0.00  0.00    +0.000 A 
ATOM     16  C   UNL     1      48.998   2.502  16.946  0.00  0.00    +0.000 A 
ATOM     17  C   UNL     1      49.944   3.178  17.697  0.00  0.00    +0.000 A 
ATOM     18  N   UNL     1      49.671   4.267  18.453  0.00  0.00    +0.000 NA
ENDBRANCH  12  13
ENDBRANCH  10  12
ENDBRANCH   9  10
ENDBRANCH   6   9
ENDBRANCH   2   3
BRANCH   2  19
ATOM     19  N   UNL     1      47.603   6.953  11.504  0.00  0.00    +0.000 N 
ATOM     20  C   UNL     1      46.234   6.941  11.430  0.00  0.00    +0.000 C 
ATOM     21  O   UNL     1      45.535   7.883  11.790  0.00  0.00    +0.000 OA
ATOM     22  H   UNL     1      48.079   6.055  11.520  0.00  0.00    +0.000 HD
BRANCH  20  23
ATOM     23  C   UNL     1      45.641   5.751  10.814  0.00  0.00    +0.000 A 
ATOM     24  C   UNL     1      45.781   5.532   9.450  0.00  0.00    +0.000 A 
ATOM     25  S   UNL     1      45.040   4.091   8.914  0.00  0.00    +0.000 S 
ATOM     26  C   UNL     1      44.471   3.736  10.479  0.00  0.00    +0.000 A 
ATOM     27  N   UNL     1      43.712   2.632  10.717  0.00  0.00    +0.000 NA
ATOM     28  C   UNL     1      43.327   2.508  11.946  0.00  0.00    +0.000 A 
ATOM     29  N   UNL     1      43.645   3.376  12.960  0.00  0.00    +0.000 N 
ATOM     30  C   UNL     1      44.442   4.478  12.769  0.00  0.00    +0.000 A 
ATOM     31  O   UNL     1      44.768   5.197  13.708  0.00  0.00    +0.000 OA
ATOM     32  C   UNL     1      44.872   4.681  11.399  0.00  0.00    +0.000 A 
ATOM     33  H   UNL     1      43.331   3.206  13.902  0.00  0.00    +0.000 HD
ENDBRANCH  20  23
ENDBRANCH   2  19
TORSDOF 7
ENDMDL
MODEL 5
REMARK VINA RESULT:    -7.195      2.622      4.415
REMARK INTER + INTRA:         -11.412
REMARK INTER:                 -10.166
REMARK INTRA:                  -1.245
REMARK UNBOUND:                -1.272
REMARK  Name = 
REMARK  8 active torsions:
REMARK  status: ('A' for Active; 'I' for Inactive)
REMARK    1  A    between atoms: C_1  and  C_2
REMARK    2  A    between atoms: C_2  and  N_3
REMARK    3  A    between atoms: C_2  and  C_16
REMARK    4  A    between atoms: C_4  and  C_6
REMARK    5  A    between atoms: C_19  and  C_20
REMARK    6  A    between atoms: C_20  and  N_21
REMARK    7  A    between atoms: N_21  and  C_22
REMARK    8  A    between atoms: C_22  and  C_23
REMARK                            x       y       z     vdW  Elec       q    Type
REMARK                         _______ _______ _______ _____ _____    ______ ____
ROOT
ATOM      1  C   UNL     1      47.580   3.764  15.615  0.00  0.00    +0.000 C 
ATOM      2  C   UNL     1      47.187   5.106  14.991  0.00  0.00    +0.000 C 
ENDROOT
BRANCH   2   3
ATOM      3  C   UNL     1      46.276   4.874  13.794  0.00  0.00    +0.000 A 
ATOM      4  C   UNL     1      46.132   3.595  13.244  0.00  0.00    +0.000 A 
ATOM      5  C   UNL     1      45.230   3.369  12.198  0.00  0.00    +0.000 A 
ATOM      6  C   UNL     1      44.442   4.413  11.686  0.00  0.00    +0.000 A 
ATOM      7  C   UNL     1      44.618   5.700  12.205  0.00  0.00    +0.000 A 
ATOM      8  C   UNL     1      45.527   5.928  13.242  0.00  0.00    +0.000 A 
BRANCH   6   9
ATOM      9  C   UNL     1      43.408   4.147  10.613  0.00  0.00    +0.000 C 
BRANCH   9  10
ATOM     10  N   UNL     1      43.958   3.272   9.579  0.00  0.00    +0.000 NA
ATOM     11  H   UNL     1      43.184   2.872   9.048  0.00  0.00    +0.000 HD
BRANCH  10  12
ATOM     12  C   UNL     1      44.824   3.999   8.644  0.00  0.00    +0.000 C 
BRANCH  12  13
ATOM     13  C   UNL     1      45.769   3.068   7.901  0.00  0.00    +0.000 A 
ATOM     14  C   UNL     1      46.408   3.491   6.734  0.00  0.00    +0.000 A 
ATOM     15  C   UNL     1      47.272   2.618   6.079  0.00  0.00    +0.000 A 
ATOM     16  C   UNL     1      47.467   1.342   6.594  0.00  0.00    +0.000 A 
ATOM     17  C   UNL     1      46.794   0.996   7.752  0.00  0.00    +0.000 A 
ATOM     18  N   UNL     1      45.957   1.827   8.418  0.00  0.00    +0.000 NA
ENDBRANCH  12  13
ENDBRANCH  10  12
ENDBRANCH   9  10
ENDBRANCH   6   9
ENDBRANCH   2   3
BRANCH   2  19
ATOM     19  N   UNL     1      48.345   5.876  14.563  0.00  0.00    +0.000 N 
ATOM     20  C   UNL     1      48.970   6.805  15.354  0.00  0.00    +0.000 C 
ATOM     21  O   UNL     1      48.621   7.049  16.505  0.00  0.00    +0.000 OA
ATOM     22  H   UNL     1      48.454   5.969  13.557  0.00  0.00    +0.000 HD
BRANCH  20  23
ATOM     23  C   UNL     1      50.150   7.449  14.770  0.00  0.00    +0.000 A 
ATOM     24  C   UNL     1      51.354   7.452  15.461  0.00  0.00    +0.000 A 
ATOM     25  S   UNL     1      52.618   8.231  14.620  0.00  0.00    +0.000 S 
ATOM     26  C   UNL     1      51.587   8.627  13.325  0.00  0.00    +0.000 A 
ATOM     27  N   UNL     1      52.037   9.346  12.261  0.00  0.00    +0.000 NA
ATOM     28  C   UNL     1      51.135   9.597  11.369  0.00  0.00    +0.000 A 
ATOM     29  N   UNL     1      49.829   9.182  11.434  0.00  0.00    +0.000 N 
ATOM     30  C   UNL     1      49.345   8.421  12.470  0.00  0.00    +0.000 A 
ATOM     31  O   UNL     1      48.191   8.004  12.468  0.00  0.00    +0.000 OA
ATOM     32  C   UNL     1      50.311   8.141  13.515  0.00  0.00    +0.000 A 
ATOM     33  H   UNL     1      49.182   9.393  10.691  0.00  0.00    +0.000 HD
ENDBRANCH  20  23
ENDBRANCH   2  19
TORSDOF 7
ENDMDL
MODEL 6
REMARK VINA RESULT:    -7.153      3.802      5.428
REMARK INTER + INTRA:         -11.352
REMARK INTER:                 -10.285
REMARK INTRA:                  -1.066
REMARK UNBOUND:                -1.272
REMARK  Name = 
REMARK  8 active torsions:
REMARK  status: ('A' for Active; 'I' for Inactive)
REMARK    1  A    between atoms: C_1  and  C_2
REMARK    2  A    between atoms: C_2  and  N_3
REMARK    3  A    between atoms: C_2  and  C_16
REMARK    4  A    between atoms: C_4  and  C_6
REMARK    5  A    between atoms: C_19  and  C_20
REMARK    6  A    between atoms: C_20  and  N_21
REMARK    7  A    between atoms: N_21  and  C_22
REMARK    8  A    between atoms: C_22  and  C_23
REMARK                            x       y       z     vdW  Elec       q    Type
REMARK                         _______ _______ _______ _____ _____    ______ ____
ROOT
ATOM      1  C   UNL     1      48.615   6.400  15.199  0.00  0.00    +0.000 C 
ATOM      2  C   UNL     1      48.378   7.023  13.821  0.00  0.00    +0.000 C 
ENDROOT
BRANCH   2   3
ATOM      3  C   UNL     1      47.305   6.241  13.076  0.00  0.00    +0.000 A 
ATOM      4  C   UNL     1      46.706   5.118  13.660  0.00  0.00    +0.000 A 
ATOM      5  C   UNL     1      45.660   4.452  13.009  0.00  0.00    +0.000 A 
ATOM      6  C   UNL     1      45.183   4.899  11.767  0.00  0.00    +0.000 A 
ATOM      7  C   UNL     1      45.811   5.993  11.163  0.00  0.00    +0.000 A 
ATOM      8  C   UNL     1      46.862   6.652  11.807  0.00  0.00    +0.000 A 
BRANCH   6   9
ATOM      9  C   UNL     1      43.998   4.227  11.107  0.00  0.00    +0.000 C 
BRANCH   9  10
ATOM     10  N   UNL     1      44.287   3.946   9.701  0.00  0.00    +0.000 NA
ATOM     11  H   UNL     1      45.090   4.508   9.418  0.00  0.00    +0.000 HD
BRANCH  10  12
ATOM     12  C   UNL     1      44.617   2.534   9.477  0.00  0.00    +0.000 C 
BRANCH  12  13
ATOM     13  C   UNL     1      45.633   2.357   8.360  0.00  0.00    +0.000 A 
ATOM     14  C   UNL     1      45.880   3.393   7.457  0.00  0.00    +0.000 A 
ATOM     15  C   UNL     1      46.820   3.204   6.447  0.00  0.00    +0.000 A 
ATOM     16  C   UNL     1      47.480   1.985   6.355  0.00  0.00    +0.000 A 
ATOM     17  C   UNL     1      47.177   1.006   7.284  0.00  0.00    +0.000 A 
ATOM     18  N   UNL     1      46.277   1.164   8.283  0.00  0.00    +0.000 NA
ENDBRANCH  12  13
ENDBRANCH  10  12
ENDBRANCH   9  10
ENDBRANCH   6   9
ENDBRANCH   2   3
BRANCH   2  19
ATOM     19  N   UNL     1      49.588   7.054  13.013  0.00  0.00    +0.000 N 
ATOM     20  C   UNL     1      50.015   8.166  12.333  0.00  0.00    +0.000 C 
ATOM     21  O   UNL     1      49.424   9.240  12.369  0.00  0.00    +0.000 OA
ATOM     22  H   UNL     1      49.907   6.149  12.678  0.00  0.00    +0.000 HD
BRANCH  20  23
ATOM     23  C   UNL     1      51.281   8.022  11.610  0.00  0.00    +0.000 A 
ATOM     24  C   UNL     1      51.311   7.372  10.384  0.00  0.00    +0.000 A 
ATOM     25  S   UNL     1      52.866   7.315   9.683  0.00  0.00    +0.000 S 
ATOM     26  C   UNL     1      53.557   8.117  11.016  0.00  0.00    +0.000 A 
ATOM     27  N   UNL     1      54.894   8.358  11.076  0.00  0.00    +0.000 NA
ATOM     28  C   UNL     1      55.280   8.948  12.160  0.00  0.00    +0.000 A 
ATOM     29  N   UNL     1      54.450   9.333  13.183  0.00  0.00    +0.000 N 
ATOM     30  C   UNL     1      53.090   9.144  13.143  0.00  0.00    +0.000 A 
ATOM     31  O   UNL     1      52.364   9.562  14.039  0.00  0.00    +0.000 OA
ATOM     32  C   UNL     1      52.611   8.455  11.960  0.00  0.00    +0.000 A 
ATOM     33  H   UNL     1      54.814   9.811  13.992  0.00  0.00    +0.000 HD
ENDBRANCH  20  23
ENDBRANCH   2  19
TORSDOF 7
ENDMDL
MODEL 7
REMARK VINA RESULT:    -6.951      3.812      5.615
REMARK INTER + INTRA:         -11.067
REMARK INTER:                  -9.854
REMARK INTRA:                  -1.213
REMARK UNBOUND:                -1.272
REMARK  Name = 
REMARK  8 active torsions:
REMARK  status: ('A' for Active; 'I' for Inactive)
REMARK    1  A    between atoms: C_1  and  C_2
REMARK    2  A    between atoms: C_2  and  N_3
REMARK    3  A    between atoms: C_2  and  C_16
REMARK    4  A    between atoms: C_4  and  C_6
REMARK    5  A    between atoms: C_19  and  C_20
REMARK    6  A    between atoms: C_20  and  N_21
REMARK    7  A    between atoms: N_21  and  C_22
REMARK    8  A    between atoms: C_22  and  C_23
REMARK                            x       y       z     vdW  Elec       q    Type
REMARK                         _______ _______ _______ _____ _____    ______ ____
ROOT
ATOM      1  C   UNL     1      49.015   6.542  15.756  0.00  0.00    +0.000 C 
ATOM      2  C   UNL     1      48.941   7.378  14.476  0.00  0.00    +0.000 C 
ENDROOT
BRANCH   2   3
ATOM      3  C   UNL     1      47.925   6.771  13.518  0.00  0.00    +0.000 A 
ATOM      4  C   UNL     1      47.279   5.570  13.831  0.00  0.00    +0.000 A 
ATOM      5  C   UNL     1      46.284   5.059  12.989  0.00  0.00    +0.000 A 
ATOM      6  C   UNL     1      45.904   5.741  11.823  0.00  0.00    +0.000 A 
ATOM      7  C   UNL     1      46.580   6.919  11.487  0.00  0.00    +0.000 A 
ATOM      8  C   UNL     1      47.581   7.424  12.322  0.00  0.00    +0.000 A 
BRANCH   6   9
ATOM      9  C   UNL     1      44.770   5.229  10.961  0.00  0.00    +0.000 C 
BRANCH   9  10
ATOM     10  N   UNL     1      45.175   5.186   9.556  0.00  0.00    +0.000 NA
ATOM     11  H   UNL     1      46.183   5.032   9.515  0.00  0.00    +0.000 HD
BRANCH  10  12
ATOM     12  C   UNL     1      44.517   4.096   8.826  0.00  0.00    +0.000 C 
BRANCH  12  13
ATOM     13  C   UNL     1      45.518   3.225   8.083  0.00  0.00    +0.000 A 
ATOM     14  C   UNL     1      45.776   1.921   8.511  0.00  0.00    +0.000 A 
ATOM     15  C   UNL     1      46.694   1.145   7.807  0.00  0.00    +0.000 A 
ATOM     16  C   UNL     1      47.340   1.691   6.705  0.00  0.00    +0.000 A 
ATOM     17  C   UNL     1      47.034   2.992   6.347  0.00  0.00    +0.000 A 
ATOM     18  N   UNL     1      46.138   3.766   7.004  0.00  0.00    +0.000 NA
ENDBRANCH  12  13
ENDBRANCH  10  12
ENDBRANCH   9  10
ENDBRANCH   6   9
ENDBRANCH   2   3
BRANCH   2  19
ATOM     19  N   UNL     1      50.228   7.474  13.803  0.00  0.00    +0.000 N 
ATOM     20  C   UNL     1      50.919   8.648  13.656  0.00  0.00    +0.000 C 
ATOM     21  O   UNL     1      50.522   9.720  14.103  0.00  0.00    +0.000 OA
ATOM     22  H   UNL     1      50.425   6.729  13.141  0.00  0.00    +0.000 HD
BRANCH  20  23
ATOM     23  C   UNL     1      52.221   8.542  12.991  0.00  0.00    +0.000 A 
ATOM     24  C   UNL     1      53.376   8.917  13.662  0.00  0.00    +0.000 A 
ATOM     25  S   UNL     1      54.796   8.709  12.739  0.00  0.00    +0.000 S 
ATOM     26  C   UNL     1      53.909   8.152  11.398  0.00  0.00    +0.000 A 
ATOM     27  N   UNL     1      54.528   7.827  10.230  0.00  0.00    +0.000 NA
ATOM     28  C   UNL     1      53.724   7.448   9.291  0.00  0.00    +0.000 A 
ATOM     29  N   UNL     1      52.361   7.349   9.414  0.00  0.00    +0.000 N 
ATOM     30  C   UNL     1      51.703   7.628  10.587  0.00  0.00    +0.000 A 
ATOM     31  O   UNL     1      50.491   7.463  10.691  0.00  0.00    +0.000 OA
ATOM     32  C   UNL     1      52.557   8.091  11.663  0.00  0.00    +0.000 A 
ATOM     33  H   UNL     1      51.795   7.024   8.647  0.00  0.00    +0.000 HD
ENDBRANCH  20  23
ENDBRANCH   2  19
TORSDOF 7
ENDMDL
MODEL 8
REMARK VINA RESULT:    -6.333      3.532      8.689
REMARK INTER + INTRA:         -10.196
REMARK INTER:                  -9.383
REMARK INTRA:                  -0.813
REMARK UNBOUND:                -1.272
REMARK  Name = 
REMARK  8 active torsions:
REMARK  status: ('A' for Active; 'I' for Inactive)
REMARK    1  A    between atoms: C_1  and  C_2
REMARK    2  A    between atoms: C_2  and  N_3
REMARK    3  A    between atoms: C_2  and  C_16
REMARK    4  A    between atoms: C_4  and  C_6
REMARK    5  A    between atoms: C_19  and  C_20
REMARK    6  A    between atoms: C_20  and  N_21
REMARK    7  A    between atoms: N_21  and  C_22
REMARK    8  A    between atoms: C_22  and  C_23
REMARK                            x       y       z     vdW  Elec       q    Type
REMARK                         _______ _______ _______ _____ _____    ______ ____
ROOT
ATOM      1  C   UNL     1      49.569   7.381  13.339  0.00  0.00    +0.000 C 
ATOM      2  C   UNL     1      48.175   7.079  13.896  0.00  0.00    +0.000 C 
ENDROOT
BRANCH   2   3
ATOM      3  C   UNL     1      48.294   6.397  15.252  0.00  0.00    +0.000 A 
ATOM      4  C   UNL     1      47.772   5.114  15.453  0.00  0.00    +0.000 A 
ATOM      5  C   UNL     1      47.958   4.455  16.674  0.00  0.00    +0.000 A 
ATOM      6  C   UNL     1      48.678   5.059  17.717  0.00  0.00    +0.000 A 
ATOM      7  C   UNL     1      49.162   6.358  17.532  0.00  0.00    +0.000 A 
ATOM      8  C   UNL     1      48.967   7.020  16.316  0.00  0.00    +0.000 A 
BRANCH   6   9
ATOM      9  C   UNL     1      48.948   4.310  19.005  0.00  0.00    +0.000 C 
BRANCH   9  10
ATOM     10  N   UNL     1      50.319   3.800  19.022  0.00  0.00    +0.000 NA
ATOM     11  H   UNL     1      50.372   3.037  19.698  0.00  0.00    +0.000 HD
BRANCH  10  12
ATOM     12  C   UNL     1      50.730   3.280  17.713  0.00  0.00    +0.000 C 
BRANCH  12  13
ATOM     13  C   UNL     1      52.042   2.515  17.792  0.00  0.00    +0.000 A 
ATOM     14  C   UNL     1      52.062   1.127  17.646  0.00  0.00    +0.000 A 
ATOM     15  C   UNL     1      53.280   0.454  17.718  0.00  0.00    +0.000 A 
ATOM     16  C   UNL     1      54.443   1.179  17.946  0.00  0.00    +0.000 A 
ATOM     17  C   UNL     1      54.340   2.551  18.085  0.00  0.00    +0.000 A 
ATOM     18  N   UNL     1      53.173   3.234  18.009  0.00  0.00    +0.000 NA
ENDBRANCH  12  13
ENDBRANCH  10  12
ENDBRANCH   9  10
ENDBRANCH   6   9
ENDBRANCH   2   3
BRANCH   2  19
ATOM     19  N   UNL     1      47.397   6.230  13.005  0.00  0.00    +0.000 N 
ATOM     20  C   UNL     1      46.450   6.711  12.138  0.00  0.00    +0.000 C 
ATOM     21  O   UNL     1      46.195   7.905  12.020  0.00  0.00    +0.000 OA
ATOM     22  H   UNL     1      47.317   5.260  13.295  0.00  0.00    +0.000 HD
BRANCH  20  23
ATOM     23  C   UNL     1      45.801   5.710  11.287  0.00  0.00    +0.000 A 
ATOM     24  C   UNL     1      45.961   5.762   9.909  0.00  0.00    +0.000 A 
ATOM     25  S   UNL     1      45.148   4.509   9.083  0.00  0.00    +0.000 S 
ATOM     26  C   UNL     1      44.520   3.884  10.536  0.00  0.00    +0.000 A 
ATOM     27  N   UNL     1      43.689   2.806  10.538  0.00  0.00    +0.000 NA
ATOM     28  C   UNL     1      43.267   2.462  11.711  0.00  0.00    +0.000 A 
ATOM     29  N   UNL     1      43.612   3.086  12.884  0.00  0.00    +0.000 N 
ATOM     30  C   UNL     1      44.479   4.150  12.929  0.00  0.00    +0.000 A 
ATOM     31  O   UNL     1      44.824   4.643  13.998  0.00  0.00    +0.000 OA
ATOM     32  C   UNL     1      44.954   4.596  11.634  0.00  0.00    +0.000 A 
ATOM     33  H   UNL     1      43.265   2.750  13.768  0.00  0.00    +0.000 HD
ENDBRANCH  20  23
ENDBRANCH   2  19
TORSDOF 7
ENDMDL
MODEL 9
REMARK VINA RESULT:    -6.138      3.299      9.152
REMARK INTER + INTRA:          -9.921
REMARK INTER:                  -8.304
REMARK INTRA:                  -1.617
REMARK UNBOUND:                -1.272
REMARK  Name = 
REMARK  8 active torsions:
REMARK  status: ('A' for Active; 'I' for Inactive)
REMARK    1  A    between atoms: C_1  and  C_2
REMARK    2  A    between atoms: C_2  and  N_3
REMARK    3  A    between atoms: C_2  and  C_16
REMARK    4  A    between atoms: C_4  and  C_6
REMARK    5  A    between atoms: C_19  and  C_20
REMARK    6  A    between atoms: C_20  and  N_21
REMARK    7  A    between atoms: N_21  and  C_22
REMARK    8  A    between atoms: C_22  and  C_23
REMARK                            x       y       z     vdW  Elec       q    Type
REMARK                         _______ _______ _______ _____ _____    ______ ____
ROOT
ATOM      1  C   UNL     1      49.442   7.870  12.929  0.00  0.00    +0.000 C 
ATOM      2  C   UNL     1      48.243   7.285  13.680  0.00  0.00    +0.000 C 
ENDROOT
BRANCH   2   3
ATOM      3  C   UNL     1      48.720   6.534  14.915  0.00  0.00    +0.000 A 
ATOM      4  C   UNL     1      49.942   6.856  15.517  0.00  0.00    +0.000 A 
ATOM      5  C   UNL     1      50.339   6.222  16.701  0.00  0.00    +0.000 A 
ATOM      6  C   UNL     1      49.520   5.261  17.315  0.00  0.00    +0.000 A 
ATOM      7  C   UNL     1      48.319   4.907  16.689  0.00  0.00    +0.000 A 
ATOM      8  C   UNL     1      47.928   5.532  15.502  0.00  0.00    +0.000 A 
BRANCH   6   9
ATOM      9  C   UNL     1      49.914   4.640  18.638  0.00  0.00    +0.000 C 
BRANCH   9  10
ATOM     10  N   UNL     1      50.587   5.625  19.484  0.00  0.00    +0.000 NA
ATOM     11  H   UNL     1      51.015   6.330  18.882  0.00  0.00    +0.000 HD
BRANCH  10  12
ATOM     12  C   UNL     1      49.654   6.305  20.389  0.00  0.00    +0.000 C 
BRANCH  12  13
ATOM     13  C   UNL     1      49.063   7.557  19.761  0.00  0.00    +0.000 A 
ATOM     14  C   UNL     1      49.882   8.639  19.433  0.00  0.00    +0.000 A 
ATOM     15  C   UNL     1      49.313   9.771  18.854  0.00  0.00    +0.000 A 
ATOM     16  C   UNL     1      47.942   9.801  18.629  0.00  0.00    +0.000 A 
ATOM     17  C   UNL     1      47.197   8.691  18.985  0.00  0.00    +0.000 A 
ATOM     18  N   UNL     1      47.723   7.573  19.539  0.00  0.00    +0.000 NA
ENDBRANCH  12  13
ENDBRANCH  10  12
ENDBRANCH   9  10
ENDBRANCH   6   9
ENDBRANCH   2   3
BRANCH   2  19
ATOM     19  N   UNL     1      47.458   6.383  12.850  0.00  0.00    +0.000 N 
ATOM     20  C   UNL     1      46.468   6.805  12.001  0.00  0.00    +0.000 C 
ATOM     21  O   UNL     1      46.175   7.986  11.848  0.00  0.00    +0.000 OA
ATOM     22  H   UNL     1      47.415   5.422  13.179  0.00  0.00    +0.000 HD
BRANCH  20  23
ATOM     23  C   UNL     1      45.817   5.756  11.211  0.00  0.00    +0.000 A 
ATOM     24  C   UNL     1      45.948   5.745   9.829  0.00  0.00    +0.000 A 
ATOM     25  S   UNL     1      45.138   4.443   9.080  0.00  0.00    +0.000 S 
ATOM     26  C   UNL     1      44.551   3.877  10.574  0.00  0.00    +0.000 A 
ATOM     27  N   UNL     1      43.737   2.789  10.643  0.00  0.00    +0.000 NA
ATOM     28  C   UNL     1      43.345   2.494  11.840  0.00  0.00    +0.000 A 
ATOM     29  N   UNL     1      43.703   3.177  12.975  0.00  0.00    +0.000 N 
ATOM     30  C   UNL     1      44.554   4.255  12.952  0.00  0.00    +0.000 A 
ATOM     31  O   UNL     1      44.914   4.802  13.989  0.00  0.00    +0.000 OA
ATOM     32  C   UNL     1      44.996   4.647  11.628  0.00  0.00    +0.000 A 
ATOM     33  H   UNL     1      43.380   2.878  13.881  0.00  0.00    +0.000 HD
ENDBRANCH  20  23
ENDBRANCH   2  19
TORSDOF 7
ENDMDL
