MODEL 1
REMARK VINA RESULT:    -8.643      0.000      0.000
REMARK INTER + INTRA:         -12.168
REMARK INTER:                 -11.170
REMARK INTRA:                  -0.999
REMARK UNBOUND:                -0.999
REMARK  Name = 
REMARK  5 active torsions:
REMARK  status: ('A' for Active; 'I' for Inactive)
REMARK    1  A    between atoms: C_2  and  C_4
REMARK    2  A    between atoms: C_7  and  O_8
REMARK    3  A    between atoms: O_8  and  C_9
REMARK    4  A    between atoms: C_9  and  C_10
REMARK    5  A    between atoms: C_15  and  N_16
REMARK                            x       y       z     vdW  Elec       q    Type
REMARK                         _______ _______ _______ _____ _____    ______ ____
ROOT
ATOM      1  C   UNL     1      43.397   4.334  11.278  0.00  0.00    +0.000 C 
ENDROOT
BRANCH   1   2
ATOM      2  C   UNL     1      44.557   4.724  12.160  0.00  0.00    +0.000 A 
ATOM      3  C   UNL     1      45.369   3.731  12.714  0.00  0.00    +0.000 A 
ATOM      4  C   UNL     1      46.511   4.092  13.411  0.00  0.00    +0.000 A 
ATOM      5  F   UNL     1      47.287   3.136  13.942  0.00  0.00    +0.000 F 
ATOM      6  C   UNL     1      46.878   5.427  13.546  0.00  0.00    +0.000 A 
ATOM      7  C   UNL     1      46.099   6.453  12.998  0.00  0.00    +0.000 A 
ATOM      8  C   UNL     1      44.925   6.072  12.326  0.00  0.00    +0.000 A 
BRANCH   7   9
ATOM      9  N   UNL     1      46.483   7.772  13.111  0.00  0.00    +0.000 N 
ATOM     10  C   UNL     1      45.548   8.899  12.991  0.00  0.00    +0.000 C 
ATOM     11  C   UNL     1      45.934   9.799  11.808  0.00  0.00    +0.000 C 
ATOM     12  O   UNL     1      47.303  10.228  11.898  0.00  0.00    +0.000 OA
ATOM     13  C   UNL     1      48.181   9.090  11.896  0.00  0.00    +0.000 C 
ATOM     14  C   UNL     1      47.906   8.153  13.085  0.00  0.00    +0.000 C 
ENDBRANCH   7   9
ENDBRANCH   1   2
BRANCH   1  15
ATOM     15  O   UNL     1      43.627   4.675   9.910  0.00  0.00    +0.000 OA
BRANCH  15  19
ATOM     16  C   UNL     1      46.408   2.442   7.735  0.00  0.00    +0.000 A 
ATOM     17  C   UNL     1      45.533   1.769   8.592  0.00  0.00    +0.000 A 
ATOM     18  C   UNL     1      44.591   2.484   9.337  0.00  0.00    +0.000 A 
ATOM     19  C   UNL     1      44.512   3.874   9.234  0.00  0.00    +0.000 A 
ATOM     20  C   UNL     1      45.396   4.547   8.388  0.00  0.00    +0.000 A 
ATOM     21  C   UNL     1      46.346   3.838   7.644  0.00  0.00    +0.000 A 
BRANCH  16  23
ATOM     22  N   UNL     1      48.500   2.433   6.490  0.00  0.00    +0.000 N 
ATOM     23  C   UNL     1      47.428   1.714   6.943  0.00  0.00    +0.000 C 
ATOM     24  O   UNL     1      47.338   0.511   6.726  0.00  0.00    +0.000 OA
ATOM     25  H   UNL     1      49.235   1.904   6.039  0.00  0.00    +0.000 HD
ATOM     26  H   UNL     1      48.739   3.340   6.867  0.00  0.00    +0.000 HD
ENDBRANCH  16  23
ENDBRANCH  15  19
ENDBRANCH   1  15
TORSDOF 5
ENDMDL
MODEL 2
REMARK VINA RESULT:    -8.080      2.391      3.192
REMARK INTER + INTRA:         -11.440
REMARK INTER:                 -10.529
REMARK INTRA:                  -0.911
REMARK UNBOUND:                -0.999
REMARK  Name = 
REMARK  5 active torsions:
REMARK  status: ('A' for Active; 'I' for Inactive)
REMARK    1  A    between atoms: C_2  and  C_4
REMARK    2  A    between atoms: C_7  and  O_8
REMARK    3  A    between atoms: O_8  and  C_9
REMARK    4  A    between atoms: C_9  and  C_10
REMARK    5  A    between atoms: C_15  and  N_16
REMARK                            x       y       z     vdW  Elec       q    Type
REMARK                         _______ _______ _______ _____ _____    ______ ____
ROOT
ATOM      1  C   UNL     1      43.712   3.932  11.442  0.00  0.00    +0.000 C 
ENDROOT
BRANCH   1   2
ATOM      2  C   UNL     1      44.664   4.990  11.940  0.00  0.00    +0.000 A 
ATOM      3  C   UNL     1      44.427   6.333  11.632  0.00  0.00    +0.000 A 
ATOM      4  C   UNL     1      45.222   7.315  12.201  0.00  0.00    +0.000 A 
ATOM      5  F   UNL     1      44.994   8.601  11.901  0.00  0.00    +0.000 F 
ATOM      6  C   UNL     1      46.237   6.989  13.095  0.00  0.00    +0.000 A 
ATOM      7  C   UNL     1      46.501   5.657  13.439  0.00  0.00    +0.000 A 
ATOM      8  C   UNL     1      45.710   4.672  12.826  0.00  0.00    +0.000 A 
BRANCH   7   9
ATOM      9  N   UNL     1      47.488   5.343  14.349  0.00  0.00    +0.000 N 
ATOM     10  C   UNL     1      47.397   4.211  15.281  0.00  0.00    +0.000 C 
ATOM     11  C   UNL     1      47.432   4.703  16.735  0.00  0.00    +0.000 C 
ATOM     12  O   UNL     1      48.583   5.528  16.984  0.00  0.00    +0.000 OA
ATOM     13  C   UNL     1      48.561   6.680  16.125  0.00  0.00    +0.000 C 
ATOM     14  C   UNL     1      48.582   6.286  14.638  0.00  0.00    +0.000 C 
ENDBRANCH   7   9
ENDBRANCH   1   2
BRANCH   1  15
ATOM     15  O   UNL     1      43.511   4.016  10.030  0.00  0.00    +0.000 OA
BRANCH  15  19
ATOM     16  C   UNL     1      46.538   2.551   7.551  0.00  0.00    +0.000 A 
ATOM     17  C   UNL     1      45.877   1.659   8.399  0.00  0.00    +0.000 A 
ATOM     18  C   UNL     1      44.860   2.114   9.243  0.00  0.00    +0.000 A 
ATOM     19  C   UNL     1      44.493   3.461   9.250  0.00  0.00    +0.000 A 
ATOM     20  C   UNL     1      45.164   4.355   8.413  0.00  0.00    +0.000 A 
ATOM     21  C   UNL     1      46.187   3.907   7.570  0.00  0.00    +0.000 A 
BRANCH  16  23
ATOM     22  N   UNL     1      47.877   2.858   5.541  0.00  0.00    +0.000 N 
ATOM     23  C   UNL     1      47.630   2.103   6.655  0.00  0.00    +0.000 C 
ATOM     24  O   UNL     1      48.310   1.115   6.911  0.00  0.00    +0.000 OA
ATOM     25  H   UNL     1      48.686   2.597   4.995  0.00  0.00    +0.000 HD
ATOM     26  H   UNL     1      47.527   3.801   5.441  0.00  0.00    +0.000 HD
ENDBRANCH  16  23
ENDBRANCH  15  19
ENDBRANCH   1  15
TORSDOF 5
ENDMDL
MODEL 3
REMARK VINA RESULT:    -7.877      2.115      2.931
REMARK INTER + INTRA:         -11.177
REMARK INTER:                 -10.303
REMARK INTRA:                  -0.875
REMARK UNBOUND:                -0.999
REMARK  Name = 
REMARK  5 active torsions:
REMARK  status: ('A' for Active; 'I' for Inactive)
REMARK    1  A    between atoms: C_2  and  C_4
REMARK    2  A    between atoms: C_7  and  O_8
REMARK    3  A    between atoms: O_8  and  C_9
REMARK    4  A    between atoms: C_9  and  C_10
REMARK    5  A    between atoms: C_15  and  N_16
REMARK                            x       y       z     vdW  Elec       q    Type
REMARK                         _______ _______ _______ _____ _____    ______ ____
ROOT
ATOM      1  C   UNL     1      44.231   4.704  11.514  0.00  0.00    +0.000 C 
ENDROOT
BRANCH   1   2
ATOM      2  C   UNL     1      45.041   5.961  11.708  0.00  0.00    +0.000 A 
ATOM      3  C   UNL     1      44.432   7.208  11.541  0.00  0.00    +0.000 A 
ATOM      4  C   UNL     1      45.137   8.360  11.851  0.00  0.00    +0.000 A 
ATOM      5  F   UNL     1      44.551   9.554  11.688  0.00  0.00    +0.000 F 
ATOM      6  C   UNL     1      46.434   8.296  12.350  0.00  0.00    +0.000 A 
ATOM      7  C   UNL     1      47.078   7.067  12.542  0.00  0.00    +0.000 A 
ATOM      8  C   UNL     1      46.362   5.911  12.189  0.00  0.00    +0.000 A 
BRANCH   7   9
ATOM      9  N   UNL     1      48.352   7.009  13.065  0.00  0.00    +0.000 N 
ATOM     10  C   UNL     1      48.631   6.839  14.498  0.00  0.00    +0.000 C 
ATOM     11  C   UNL     1      49.405   8.047  15.045  0.00  0.00    +0.000 C 
ATOM     12  O   UNL     1      50.596   8.299  14.280  0.00  0.00    +0.000 OA
ATOM     13  C   UNL     1      50.257   8.573  12.911  0.00  0.00    +0.000 C 
ATOM     14  C   UNL     1      49.523   7.389  12.256  0.00  0.00    +0.000 C 
ENDBRANCH   7   9
ENDBRANCH   1   2
BRANCH   1  15
ATOM     15  O   UNL     1      43.804   4.547  10.159  0.00  0.00    +0.000 OA
BRANCH  15  19
ATOM     16  C   UNL     1      46.420   2.378   7.729  0.00  0.00    +0.000 A 
ATOM     17  C   UNL     1      46.366   3.767   7.582  0.00  0.00    +0.000 A 
ATOM     18  C   UNL     1      45.502   4.524   8.377  0.00  0.00    +0.000 A 
ATOM     19  C   UNL     1      44.684   3.905   9.325  0.00  0.00    +0.000 A 
ATOM     20  C   UNL     1      44.728   2.516   9.460  0.00  0.00    +0.000 A 
ATOM     21  C   UNL     1      45.587   1.751   8.663  0.00  0.00    +0.000 A 
BRANCH  16  23
ATOM     22  N   UNL     1      48.420   2.153   6.359  0.00  0.00    +0.000 N 
ATOM     23  C   UNL     1      47.316   1.545   6.891  0.00  0.00    +0.000 C 
ATOM     24  O   UNL     1      47.101   0.353   6.704  0.00  0.00    +0.000 OA
ATOM     25  H   UNL     1      49.072   1.551   5.874  0.00  0.00    +0.000 HD
ATOM     26  H   UNL     1      48.766   3.039   6.702  0.00  0.00    +0.000 HD
ENDBRANCH  16  23
ENDBRANCH  15  19
ENDBRANCH   1  15
TORSDOF 5
ENDMDL
MODEL 4
REMARK VINA RESULT:    -7.121      4.197      8.116
REMARK INTER + INTRA:         -10.201
REMARK INTER:                  -9.566
REMARK INTRA:                  -0.635
REMARK UNBOUND:                -0.999
REMARK  Name = 
REMARK  5 active torsions:
REMARK  status: ('A' for Active; 'I' for Inactive)
REMARK    1  A    between atoms: C_2  and  C_4
REMARK    2  A    between atoms: C_7  and  O_8
REMARK    3  A    between atoms: O_8  and  C_9
REMARK    4  A    between atoms: C_9  and  C_10
REMARK    5  A    between atoms: C_15  and  N_16
REMARK                            x       y       z     vdW  Elec       q    Type
REMARK                         _______ _______ _______ _____ _____    ______ ____
ROOT
ATOM      1  C   UNL     1      46.945   4.368  13.660  0.00  0.00    +0.000 C 
ENDROOT
BRANCH   1   2
ATOM      2  C   UNL     1      45.691   4.242  12.832  0.00  0.00    +0.000 A 
ATOM      3  C   UNL     1      44.500   4.811  13.291  0.00  0.00    +0.000 A 
ATOM      4  C   UNL     1      43.383   4.813  12.471  0.00  0.00    +0.000 A 
ATOM      5  F   UNL     1      42.242   5.358  12.915  0.00  0.00    +0.000 F 
ATOM      6  C   UNL     1      43.434   4.282  11.186  0.00  0.00    +0.000 A 
ATOM      7  C   UNL     1      44.610   3.711  10.683  0.00  0.00    +0.000 A 
ATOM      8  C   UNL     1      45.723   3.684  11.541  0.00  0.00    +0.000 A 
BRANCH   7   9
ATOM      9  N   UNL     1      44.662   3.213   9.399  0.00  0.00    +0.000 N 
ATOM     10  C   UNL     1      44.780   1.780   9.092  0.00  0.00    +0.000 C 
ATOM     11  C   UNL     1      46.076   1.497   8.319  0.00  0.00    +0.000 C 
ATOM     12  O   UNL     1      46.179   2.321   7.145  0.00  0.00    +0.000 OA
ATOM     13  C   UNL     1      46.175   3.710   7.512  0.00  0.00    +0.000 C 
ATOM     14  C   UNL     1      44.881   4.104   8.247  0.00  0.00    +0.000 C 
ENDBRANCH   7   9
ENDBRANCH   1   2
BRANCH   1  15
ATOM     15  O   UNL     1      47.210   3.182  14.412  0.00  0.00    +0.000 OA
BRANCH  15  19
ATOM     16  C   UNL     1      48.743   3.986  18.214  0.00  0.00    +0.000 A 
ATOM     17  C   UNL     1      49.078   2.776  17.600  0.00  0.00    +0.000 A 
ATOM     18  C   UNL     1      48.582   2.473  16.329  0.00  0.00    +0.000 A 
ATOM     19  C   UNL     1      47.749   3.372  15.659  0.00  0.00    +0.000 A 
ATOM     20  C   UNL     1      47.404   4.574  16.280  0.00  0.00    +0.000 A 
ATOM     21  C   UNL     1      47.892   4.882  17.555  0.00  0.00    +0.000 A 
BRANCH  16  23
ATOM     22  N   UNL     1      48.476   3.946  20.634  0.00  0.00    +0.000 N 
ATOM     23  C   UNL     1      49.242   4.331  19.567  0.00  0.00    +0.000 C 
ATOM     24  O   UNL     1      50.310   4.908  19.734  0.00  0.00    +0.000 OA
ATOM     25  H   UNL     1      48.876   4.098  21.550  0.00  0.00    +0.000 HD
ATOM     26  H   UNL     1      47.746   3.251  20.551  0.00  0.00    +0.000 HD
ENDBRANCH  16  23
ENDBRANCH  15  19
ENDBRANCH   1  15
TORSDOF 5
ENDMDL
MODEL 5
REMARK VINA RESULT:    -6.616      5.086      7.933
REMARK INTER + INTRA:          -9.548
REMARK INTER:                  -8.822
REMARK INTRA:                  -0.727
REMARK UNBOUND:                -0.999
REMARK  Name = 
REMARK  5 active torsions:
REMARK  status: ('A' for Active; 'I' for Inactive)
REMARK    1  A    between atoms: C_2  and  C_4
REMARK    2  A    between atoms: C_7  and  O_8
REMARK    3  A    between atoms: O_8  and  C_9
REMARK    4  A    between atoms: C_9  and  C_10
REMARK    5  A    between atoms: C_15  and  N_16
REMARK                            x       y       z     vdW  Elec       q    Type
REMARK                         _______ _______ _______ _____ _____    ______ ____
ROOT
ATOM      1  C   UNL     1      48.648   6.252  15.855  0.00  0.00    +0.000 C 
ENDROOT
BRANCH   1   2
ATOM      2  C   UNL     1      47.906   6.293  14.544  0.00  0.00    +0.000 A 
ATOM      3  C   UNL     1      48.430   7.025  13.475  0.00  0.00    +0.000 A 
ATOM      4  C   UNL     1      47.821   6.953  12.233  0.00  0.00    +0.000 A 
ATOM      5  F   UNL     1      48.325   7.659  11.211  0.00  0.00    +0.000 F 
ATOM      6  C   UNL     1      46.710   6.143  12.023  0.00  0.00    +0.000 A 
ATOM      7  C   UNL     1      46.158   5.384  13.064  0.00  0.00    +0.000 A 
ATOM      8  C   UNL     1      46.766   5.496  14.326  0.00  0.00    +0.000 A 
BRANCH   7   9
ATOM      9  N   UNL     1      45.076   4.560  12.843  0.00  0.00    +0.000 N 
ATOM     10  C   UNL     1      45.184   3.233  12.218  0.00  0.00    +0.000 C 
ATOM     11  C   UNL     1      44.378   3.184  10.912  0.00  0.00    +0.000 C 
ATOM     12  O   UNL     1      43.013   3.583  11.121  0.00  0.00    +0.000 OA
ATOM     13  C   UNL     1      42.961   4.928  11.624  0.00  0.00    +0.000 C 
ATOM     14  C   UNL     1      43.698   5.065  12.968  0.00  0.00    +0.000 C 
ENDBRANCH   7   9
ENDBRANCH   1   2
BRANCH   1  15
ATOM     15  O   UNL     1      48.277   5.121  16.645  0.00  0.00    +0.000 OA
BRANCH  15  19
ATOM     16  C   UNL     1      51.199   2.268  17.528  0.00  0.00    +0.000 A 
ATOM     17  C   UNL     1      51.516   3.620  17.681  0.00  0.00    +0.000 A 
ATOM     18  C   UNL     1      50.564   4.602  17.394  0.00  0.00    +0.000 A 
ATOM     19  C   UNL     1      49.288   4.246  16.951  0.00  0.00    +0.000 A 
ATOM     20  C   UNL     1      48.977   2.895  16.784  0.00  0.00    +0.000 A 
ATOM     21  C   UNL     1      49.928   1.907  17.065  0.00  0.00    +0.000 A 
BRANCH  16  23
ATOM     22  N   UNL     1      51.708  -0.010  18.217  0.00  0.00    +0.000 N 
ATOM     23  C   UNL     1      52.191   1.203  17.811  0.00  0.00    +0.000 C 
ATOM     24  O   UNL     1      53.393   1.385  17.659  0.00  0.00    +0.000 OA
ATOM     25  H   UNL     1      52.388  -0.754  18.309  0.00  0.00    +0.000 HD
ATOM     26  H   UNL     1      50.739  -0.274  18.097  0.00  0.00    +0.000 HD
ENDBRANCH  16  23
ENDBRANCH  15  19
ENDBRANCH   1  15
TORSDOF 5
ENDMDL
MODEL 6
REMARK VINA RESULT:    -6.616      2.380      7.149
REMARK INTER + INTRA:          -9.548
REMARK INTER:                  -8.594
REMARK INTRA:                  -0.954
REMARK UNBOUND:                -0.999
REMARK  Name = 
REMARK  5 active torsions:
REMARK  status: ('A' for Active; 'I' for Inactive)
REMARK    1  A    between atoms: C_2  and  C_4
REMARK    2  A    between atoms: C_7  and  O_8
REMARK    3  A    between atoms: O_8  and  C_9
REMARK    4  A    between atoms: C_9  and  C_10
REMARK    5  A    between atoms: C_15  and  N_16
REMARK                            x       y       z     vdW  Elec       q    Type
REMARK                         _______ _______ _______ _____ _____    ______ ____
ROOT
ATOM      1  C   UNL     1      46.231   4.367  13.782  0.00  0.00    +0.000 C 
ENDROOT
BRANCH   1   2
ATOM      2  C   UNL     1      45.140   4.358  12.741  0.00  0.00    +0.000 A 
ATOM      3  C   UNL     1      43.978   5.105  12.952  0.00  0.00    +0.000 A 
ATOM      4  C   UNL     1      43.037   5.206  11.940  0.00  0.00    +0.000 A 
ATOM      5  F   UNL     1      41.922   5.921  12.147  0.00  0.00    +0.000 F 
ATOM      6  C   UNL     1      43.241   4.598  10.706  0.00  0.00    +0.000 A 
ATOM      7  C   UNL     1      44.397   3.849  10.448  0.00  0.00    +0.000 A 
ATOM      8  C   UNL     1      45.324   3.726  11.498  0.00  0.00    +0.000 A 
BRANCH   7   9
ATOM      9  N   UNL     1      44.608   3.273   9.214  0.00  0.00    +0.000 N 
ATOM     10  C   UNL     1      44.721   1.822   9.007  0.00  0.00    +0.000 C 
ATOM     11  C   UNL     1      46.100   1.463   8.437  0.00  0.00    +0.000 C 
ATOM     12  O   UNL     1      46.387   2.212   7.244  0.00  0.00    +0.000 OA
ATOM     13  C   UNL     1      46.377   3.621   7.528  0.00  0.00    +0.000 C 
ATOM     14  C   UNL     1      45.009   4.089   8.055  0.00  0.00    +0.000 C 
ENDBRANCH   7   9
ENDBRANCH   1   2
BRANCH   1  15
ATOM     15  O   UNL     1      47.485   4.783  13.240  0.00  0.00    +0.000 OA
BRANCH  15  19
ATOM     16  C   UNL     1      48.109   8.913  13.177  0.00  0.00    +0.000 A 
ATOM     17  C   UNL     1      47.728   8.276  11.993  0.00  0.00    +0.000 A 
ATOM     18  C   UNL     1      47.512   6.895  11.976  0.00  0.00    +0.000 A 
ATOM     19  C   UNL     1      47.674   6.138  13.138  0.00  0.00    +0.000 A 
ATOM     20  C   UNL     1      48.069   6.774  14.317  0.00  0.00    +0.000 A 
ATOM     21  C   UNL     1      48.293   8.155  14.339  0.00  0.00    +0.000 A 
BRANCH  16  23
ATOM     22  N   UNL     1      48.620  10.926  14.448  0.00  0.00    +0.000 N 
ATOM     23  C   UNL     1      48.360  10.374  13.223  0.00  0.00    +0.000 C 
ATOM     24  O   UNL     1      48.367  11.060  12.208  0.00  0.00    +0.000 OA
ATOM     25  H   UNL     1      48.887  11.901  14.451  0.00  0.00    +0.000 HD
ATOM     26  H   UNL     1      48.883  10.365  15.247  0.00  0.00    +0.000 HD
ENDBRANCH  16  23
ENDBRANCH  15  19
ENDBRANCH   1  15
TORSDOF 5
ENDMDL
MODEL 7
REMARK VINA RESULT:    -6.253      4.355      8.332
REMARK INTER + INTRA:          -9.079
REMARK INTER:                  -8.396
REMARK INTRA:                  -0.683
REMARK UNBOUND:                -0.999
REMARK  Name = 
REMARK  5 active torsions:
REMARK  status: ('A' for Active; 'I' for Inactive)
REMARK    1  A    between atoms: C_2  and  C_4
REMARK    2  A    between atoms: C_7  and  O_8
REMARK    3  A    between atoms: O_8  and  C_9
REMARK    4  A    between atoms: C_9  and  C_10
REMARK    5  A    between atoms: C_15  and  N_16
REMARK                            x       y       z     vdW  Elec       q    Type
REMARK                         _______ _______ _______ _____ _____    ______ ____
ROOT
ATOM      1  C   UNL     1      47.989   6.357  13.824  0.00  0.00    +0.000 C 
ENDROOT
BRANCH   1   2
ATOM      2  C   UNL     1      46.734   6.713  13.067  0.00  0.00    +0.000 A 
ATOM      3  C   UNL     1      46.406   8.056  12.865  0.00  0.00    +0.000 A 
ATOM      4  C   UNL     1      45.329   8.382  12.056  0.00  0.00    +0.000 A 
ATOM      5  F   UNL     1      45.016   9.671  11.866  0.00  0.00    +0.000 F 
ATOM      6  C   UNL     1      44.584   7.395  11.420  0.00  0.00    +0.000 A 
ATOM      7  C   UNL     1      44.885   6.037  11.587  0.00  0.00    +0.000 A 
ATOM      8  C   UNL     1      45.957   5.722  12.439  0.00  0.00    +0.000 A 
BRANCH   7   9
ATOM      9  N   UNL     1      44.162   5.065  10.930  0.00  0.00    +0.000 N 
ATOM     10  C   UNL     1      43.034   4.346  11.540  0.00  0.00    +0.000 C 
ATOM     11  C   UNL     1      43.329   2.841  11.613  0.00  0.00    +0.000 C 
ATOM     12  O   UNL     1      43.685   2.311  10.325  0.00  0.00    +0.000 OA
ATOM     13  C   UNL     1      44.862   2.970   9.827  0.00  0.00    +0.000 C 
ATOM     14  C   UNL     1      44.643   4.485   9.664  0.00  0.00    +0.000 C 
ENDBRANCH   7   9
ENDBRANCH   1   2
BRANCH   1  15
ATOM     15  O   UNL     1      47.842   5.145  14.565  0.00  0.00    +0.000 OA
BRANCH  15  19
ATOM     16  C   UNL     1      48.541   5.172  18.684  0.00  0.00    +0.000 A 
ATOM     17  C   UNL     1      48.912   6.292  17.935  0.00  0.00    +0.000 A 
ATOM     18  C   UNL     1      48.695   6.317  16.554  0.00  0.00    +0.000 A 
ATOM     19  C   UNL     1      48.107   5.228  15.909  0.00  0.00    +0.000 A 
ATOM     20  C   UNL     1      47.749   4.104  16.656  0.00  0.00    +0.000 A 
ATOM     21  C   UNL     1      47.969   4.069  18.038  0.00  0.00    +0.000 A 
BRANCH  16  23
ATOM     22  N   UNL     1      48.478   3.931  20.777  0.00  0.00    +0.000 N 
ATOM     23  C   UNL     1      48.771   5.109  20.147  0.00  0.00    +0.000 C 
ATOM     24  O   UNL     1      49.235   6.058  20.769  0.00  0.00    +0.000 OA
ATOM     25  H   UNL     1      48.733   3.870  21.754  0.00  0.00    +0.000 HD
ATOM     26  H   UNL     1      48.353   3.064  20.270  0.00  0.00    +0.000 HD
ENDBRANCH  16  23
ENDBRANCH  15  19
ENDBRANCH   1  15
TORSDOF 5
ENDMDL
MODEL 8
REMARK VINA RESULT:    -5.822      3.946      5.848
REMARK INTER + INTRA:          -8.522
REMARK INTER:                  -7.757
REMARK INTRA:                  -0.765
REMARK UNBOUND:                -0.999
REMARK  Name = 
REMARK  5 active torsions:
REMARK  status: ('A' for Active; 'I' for Inactive)
REMARK    1  A    between atoms: C_2  and  C_4
REMARK    2  A    between atoms: C_7  and  O_8
REMARK    3  A    between atoms: O_8  and  C_9
REMARK    4  A    between atoms: C_9  and  C_10
REMARK    5  A    between atoms: C_15  and  N_16
REMARK                            x       y       z     vdW  Elec       q    Type
REMARK                         _______ _______ _______ _____ _____    ______ ____
ROOT
ATOM      1  C   UNL     1      48.255   7.423  12.455  0.00  0.00    +0.000 C 
ENDROOT
BRANCH   1   2
ATOM      2  C   UNL     1      49.201   7.342  13.627  0.00  0.00    +0.000 A 
ATOM      3  C   UNL     1      50.390   8.075  13.607  0.00  0.00    +0.000 A 
ATOM      4  C   UNL     1      51.192   8.107  14.737  0.00  0.00    +0.000 A 
ATOM      5  F   UNL     1      52.334   8.810  14.714  0.00  0.00    +0.000 F 
ATOM      6  C   UNL     1      50.820   7.443  15.901  0.00  0.00    +0.000 A 
ATOM      7  C   UNL     1      49.631   6.705  15.968  0.00  0.00    +0.000 A 
ATOM      8  C   UNL     1      48.848   6.653  14.802  0.00  0.00    +0.000 A 
BRANCH   7   9
ATOM      9  N   UNL     1      49.254   6.073  17.133  0.00  0.00    +0.000 N 
ATOM     10  C   UNL     1      48.661   4.729  17.168  0.00  0.00    +0.000 C 
ATOM     11  C   UNL     1      47.248   4.776  17.767  0.00  0.00    +0.000 C 
ATOM     12  O   UNL     1      47.244   5.412  19.056  0.00  0.00    +0.000 OA
ATOM     13  C   UNL     1      47.725   6.762  18.945  0.00  0.00    +0.000 C 
ATOM     14  C   UNL     1      49.164   6.813  18.403  0.00  0.00    +0.000 C 
ENDBRANCH   7   9
ENDBRANCH   1   2
BRANCH   1  15
ATOM     15  O   UNL     1      46.890   7.307  12.860  0.00  0.00    +0.000 OA
BRANCH  15  19
ATOM     16  C   UNL     1      44.765   4.020  11.401  0.00  0.00    +0.000 A 
ATOM     17  C   UNL     1      45.070   5.062  10.522  0.00  0.00    +0.000 A 
ATOM     18  C   UNL     1      45.779   6.179  10.976  0.00  0.00    +0.000 A 
ATOM     19  C   UNL     1      46.188   6.266  12.308  0.00  0.00    +0.000 A 
ATOM     20  C   UNL     1      45.870   5.230  13.189  0.00  0.00    +0.000 A 
ATOM     21  C   UNL     1      45.156   4.112  12.742  0.00  0.00    +0.000 A 
BRANCH  16  23
ATOM     22  N   UNL     1      44.489   2.143   9.875  0.00  0.00    +0.000 N 
ATOM     23  C   UNL     1      44.002   2.829  10.954  0.00  0.00    +0.000 C 
ATOM     24  O   UNL     1      42.995   2.451  11.541  0.00  0.00    +0.000 OA
ATOM     25  H   UNL     1      44.016   1.279   9.645  0.00  0.00    +0.000 HD
ATOM     26  H   UNL     1      45.436   2.262   9.542  0.00  0.00    +0.000 HD
ENDBRANCH  16  23
ENDBRANCH  15  19
ENDBRANCH   1  15
TORSDOF 5
ENDMDL
MODEL 9
REMARK VINA RESULT:    -5.696      4.192      6.283
REMARK INTER + INTRA:          -8.359
REMARK INTER:                  -7.666
REMARK INTRA:                  -0.693
REMARK UNBOUND:                -0.999
REMARK  Name = 
REMARK  5 active torsions:
REMARK  status: ('A' for Active; 'I' for Inactive)
REMARK    1  A    between atoms: C_2  and  C_4
REMARK    2  A    between atoms: C_7  and  O_8
REMARK    3  A    between atoms: O_8  and  C_9
REMARK    4  A    between atoms: C_9  and  C_10
REMARK    5  A    between atoms: C_15  and  N_16
REMARK                            x       y       z     vdW  Elec       q    Type
REMARK                         _______ _______ _______ _____ _____    ______ ____
ROOT
ATOM      1  C   UNL     1      48.663   7.240  13.045  0.00  0.00    +0.000 C 
ENDROOT
BRANCH   1   2
ATOM      2  C   UNL     1      48.712   7.579  14.514  0.00  0.00    +0.000 A 
ATOM      3  C   UNL     1      48.517   8.900  14.926  0.00  0.00    +0.000 A 
ATOM      4  C   UNL     1      48.428   9.189  16.278  0.00  0.00    +0.000 A 
ATOM      5  F   UNL     1      48.243  10.457  16.670  0.00  0.00    +0.000 F 
ATOM      6  C   UNL     1      48.502   8.181  17.234  0.00  0.00    +0.000 A 
ATOM      7  C   UNL     1      48.686   6.842  16.865  0.00  0.00    +0.000 A 
ATOM      8  C   UNL     1      48.812   6.571  15.492  0.00  0.00    +0.000 A 
BRANCH   7   9
ATOM      9  N   UNL     1      48.729   5.844  17.815  0.00  0.00    +0.000 N 
ATOM     10  C   UNL     1      49.982   5.292  18.350  0.00  0.00    +0.000 C 
ATOM     11  C   UNL     1      50.089   3.793  18.036  0.00  0.00    +0.000 C 
ATOM     12  O   UNL     1      48.931   3.074  18.495  0.00  0.00    +0.000 OA
ATOM     13  C   UNL     1      47.748   3.579  17.854  0.00  0.00    +0.000 C 
ATOM     14  C   UNL     1      47.524   5.071  18.159  0.00  0.00    +0.000 C 
ENDBRANCH   7   9
ENDBRANCH   1   2
BRANCH   1  15
ATOM     15  O   UNL     1      47.408   7.589  12.458  0.00  0.00    +0.000 OA
BRANCH  15  19
ATOM     16  C   UNL     1      44.965   4.305  11.625  0.00  0.00    +0.000 A 
ATOM     17  C   UNL     1      45.259   5.199  10.592  0.00  0.00    +0.000 A 
ATOM     18  C   UNL     1      46.072   6.310  10.835  0.00  0.00    +0.000 A 
ATOM     19  C   UNL     1      46.598   6.540  12.108  0.00  0.00    +0.000 A 
ATOM     20  C   UNL     1      46.291   5.653  13.143  0.00  0.00    +0.000 A 
ATOM     21  C   UNL     1      45.473   4.542  12.908  0.00  0.00    +0.000 A 
BRANCH  16  23
ATOM     22  N   UNL     1      43.678   2.437  12.509  0.00  0.00    +0.000 N 
ATOM     23  C   UNL     1      44.094   3.126  11.403  0.00  0.00    +0.000 C 
ATOM     24  O   UNL     1      43.731   2.794  10.280  0.00  0.00    +0.000 OA
ATOM     25  H   UNL     1      43.006   1.699  12.350  0.00  0.00    +0.000 HD
ATOM     26  H   UNL     1      43.733   2.828  13.440  0.00  0.00    +0.000 HD
ENDBRANCH  16  23
ENDBRANCH  15  19
ENDBRANCH   1  15
TORSDOF 5
ENDMDL
