MODEL 1
REMARK VINA RESULT:    -8.090      0.000      0.000
REMARK INTER + INTRA:         -10.998
REMARK INTER:                 -10.218
REMARK INTRA:                  -0.781
REMARK UNBOUND:                -0.781
REMARK  Name = 
REMARK  5 active torsions:
REMARK  status: ('A' for Active; 'I' for Inactive)
REMARK    1  A    between atoms: C_2  and  C_3
REMARK    2  A    between atoms: C_6  and  C_7
REMARK    3  A    between atoms: C_7  and  C_8
REMARK    4  A    between atoms: C_11  and  O_12
REMARK    5  A    between atoms: C_13  and  C_14
REMARK                            x       y       z     vdW  Elec       q    Type
REMARK                         _______ _______ _______ _____ _____    ______ ____
ROOT
ATOM      1  C   UNL     1      45.464   4.875  11.914  0.00  0.00    +0.000 A 
ATOM      2  C   UNL     1      45.676   4.199  13.122  0.00  0.00    +0.000 A 
ATOM      3  C   UNL     1      46.652   4.621  14.019  0.00  0.00    +0.000 A 
ATOM      4  C   UNL     1      47.422   5.750  13.729  0.00  0.00    +0.000 A 
ATOM      5  C   UNL     1      47.181   6.545  12.590  0.00  0.00    +0.000 A 
ATOM      6  C   UNL     1      46.177   6.078  11.710  0.00  0.00    +0.000 A 
ENDROOT
BRANCH   5   7
ATOM      7  C   UNL     1      47.944   7.787  12.285  0.00  0.00    +0.000 A 
ATOM      8  C   UNL     1      49.252   7.766  11.772  0.00  0.00    +0.000 A 
ATOM      9  C   UNL     1      49.935   8.953  11.491  0.00  0.00    +0.000 A 
ATOM     10  C   UNL     1      49.300  10.155  11.741  0.00  0.00    +0.000 A 
ATOM     11  N   UNL     1      48.049  10.242  12.225  0.00  0.00    +0.000 NA
ATOM     12  C   UNL     1      47.410   9.066  12.476  0.00  0.00    +0.000 A 
ENDBRANCH   5   7
BRANCH   1  13
ATOM     13  C   UNL     1      44.605   4.252  10.811  0.00  0.00    +0.000 C 
ATOM     14  C   UNL     1      43.305   3.571  11.247  0.00  0.00    +0.000 C 
ATOM     15  C   UNL     1      43.235   4.912  10.597  0.00  0.00    +0.000 C 
BRANCH  13  19
ATOM     16  C   UNL     1      46.731   2.645   7.347  0.00  0.00    +0.000 A 
ATOM     17  C   UNL     1      46.607   4.025   7.520  0.00  0.00    +0.000 A 
ATOM     18  C   UNL     1      45.899   4.538   8.615  0.00  0.00    +0.000 A 
ATOM     19  C   UNL     1      45.307   3.697   9.573  0.00  0.00    +0.000 A 
ATOM     20  C   UNL     1      45.428   2.307   9.359  0.00  0.00    +0.000 A 
ATOM     21  C   UNL     1      46.132   1.785   8.269  0.00  0.00    +0.000 A 
BRANCH  16  23
ATOM     22  N   UNL     1      48.097   1.690   5.356  0.00  0.00    +0.000 NA
ATOM     23  C   UNL     1      47.482   2.115   6.244  0.00  0.00    +0.000 C 
ENDBRANCH  16  23
ENDBRANCH  13  19
ENDBRANCH   1  13
BRANCH   4  24
ATOM     24  O   UNL     1      48.463   6.046  14.569  0.00  0.00    +0.000 OA
ATOM     25  H   UNL     1      48.830   5.222  14.931  0.00  0.00    +0.000 HD
ENDBRANCH   4  24
TORSDOF 5
ENDMDL
MODEL 2
REMARK VINA RESULT:    -7.353      2.135      2.805
REMARK INTER + INTRA:         -10.067
REMARK INTER:                  -9.639
REMARK INTRA:                  -0.428
REMARK UNBOUND:                -0.781
REMARK  Name = 
REMARK  5 active torsions:
REMARK  status: ('A' for Active; 'I' for Inactive)
REMARK    1  A    between atoms: C_2  and  C_3
REMARK    2  A    between atoms: C_6  and  C_7
REMARK    3  A    between atoms: C_7  and  C_8
REMARK    4  A    between atoms: C_11  and  O_12
REMARK    5  A    between atoms: C_13  and  C_14
REMARK                            x       y       z     vdW  Elec       q    Type
REMARK                         _______ _______ _______ _____ _____    ______ ____
ROOT
ATOM      1  C   UNL     1      45.292   5.727  11.546  0.00  0.00    +0.000 A 
ATOM      2  C   UNL     1      44.804   7.018  11.308  0.00  0.00    +0.000 A 
ATOM      3  C   UNL     1      45.222   8.097  12.080  0.00  0.00    +0.000 A 
ATOM      4  C   UNL     1      46.162   7.903  13.094  0.00  0.00    +0.000 A 
ATOM      5  C   UNL     1      46.783   6.656  13.308  0.00  0.00    +0.000 A 
ATOM      6  C   UNL     1      46.326   5.590  12.498  0.00  0.00    +0.000 A 
ENDROOT
BRANCH   5   7
ATOM      7  C   UNL     1      47.832   6.432  14.342  0.00  0.00    +0.000 A 
ATOM      8  C   UNL     1      48.987   7.227  14.434  0.00  0.00    +0.000 A 
ATOM      9  C   UNL     1      49.947   6.992  15.423  0.00  0.00    +0.000 A 
ATOM     10  C   UNL     1      49.743   5.947  16.305  0.00  0.00    +0.000 A 
ATOM     11  N   UNL     1      48.657   5.155  16.273  0.00  0.00    +0.000 NA
ATOM     12  C   UNL     1      47.738   5.421  15.304  0.00  0.00    +0.000 A 
ENDBRANCH   5   7
BRANCH   1  13
ATOM     13  C   UNL     1      44.625   4.509  10.900  0.00  0.00    +0.000 C 
ATOM     14  C   UNL     1      43.849   3.571  11.829  0.00  0.00    +0.000 C 
ATOM     15  C   UNL     1      43.091   4.503  10.945  0.00  0.00    +0.000 C 
BRANCH  13  19
ATOM     16  C   UNL     1      46.630   2.720   7.453  0.00  0.00    +0.000 A 
ATOM     17  C   UNL     1      46.549   4.109   7.580  0.00  0.00    +0.000 A 
ATOM     18  C   UNL     1      45.880   4.681   8.670  0.00  0.00    +0.000 A 
ATOM     19  C   UNL     1      45.285   3.891   9.669  0.00  0.00    +0.000 A 
ATOM     20  C   UNL     1      45.361   2.491   9.503  0.00  0.00    +0.000 A 
ATOM     21  C   UNL     1      46.027   1.911   8.417  0.00  0.00    +0.000 A 
BRANCH  16  23
ATOM     22  N   UNL     1      47.918   1.645   5.472  0.00  0.00    +0.000 NA
ATOM     23  C   UNL     1      47.341   2.130   6.355  0.00  0.00    +0.000 C 
ENDBRANCH  16  23
ENDBRANCH  13  19
ENDBRANCH   1  13
BRANCH   4  24
ATOM     24  O   UNL     1      46.439   8.962  13.918  0.00  0.00    +0.000 OA
ATOM     25  H   UNL     1      47.238   8.769  14.436  0.00  0.00    +0.000 HD
ENDBRANCH   4  24
TORSDOF 5
ENDMDL
MODEL 3
REMARK VINA RESULT:    -6.814      2.499      4.006
REMARK INTER + INTRA:          -9.387
REMARK INTER:                  -9.026
REMARK INTRA:                  -0.361
REMARK UNBOUND:                -0.781
REMARK  Name = 
REMARK  5 active torsions:
REMARK  status: ('A' for Active; 'I' for Inactive)
REMARK    1  A    between atoms: C_2  and  C_3
REMARK    2  A    between atoms: C_6  and  C_7
REMARK    3  A    between atoms: C_7  and  C_8
REMARK    4  A    between atoms: C_11  and  O_12
REMARK    5  A    between atoms: C_13  and  C_14
REMARK                            x       y       z     vdW  Elec       q    Type
REMARK                         _______ _______ _______ _____ _____    ______ ____
ROOT
ATOM      1  C   UNL     1      45.883   4.800  12.396  0.00  0.00    +0.000 A 
ATOM      2  C   UNL     1      46.306   6.107  12.125  0.00  0.00    +0.000 A 
ATOM      3  C   UNL     1      47.043   6.830  13.058  0.00  0.00    +0.000 A 
ATOM      4  C   UNL     1      47.392   6.243  14.276  0.00  0.00    +0.000 A 
ATOM      5  C   UNL     1      47.103   4.894  14.563  0.00  0.00    +0.000 A 
ATOM      6  C   UNL     1      46.354   4.199  13.584  0.00  0.00    +0.000 A 
ENDROOT
BRANCH   5   7
ATOM      7  C   UNL     1      47.514   4.222  15.827  0.00  0.00    +0.000 A 
ATOM      8  C   UNL     1      48.244   3.021  15.845  0.00  0.00    +0.000 A 
ATOM      9  C   UNL     1      48.618   2.423  17.052  0.00  0.00    +0.000 A 
ATOM     10  C   UNL     1      48.243   3.032  18.234  0.00  0.00    +0.000 A 
ATOM     11  N   UNL     1      47.550   4.183  18.284  0.00  0.00    +0.000 NA
ATOM     12  C   UNL     1      47.213   4.743  17.090  0.00  0.00    +0.000 A 
ENDBRANCH   5   7
BRANCH   1  13
ATOM     13  C   UNL     1      44.841   4.117  11.506  0.00  0.00    +0.000 C 
ATOM     14  C   UNL     1      43.834   3.196  12.201  0.00  0.00    +0.000 C 
ATOM     15  C   UNL     1      43.388   4.547  11.753  0.00  0.00    +0.000 C 
BRANCH  13  19
ATOM     16  C   UNL     1      46.078   3.112   7.437  0.00  0.00    +0.000 A 
ATOM     17  C   UNL     1      46.052   4.444   7.857  0.00  0.00    +0.000 A 
ATOM     18  C   UNL     1      45.626   4.767   9.153  0.00  0.00    +0.000 A 
ATOM     19  C   UNL     1      45.228   3.777  10.068  0.00  0.00    +0.000 A 
ATOM     20  C   UNL     1      45.242   2.443   9.608  0.00  0.00    +0.000 A 
ATOM     21  C   UNL     1      45.665   2.111   8.316  0.00  0.00    +0.000 A 
BRANCH  16  23
ATOM     22  N   UNL     1      46.911   2.495   5.056  0.00  0.00    +0.000 NA
ATOM     23  C   UNL     1      46.543   2.774   6.121  0.00  0.00    +0.000 C 
ENDBRANCH  16  23
ENDBRANCH  13  19
ENDBRANCH   1  13
BRANCH   4  24
ATOM     24  O   UNL     1      47.993   7.036  15.217  0.00  0.00    +0.000 OA
ATOM     25  H   UNL     1      48.668   7.590  14.791  0.00  0.00    +0.000 HD
ENDBRANCH   4  24
TORSDOF 5
ENDMDL
MODEL 4
REMARK VINA RESULT:    -6.386      3.344      7.713
REMARK INTER + INTRA:          -8.846
REMARK INTER:                  -8.433
REMARK INTRA:                  -0.413
REMARK UNBOUND:                -0.781
REMARK  Name = 
REMARK  5 active torsions:
REMARK  status: ('A' for Active; 'I' for Inactive)
REMARK    1  A    between atoms: C_2  and  C_3
REMARK    2  A    between atoms: C_6  and  C_7
REMARK    3  A    between atoms: C_7  and  C_8
REMARK    4  A    between atoms: C_11  and  O_12
REMARK    5  A    between atoms: C_13  and  C_14
REMARK                            x       y       z     vdW  Elec       q    Type
REMARK                         _______ _______ _______ _____ _____    ______ ____
ROOT
ATOM      1  C   UNL     1      47.213   7.472  12.438  0.00  0.00    +0.000 A 
ATOM      2  C   UNL     1      46.215   8.377  12.818  0.00  0.00    +0.000 A 
ATOM      3  C   UNL     1      44.908   8.238  12.362  0.00  0.00    +0.000 A 
ATOM      4  C   UNL     1      44.572   7.167  11.531  0.00  0.00    +0.000 A 
ATOM      5  C   UNL     1      45.497   6.154  11.208  0.00  0.00    +0.000 A 
ATOM      6  C   UNL     1      46.812   6.338  11.696  0.00  0.00    +0.000 A 
ENDROOT
BRANCH   5   7
ATOM      7  C   UNL     1      45.152   4.969  10.374  0.00  0.00    +0.000 A 
ATOM      8  C   UNL     1      45.564   4.837   9.037  0.00  0.00    +0.000 A 
ATOM      9  C   UNL     1      45.227   3.706   8.287  0.00  0.00    +0.000 A 
ATOM     10  C   UNL     1      44.466   2.721   8.886  0.00  0.00    +0.000 A 
ATOM     11  N   UNL     1      44.045   2.785  10.162  0.00  0.00    +0.000 NA
ATOM     12  C   UNL     1      44.402   3.895  10.865  0.00  0.00    +0.000 A 
ENDBRANCH   5   7
BRANCH   1  13
ATOM     13  C   UNL     1      48.690   7.783  12.697  0.00  0.00    +0.000 C 
ATOM     14  C   UNL     1      49.628   7.746  11.488  0.00  0.00    +0.000 C 
ATOM     15  C   UNL     1      49.213   9.068  12.040  0.00  0.00    +0.000 C 
BRANCH  13  19
ATOM     16  C   UNL     1      50.439   6.604  16.525  0.00  0.00    +0.000 A 
ATOM     17  C   UNL     1      49.112   6.284  16.228  0.00  0.00    +0.000 A 
ATOM     18  C   UNL     1      48.543   6.689  15.013  0.00  0.00    +0.000 A 
ATOM     19  C   UNL     1      49.279   7.409  14.056  0.00  0.00    +0.000 A 
ATOM     20  C   UNL     1      50.610   7.739  14.394  0.00  0.00    +0.000 A 
ATOM     21  C   UNL     1      51.186   7.339  15.604  0.00  0.00    +0.000 A 
BRANCH  16  23
ATOM     22  N   UNL     1      51.507   5.811  18.755  0.00  0.00    +0.000 NA
ATOM     23  C   UNL     1      51.034   6.164  17.755  0.00  0.00    +0.000 C 
ENDBRANCH  16  23
ENDBRANCH  13  19
ENDBRANCH   1  13
BRANCH   4  24
ATOM     24  O   UNL     1      43.312   7.148  10.994  0.00  0.00    +0.000 OA
ATOM     25  H   UNL     1      42.732   6.599  11.547  0.00  0.00    +0.000 HD
ENDBRANCH   4  24
TORSDOF 5
ENDMDL
MODEL 5
REMARK VINA RESULT:    -6.044      2.774      6.836
REMARK INTER + INTRA:          -8.415
REMARK INTER:                  -7.618
REMARK INTRA:                  -0.797
REMARK UNBOUND:                -0.781
REMARK  Name = 
REMARK  5 active torsions:
REMARK  status: ('A' for Active; 'I' for Inactive)
REMARK    1  A    between atoms: C_2  and  C_3
REMARK    2  A    between atoms: C_6  and  C_7
REMARK    3  A    between atoms: C_7  and  C_8
REMARK    4  A    between atoms: C_11  and  O_12
REMARK    5  A    between atoms: C_13  and  C_14
REMARK                            x       y       z     vdW  Elec       q    Type
REMARK                         _______ _______ _______ _____ _____    ______ ____
ROOT
ATOM      1  C   UNL     1      47.130   7.749  12.921  0.00  0.00    +0.000 A 
ATOM      2  C   UNL     1      46.159   8.735  13.134  0.00  0.00    +0.000 A 
ATOM      3  C   UNL     1      44.929   8.681  12.487  0.00  0.00    +0.000 A 
ATOM      4  C   UNL     1      44.640   7.619  11.628  0.00  0.00    +0.000 A 
ATOM      5  C   UNL     1      45.522   6.533  11.461  0.00  0.00    +0.000 A 
ATOM      6  C   UNL     1      46.759   6.630  12.141  0.00  0.00    +0.000 A 
ENDROOT
BRANCH   5   7
ATOM      7  C   UNL     1      45.217   5.357  10.600  0.00  0.00    +0.000 A 
ATOM      8  C   UNL     1      45.706   5.230   9.289  0.00  0.00    +0.000 A 
ATOM      9  C   UNL     1      45.404   4.108   8.512  0.00  0.00    +0.000 A 
ATOM     10  C   UNL     1      44.599   3.126   9.057  0.00  0.00    +0.000 A 
ATOM     11  N   UNL     1      44.104   3.185  10.305  0.00  0.00    +0.000 NA
ATOM     12  C   UNL     1      44.429   4.286  11.037  0.00  0.00    +0.000 A 
ENDBRANCH   5   7
BRANCH   1  13
ATOM     13  C   UNL     1      48.571   7.955  13.397  0.00  0.00    +0.000 C 
ATOM     14  C   UNL     1      48.760   8.457  14.831  0.00  0.00    +0.000 C 
ATOM     15  C   UNL     1      49.026   7.021  14.527  0.00  0.00    +0.000 C 
BRANCH  13  19
ATOM     16  C   UNL     1      51.681   9.077  10.540  0.00  0.00    +0.000 A 
ATOM     17  C   UNL     1      51.032  10.056  11.295  0.00  0.00    +0.000 A 
ATOM     18  C   UNL     1      50.014   9.698  12.189  0.00  0.00    +0.000 A 
ATOM     19  C   UNL     1      49.623   8.359  12.366  0.00  0.00    +0.000 A 
ATOM     20  C   UNL     1      50.280   7.395  11.572  0.00  0.00    +0.000 A 
ATOM     21  C   UNL     1      51.296   7.743  10.676  0.00  0.00    +0.000 A 
BRANCH  16  23
ATOM     22  N   UNL     1      53.612   9.720   8.927  0.00  0.00    +0.000 NA
ATOM     23  C   UNL     1      52.746   9.437   9.646  0.00  0.00    +0.000 C 
ENDBRANCH  16  23
ENDBRANCH  13  19
ENDBRANCH   1  13
BRANCH   4  24
ATOM     24  O   UNL     1      43.477   7.681  10.906  0.00  0.00    +0.000 OA
ATOM     25  H   UNL     1      43.686   7.808   9.965  0.00  0.00    +0.000 HD
ENDBRANCH   4  24
TORSDOF 5
ENDMDL
MODEL 6
REMARK VINA RESULT:    -5.911      4.829      7.985
REMARK INTER + INTRA:          -8.247
REMARK INTER:                  -7.557
REMARK INTRA:                  -0.690
REMARK UNBOUND:                -0.781
REMARK  Name = 
REMARK  5 active torsions:
REMARK  status: ('A' for Active; 'I' for Inactive)
REMARK    1  A    between atoms: C_2  and  C_3
REMARK    2  A    between atoms: C_6  and  C_7
REMARK    3  A    between atoms: C_7  and  C_8
REMARK    4  A    between atoms: C_11  and  O_12
REMARK    5  A    between atoms: C_13  and  C_14
REMARK                            x       y       z     vdW  Elec       q    Type
REMARK                         _______ _______ _______ _____ _____    ______ ____
ROOT
ATOM      1  C   UNL     1      48.245   5.715  15.963  0.00  0.00    +0.000 A 
ATOM      2  C   UNL     1      49.045   6.662  15.312  0.00  0.00    +0.000 A 
ATOM      3  C   UNL     1      48.824   6.992  13.978  0.00  0.00    +0.000 A 
ATOM      4  C   UNL     1      47.775   6.392  13.278  0.00  0.00    +0.000 A 
ATOM      5  C   UNL     1      46.860   5.523  13.905  0.00  0.00    +0.000 A 
ATOM      6  C   UNL     1      47.124   5.220  15.261  0.00  0.00    +0.000 A 
ENDROOT
BRANCH   5   7
ATOM      7  C   UNL     1      45.697   4.916  13.200  0.00  0.00    +0.000 A 
ATOM      8  C   UNL     1      45.731   3.620  12.659  0.00  0.00    +0.000 A 
ATOM      9  C   UNL     1      44.617   3.079  12.010  0.00  0.00    +0.000 A 
ATOM     10  C   UNL     1      43.478   3.854  11.900  0.00  0.00    +0.000 A 
ATOM     11  N   UNL     1      43.380   5.098  12.401  0.00  0.00    +0.000 NA
ATOM     12  C   UNL     1      44.480   5.587  13.036  0.00  0.00    +0.000 A 
ENDBRANCH   5   7
BRANCH   1  13
ATOM     13  C   UNL     1      48.661   5.144  17.322  0.00  0.00    +0.000 C 
ATOM     14  C   UNL     1      48.577   6.088  18.525  0.00  0.00    +0.000 C 
ATOM     15  C   UNL     1      47.534   5.035  18.358  0.00  0.00    +0.000 C 
BRANCH  13  19
ATOM     16  C   UNL     1      51.691   2.002  17.534  0.00  0.00    +0.000 A 
ATOM     17  C   UNL     1      52.015   3.318  17.873  0.00  0.00    +0.000 A 
ATOM     18  C   UNL     1      51.051   4.330  17.775  0.00  0.00    +0.000 A 
ATOM     19  C   UNL     1      49.737   4.061  17.353  0.00  0.00    +0.000 A 
ATOM     20  C   UNL     1      49.445   2.727  16.994  0.00  0.00    +0.000 A 
ATOM     21  C   UNL     1      50.402   1.710  17.088  0.00  0.00    +0.000 A 
BRANCH  16  23
ATOM     22  N   UNL     1      53.450   0.107  17.771  0.00  0.00    +0.000 NA
ATOM     23  C   UNL     1      52.667   0.957  17.662  0.00  0.00    +0.000 C 
ENDBRANCH  16  23
ENDBRANCH  13  19
ENDBRANCH   1  13
BRANCH   4  24
ATOM     24  O   UNL     1      47.683   6.639  11.934  0.00  0.00    +0.000 OA
ATOM     25  H   UNL     1      47.306   7.524  11.792  0.00  0.00    +0.000 HD
ENDBRANCH   4  24
TORSDOF 5
ENDMDL
MODEL 7
REMARK VINA RESULT:    -5.656      3.961      5.993
REMARK INTER + INTRA:          -7.925
REMARK INTER:                  -7.271
REMARK INTRA:                  -0.654
REMARK UNBOUND:                -0.781
REMARK  Name = 
REMARK  5 active torsions:
REMARK  status: ('A' for Active; 'I' for Inactive)
REMARK    1  A    between atoms: C_2  and  C_3
REMARK    2  A    between atoms: C_6  and  C_7
REMARK    3  A    between atoms: C_7  and  C_8
REMARK    4  A    between atoms: C_11  and  O_12
REMARK    5  A    between atoms: C_13  and  C_14
REMARK                            x       y       z     vdW  Elec       q    Type
REMARK                         _______ _______ _______ _____ _____    ______ ____
ROOT
ATOM      1  C   UNL     1      48.496   7.826  14.139  0.00  0.00    +0.000 A 
ATOM      2  C   UNL     1      48.059   8.935  14.874  0.00  0.00    +0.000 A 
ATOM      3  C   UNL     1      48.266   9.012  16.247  0.00  0.00    +0.000 A 
ATOM      4  C   UNL     1      48.939   7.983  16.908  0.00  0.00    +0.000 A 
ATOM      5  C   UNL     1      49.509   6.898  16.213  0.00  0.00    +0.000 A 
ATOM      6  C   UNL     1      49.275   6.863  14.818  0.00  0.00    +0.000 A 
ENDROOT
BRANCH   5   7
ATOM      7  C   UNL     1      50.284   5.816  16.882  0.00  0.00    +0.000 A 
ATOM      8  C   UNL     1      51.680   5.868  17.037  0.00  0.00    +0.000 A 
ATOM      9  C   UNL     1      52.373   4.836  17.678  0.00  0.00    +0.000 A 
ATOM     10  C   UNL     1      51.657   3.752  18.147  0.00  0.00    +0.000 A 
ATOM     11  N   UNL     1      50.321   3.646  18.035  0.00  0.00    +0.000 NA
ATOM     12  C   UNL     1      49.678   4.674  17.417  0.00  0.00    +0.000 A 
ENDBRANCH   5   7
BRANCH   1  13
ATOM     13  C   UNL     1      48.020   7.606  12.700  0.00  0.00    +0.000 C 
ATOM     14  C   UNL     1      48.092   8.809  11.756  0.00  0.00    +0.000 C 
ATOM     15  C   UNL     1      49.110   7.728  11.625  0.00  0.00    +0.000 C 
BRANCH  13  19
ATOM     16  C   UNL     1      44.946   4.601  11.916  0.00  0.00    +0.000 A 
ATOM     17  C   UNL     1      44.997   5.771  11.156  0.00  0.00    +0.000 A 
ATOM     18  C   UNL     1      45.965   6.748  11.428  0.00  0.00    +0.000 A 
ATOM     19  C   UNL     1      46.914   6.583  12.452  0.00  0.00    +0.000 A 
ATOM     20  C   UNL     1      46.823   5.401  13.219  0.00  0.00    +0.000 A 
ATOM     21  C   UNL     1      45.860   4.421  12.954  0.00  0.00    +0.000 A 
BRANCH  16  23
ATOM     22  N   UNL     1      43.192   2.765  11.371  0.00  0.00    +0.000 NA
ATOM     23  C   UNL     1      43.976   3.584  11.620  0.00  0.00    +0.000 C 
ENDBRANCH  16  23
ENDBRANCH  13  19
ENDBRANCH   1  13
BRANCH   4  24
ATOM     24  O   UNL     1      48.995   8.033  18.276  0.00  0.00    +0.000 OA
ATOM     25  H   UNL     1      49.636   7.377  18.598  0.00  0.00    +0.000 HD
ENDBRANCH   4  24
TORSDOF 5
ENDMDL
MODEL 8
REMARK VINA RESULT:    -5.469      4.950      7.326
REMARK INTER + INTRA:          -7.688
REMARK INTER:                  -7.067
REMARK INTRA:                  -0.621
REMARK UNBOUND:                -0.781
REMARK  Name = 
REMARK  5 active torsions:
REMARK  status: ('A' for Active; 'I' for Inactive)
REMARK    1  A    between atoms: C_2  and  C_3
REMARK    2  A    between atoms: C_6  and  C_7
REMARK    3  A    between atoms: C_7  and  C_8
REMARK    4  A    between atoms: C_11  and  O_12
REMARK    5  A    between atoms: C_13  and  C_14
REMARK                            x       y       z     vdW  Elec       q    Type
REMARK                         _______ _______ _______ _____ _____    ______ ____
ROOT
ATOM      1  C   UNL     1      49.108   6.567  16.544  0.00  0.00    +0.000 A 
ATOM      2  C   UNL     1      48.313   6.843  17.663  0.00  0.00    +0.000 A 
ATOM      3  C   UNL     1      48.283   5.978  18.752  0.00  0.00    +0.000 A 
ATOM      4  C   UNL     1      49.072   4.826  18.748  0.00  0.00    +0.000 A 
ATOM      5  C   UNL     1      49.983   4.550  17.709  0.00  0.00    +0.000 A 
ATOM      6  C   UNL     1      49.980   5.458  16.625  0.00  0.00    +0.000 A 
ENDROOT
BRANCH   5   7
ATOM      7  C   UNL     1      50.881   3.361  17.705  0.00  0.00    +0.000 A 
ATOM      8  C   UNL     1      52.221   3.422  18.126  0.00  0.00    +0.000 A 
ATOM      9  C   UNL     1      53.032   2.283  18.114  0.00  0.00    +0.000 A 
ATOM     10  C   UNL     1      52.492   1.093  17.666  0.00  0.00    +0.000 A 
ATOM     11  N   UNL     1      51.217   0.969  17.256  0.00  0.00    +0.000 NA
ATOM     12  C   UNL     1      50.454   2.095  17.292  0.00  0.00    +0.000 A 
ENDBRANCH   5   7
BRANCH   1  13
ATOM     13  C   UNL     1      48.924   7.353  15.243  0.00  0.00    +0.000 C 
ATOM     14  C   UNL     1      49.131   8.868  15.314  0.00  0.00    +0.000 C 
ATOM     15  C   UNL     1      50.194   8.023  14.698  0.00  0.00    +0.000 C 
BRANCH  13  19
ATOM     16  C   UNL     1      46.167   5.802  12.227  0.00  0.00    +0.000 A 
ATOM     17  C   UNL     1      46.520   7.153  12.231  0.00  0.00    +0.000 A 
ATOM     18  C   UNL     1      47.380   7.655  13.217  0.00  0.00    +0.000 A 
ATOM     19  C   UNL     1      47.923   6.828  14.215  0.00  0.00    +0.000 A 
ATOM     20  C   UNL     1      47.530   5.472  14.201  0.00  0.00    +0.000 A 
ATOM     21  C   UNL     1      46.671   4.963  13.222  0.00  0.00    +0.000 A 
BRANCH  16  23
ATOM     22  N   UNL     1      44.621   4.844  10.374  0.00  0.00    +0.000 NA
ATOM     23  C   UNL     1      45.310   5.277  11.201  0.00  0.00    +0.000 C 
ENDBRANCH  16  23
ENDBRANCH  13  19
ENDBRANCH   1  13
BRANCH   4  24
ATOM     24  O   UNL     1      48.905   3.934  19.775  0.00  0.00    +0.000 OA
ATOM     25  H   UNL     1      48.082   3.435  19.639  0.00  0.00    +0.000 HD
ENDBRANCH   4  24
TORSDOF 5
ENDMDL
MODEL 9
REMARK VINA RESULT:    -5.459      4.516      7.263
REMARK INTER + INTRA:          -7.676
REMARK INTER:                  -6.990
REMARK INTRA:                  -0.686
REMARK UNBOUND:                -0.781
REMARK  Name = 
REMARK  5 active torsions:
REMARK  status: ('A' for Active; 'I' for Inactive)
REMARK    1  A    between atoms: C_2  and  C_3
REMARK    2  A    between atoms: C_6  and  C_7
REMARK    3  A    between atoms: C_7  and  C_8
REMARK    4  A    between atoms: C_11  and  O_12
REMARK    5  A    between atoms: C_13  and  C_14
REMARK                            x       y       z     vdW  Elec       q    Type
REMARK                         _______ _______ _______ _____ _____    ______ ____
ROOT
ATOM      1  C   UNL     1      47.936   5.145  15.627  0.00  0.00    +0.000 A 
ATOM      2  C   UNL     1      47.035   4.241  15.051  0.00  0.00    +0.000 A 
ATOM      3  C   UNL     1      46.391   4.535  13.854  0.00  0.00    +0.000 A 
ATOM      4  C   UNL     1      46.658   5.737  13.196  0.00  0.00    +0.000 A 
ATOM      5  C   UNL     1      47.641   6.637  13.657  0.00  0.00    +0.000 A 
ATOM      6  C   UNL     1      48.271   6.294  14.876  0.00  0.00    +0.000 A 
ENDROOT
BRANCH   5   7
ATOM      7  C   UNL     1      47.991   7.898  12.946  0.00  0.00    +0.000 A 
ATOM      8  C   UNL     1      49.091   7.998  12.078  0.00  0.00    +0.000 A 
ATOM      9  C   UNL     1      49.385   9.198  11.422  0.00  0.00    +0.000 A 
ATOM     10  C   UNL     1      48.575  10.293  11.656  0.00  0.00    +0.000 A 
ATOM     11  N   UNL     1      47.506  10.260  12.471  0.00  0.00    +0.000 NA
ATOM     12  C   UNL     1      47.243   9.073  13.082  0.00  0.00    +0.000 A 
ENDBRANCH   5   7
BRANCH   1  13
ATOM     13  C   UNL     1      48.419   4.956  17.068  0.00  0.00    +0.000 C 
ATOM     14  C   UNL     1      48.300   6.163  18.002  0.00  0.00    +0.000 C 
ATOM     15  C   UNL     1      47.324   5.043  18.141  0.00  0.00    +0.000 C 
BRANCH  13  19
ATOM     16  C   UNL     1      51.752   2.195  17.678  0.00  0.00    +0.000 A 
ATOM     17  C   UNL     1      50.521   1.724  17.216  0.00  0.00    +0.000 A 
ATOM     18  C   UNL     1      49.444   2.605  17.050  0.00  0.00    +0.000 A 
ATOM     19  C   UNL     1      49.564   3.978  17.325  0.00  0.00    +0.000 A 
ATOM     20  C   UNL     1      50.812   4.423  17.813  0.00  0.00    +0.000 A 
ATOM     21  C   UNL     1      51.892   3.550  17.982  0.00  0.00    +0.000 A 
BRANCH  16  23
ATOM     22  N   UNL     1      53.770   0.583  17.944  0.00  0.00    +0.000 NA
ATOM     23  C   UNL     1      52.866   1.301  17.821  0.00  0.00    +0.000 C 
ENDBRANCH  16  23
ENDBRANCH  13  19
ENDBRANCH   1  13
BRANCH   4  24
ATOM     24  O   UNL     1      45.899   6.047  12.099  0.00  0.00    +0.000 OA
ATOM     25  H   UNL     1      44.998   6.278  12.383  0.00  0.00    +0.000 HD
ENDBRANCH   4  24
TORSDOF 5
ENDMDL
