MODEL 1
REMARK VINA RESULT:    -7.499      0.000      0.000
REMARK INTER + INTRA:         -13.335
REMARK INTER:                 -11.664
REMARK INTRA:                  -1.671
REMARK UNBOUND:                -1.671
REMARK  Name = 
REMARK  10 active torsions:
REMARK  status: ('A' for Active; 'I' for Inactive)
REMARK    1  A    between atoms: N_1  and  C_2
REMARK    2  A    between atoms: C_2  and  C_3
REMARK    3  A    between atoms: C_3  and  C_4
REMARK    4  A    between atoms: C_4  and  N_5
REMARK    5  A    between atoms: N_5  and  C_6
REMARK    6  A    between atoms: C_6  and  C_7
REMARK    7  A    between atoms: C_10  and  C_11
REMARK    8  A    between atoms: C_11  and  O_12
REMARK    9  A    between atoms: O_12  and  C_13
REMARK   10  A    between atoms: C_21  and  C_23
REMARK                            x       y       z     vdW  Elec       q    Type
REMARK                         _______ _______ _______ _____ _____    ______ ____
ROOT
ATOM      1  N   UNL     1      46.157   6.979  13.218  0.00  0.00    +0.000 N 
ATOM      2  C   UNL     1      47.334   6.351  13.734  0.00  0.00    +0.000 C 
ATOM      3  O   UNL     1      47.319   5.132  13.906  0.00  0.00    +0.000 OA
ENDROOT
BRANCH   2   4
ATOM      4  C   UNL     1      48.571   7.095  14.142  0.00  0.00    +0.000 A 
ATOM      5  C   UNL     1      49.025   7.338  15.430  0.00  0.00    +0.000 A 
ATOM      6  S   UNL     1      50.469   8.231  15.549  0.00  0.00    +0.000 S 
ATOM      7  C   UNL     1      50.707   8.117  13.880  0.00  0.00    +0.000 A 
ATOM      8  N   UNL     1      51.879   8.530  13.346  0.00  0.00    +0.000 NA
ATOM      9  C   UNL     1      51.986   8.310  12.075  0.00  0.00    +0.000 A 
ATOM     10  N   UNL     1      50.988   7.779  11.301  0.00  0.00    +0.000 N 
ATOM     11  C   UNL     1      49.720   7.528  11.772  0.00  0.00    +0.000 A 
ATOM     12  O   UNL     1      48.791   7.355  10.992  0.00  0.00    +0.000 OA
ATOM     13  C   UNL     1      49.614   7.572  13.226  0.00  0.00    +0.000 A 
ATOM     14  H   UNL     1      51.102   7.728  10.296  0.00  0.00    +0.000 HD
ENDBRANCH   2   4
BRANCH   1  15
ATOM     15  C   UNL     1      45.918   8.422  13.235  0.00  0.00    +0.000 C 
BRANCH  15  16
ATOM     16  C   UNL     1      45.887   9.098  11.867  0.00  0.00    +0.000 C 
BRANCH  16  17
ATOM     17  C   UNL     1      44.493   9.338  11.320  0.00  0.00    +0.000 C 
BRANCH  17  18
ATOM     18  N   UNL     1      43.844  10.314  12.195  0.00  0.00    +0.000 NA
ATOM     19  H   UNL     1      44.241  11.237  12.035  0.00  0.00    +0.000 HD
ATOM     20  H   UNL     1      44.043  10.088  13.171  0.00  0.00    +0.000 HD
ENDBRANCH  17  18
ENDBRANCH  16  17
ENDBRANCH  15  16
ENDBRANCH   1  15
BRANCH   1  21
ATOM     21  C   UNL     1      44.926   6.157  13.234  0.00  0.00    +0.000 C 
BRANCH  21  22
ATOM     22  C   UNL     1      44.574   5.325  12.012  0.00  0.00    +0.000 A 
ATOM     23  C   UNL     1      45.226   5.536  10.788  0.00  0.00    +0.000 A 
ATOM     24  C   UNL     1      45.178   4.575   9.769  0.00  0.00    +0.000 A 
ATOM     25  C   UNL     1      44.469   3.380   9.936  0.00  0.00    +0.000 A 
ATOM     26  C   UNL     1      43.743   3.201  11.120  0.00  0.00    +0.000 A 
ATOM     27  C   UNL     1      43.792   4.162  12.143  0.00  0.00    +0.000 A 
BRANCH  25  28
ATOM     28  C   UNL     1      44.574   2.279   8.907  0.00  0.00    +0.000 C 
BRANCH  28  29
ATOM     29  O   UNL     1      45.954   1.932   8.755  0.00  0.00    +0.000 OA
BRANCH  29  30
ATOM     30  C   UNL     1      46.537   2.187   7.549  0.00  0.00    +0.000 A 
ATOM     31  C   UNL     1      46.161   3.174   6.640  0.00  0.00    +0.000 A 
ATOM     32  C   UNL     1      46.862   3.312   5.442  0.00  0.00    +0.000 A 
ATOM     33  C   UNL     1      47.918   2.456   5.184  0.00  0.00    +0.000 A 
ATOM     34  N   UNL     1      48.311   1.483   6.036  0.00  0.00    +0.000 NA
ATOM     35  C   UNL     1      47.611   1.376   7.192  0.00  0.00    +0.000 A 
ENDBRANCH  29  30
ENDBRANCH  28  29
ENDBRANCH  25  28
ENDBRANCH  21  22
ENDBRANCH   1  21
TORSDOF 10
ENDMDL
MODEL 2
REMARK VINA RESULT:    -7.234      3.585      5.114
REMARK INTER + INTRA:         -12.922
REMARK INTER:                 -11.282
REMARK INTRA:                  -1.640
REMARK UNBOUND:                -1.671
REMARK  Name = 
REMARK  10 active torsions:
REMARK  status: ('A' for Active; 'I' for Inactive)
REMARK    1  A    between atoms: N_1  and  C_2
REMARK    2  A    between atoms: C_2  and  C_3
REMARK    3  A    between atoms: C_3  and  C_4
REMARK    4  A    between atoms: C_4  and  N_5
REMARK    5  A    between atoms: N_5  and  C_6
REMARK    6  A    between atoms: C_6  and  C_7
REMARK    7  A    between atoms: C_10  and  C_11
REMARK    8  A    between atoms: C_11  and  O_12
REMARK    9  A    between atoms: O_12  and  C_13
REMARK   10  A    between atoms: C_21  and  C_23
REMARK                            x       y       z     vdW  Elec       q    Type
REMARK                         _______ _______ _______ _____ _____    ______ ____
ROOT
ATOM      1  N   UNL     1      47.831   5.529  15.568  0.00  0.00    +0.000 N 
ATOM      2  C   UNL     1      48.618   6.634  16.022  0.00  0.00    +0.000 C 
ATOM      3  O   UNL     1      49.157   7.353  15.181  0.00  0.00    +0.000 OA
ENDROOT
BRANCH   2   4
ATOM      4  C   UNL     1      48.883   6.936  17.467  0.00  0.00    +0.000 A 
ATOM      5  C   UNL     1      48.229   7.859  18.271  0.00  0.00    +0.000 A 
ATOM      6  S   UNL     1      48.785   7.966  19.876  0.00  0.00    +0.000 S 
ATOM      7  C   UNL     1      49.756   6.600  19.658  0.00  0.00    +0.000 A 
ATOM      8  N   UNL     1      50.370   6.043  20.727  0.00  0.00    +0.000 NA
ATOM      9  C   UNL     1      51.009   4.951  20.459  0.00  0.00    +0.000 A 
ATOM     10  N   UNL     1      51.133   4.423  19.200  0.00  0.00    +0.000 N 
ATOM     11  C   UNL     1      50.687   5.063  18.067  0.00  0.00    +0.000 A 
ATOM     12  O   UNL     1      51.087   4.717  16.961  0.00  0.00    +0.000 OA
ATOM     13  C   UNL     1      49.796   6.185  18.337  0.00  0.00    +0.000 A 
ATOM     14  H   UNL     1      51.732   3.621  19.046  0.00  0.00    +0.000 HD
ENDBRANCH   2   4
BRANCH   1  15
ATOM     15  C   UNL     1      47.379   4.431  16.423  0.00  0.00    +0.000 C 
BRANCH  15  16
ATOM     16  C   UNL     1      47.845   3.039  16.006  0.00  0.00    +0.000 C 
BRANCH  16  17
ATOM     17  C   UNL     1      48.769   2.365  17.003  0.00  0.00    +0.000 C 
BRANCH  17  18
ATOM     18  N   UNL     1      49.899   1.822  16.251  0.00  0.00    +0.000 NA
ATOM     19  H   UNL     1      50.426   2.581  15.825  0.00  0.00    +0.000 HD
ATOM     20  H   UNL     1      49.556   1.249  15.477  0.00  0.00    +0.000 HD
ENDBRANCH  17  18
ENDBRANCH  16  17
ENDBRANCH  15  16
ENDBRANCH   1  15
BRANCH   1  21
ATOM     21  C   UNL     1      47.992   5.163  14.143  0.00  0.00    +0.000 C 
BRANCH  21  22
ATOM     22  C   UNL     1      46.783   5.213  13.223  0.00  0.00    +0.000 A 
ATOM     23  C   UNL     1      46.688   6.183  12.215  0.00  0.00    +0.000 A 
ATOM     24  C   UNL     1      45.783   6.037  11.154  0.00  0.00    +0.000 A 
ATOM     25  C   UNL     1      44.937   4.925  11.076  0.00  0.00    +0.000 A 
ATOM     26  C   UNL     1      44.963   3.997  12.125  0.00  0.00    +0.000 A 
ATOM     27  C   UNL     1      45.872   4.141  13.186  0.00  0.00    +0.000 A 
BRANCH  25  28
ATOM     28  C   UNL     1      44.099   4.688   9.841  0.00  0.00    +0.000 C 
BRANCH  28  29
ATOM     29  O   UNL     1      44.157   3.296   9.516  0.00  0.00    +0.000 OA
BRANCH  29  30
ATOM     30  C   UNL     1      45.167   2.884   8.698  0.00  0.00    +0.000 A 
ATOM     31  C   UNL     1      45.880   3.676   7.799  0.00  0.00    +0.000 A 
ATOM     32  C   UNL     1      46.893   3.105   7.030  0.00  0.00    +0.000 A 
ATOM     33  C   UNL     1      47.163   1.756   7.175  0.00  0.00    +0.000 A 
ATOM     34  N   UNL     1      46.492   0.953   8.030  0.00  0.00    +0.000 NA
ATOM     35  C   UNL     1      45.515   1.537   8.766  0.00  0.00    +0.000 A 
ENDBRANCH  29  30
ENDBRANCH  28  29
ENDBRANCH  25  28
ENDBRANCH  21  22
ENDBRANCH   1  21
TORSDOF 10
ENDMDL
MODEL 3
REMARK VINA RESULT:    -7.015      1.806      3.065
REMARK INTER + INTRA:         -12.581
REMARK INTER:                 -11.114
REMARK INTRA:                  -1.467
REMARK UNBOUND:                -1.671
REMARK  Name = 
REMARK  10 active torsions:
REMARK  status: ('A' for Active; 'I' for Inactive)
REMARK    1  A    between atoms: N_1  and  C_2
REMARK    2  A    between atoms: C_2  and  C_3
REMARK    3  A    between atoms: C_3  and  C_4
REMARK    4  A    between atoms: C_4  and  N_5
REMARK    5  A    between atoms: N_5  and  C_6
REMARK    6  A    between atoms: C_6  and  C_7
REMARK    7  A    between atoms: C_10  and  C_11
REMARK    8  A    between atoms: C_11  and  O_12
REMARK    9  A    between atoms: O_12  and  C_13
REMARK   10  A    between atoms: C_21  and  C_23
REMARK                            x       y       z     vdW  Elec       q    Type
REMARK                         _______ _______ _______ _____ _____    ______ ____
ROOT
ATOM      1  N   UNL     1      46.753   6.792  13.167  0.00  0.00    +0.000 N 
ATOM      2  C   UNL     1      47.377   7.937  12.579  0.00  0.00    +0.000 C 
ATOM      3  O   UNL     1      46.657   8.845  12.161  0.00  0.00    +0.000 OA
ENDROOT
BRANCH   2   4
ATOM      4  C   UNL     1      48.857   8.076  12.380  0.00  0.00    +0.000 A 
ATOM      5  C   UNL     1      49.561   7.990  11.188  0.00  0.00    +0.000 A 
ATOM      6  S   UNL     1      51.248   8.184  11.309  0.00  0.00    +0.000 S 
ATOM      7  C   UNL     1      51.103   8.653  12.926  0.00  0.00    +0.000 A 
ATOM      8  N   UNL     1      52.185   9.139  13.577  0.00  0.00    +0.000 NA
ATOM      9  C   UNL     1      51.937   9.553  14.777  0.00  0.00    +0.000 A 
ATOM     10  N   UNL     1      50.714   9.450  15.388  0.00  0.00    +0.000 N 
ATOM     11  C   UNL     1      49.645   8.789  14.828  0.00  0.00    +0.000 A 
ATOM     12  O   UNL     1      48.691   8.454  15.522  0.00  0.00    +0.000 OA
ATOM     13  C   UNL     1      49.816   8.485  13.413  0.00  0.00    +0.000 A 
ATOM     14  H   UNL     1      50.615   9.701  16.364  0.00  0.00    +0.000 HD
ENDBRANCH   2   4
BRANCH   1  15
ATOM     15  C   UNL     1      47.438   5.528  13.437  0.00  0.00    +0.000 C 
BRANCH  15  16
ATOM     16  C   UNL     1      47.675   5.212  14.911  0.00  0.00    +0.000 C 
BRANCH  16  17
ATOM     17  C   UNL     1      46.966   3.965  15.404  0.00  0.00    +0.000 C 
BRANCH  17  18
ATOM     18  N   UNL     1      47.928   2.864  15.344  0.00  0.00    +0.000 NA
ATOM     19  H   UNL     1      47.438   1.989  15.173  0.00  0.00    +0.000 HD
ATOM     20  H   UNL     1      48.386   2.757  16.251  0.00  0.00    +0.000 HD
ENDBRANCH  17  18
ENDBRANCH  16  17
ENDBRANCH  15  16
ENDBRANCH   1  15
BRANCH   1  21
ATOM     21  C   UNL     1      45.297   6.659  12.937  0.00  0.00    +0.000 C 
BRANCH  21  22
ATOM     22  C   UNL     1      44.801   5.706  11.862  0.00  0.00    +0.000 A 
ATOM     23  C   UNL     1      45.254   5.817  10.540  0.00  0.00    +0.000 A 
ATOM     24  C   UNL     1      45.094   4.762   9.630  0.00  0.00    +0.000 A 
ATOM     25  C   UNL     1      44.466   3.571  10.010  0.00  0.00    +0.000 A 
ATOM     26  C   UNL     1      43.932   3.486  11.302  0.00  0.00    +0.000 A 
ATOM     27  C   UNL     1      44.094   4.541  12.215  0.00  0.00    +0.000 A 
BRANCH  25  28
ATOM     28  C   UNL     1      44.460   2.379   9.080  0.00  0.00    +0.000 C 
BRANCH  28  29
ATOM     29  O   UNL     1      45.808   1.928   8.916  0.00  0.00    +0.000 OA
BRANCH  29  30
ATOM     30  C   UNL     1      46.406   2.158   7.712  0.00  0.00    +0.000 A 
ATOM     31  C   UNL     1      46.045   3.130   6.781  0.00  0.00    +0.000 A 
ATOM     32  C   UNL     1      46.760   3.243   5.589  0.00  0.00    +0.000 A 
ATOM     33  C   UNL     1      47.814   2.377   5.358  0.00  0.00    +0.000 A 
ATOM     34  N   UNL     1      48.193   1.419   6.232  0.00  0.00    +0.000 NA
ATOM     35  C   UNL     1      47.480   1.336   7.383  0.00  0.00    +0.000 A 
ENDBRANCH  29  30
ENDBRANCH  28  29
ENDBRANCH  25  28
ENDBRANCH  21  22
ENDBRANCH   1  21
TORSDOF 10
ENDMDL
MODEL 4
REMARK VINA RESULT:    -6.916      3.015      4.037
REMARK INTER + INTRA:         -12.427
REMARK INTER:                 -11.088
REMARK INTRA:                  -1.340
REMARK UNBOUND:                -1.671
REMARK  Name = 
REMARK  10 active torsions:
REMARK  status: ('A' for Active; 'I' for Inactive)
REMARK    1  A    between atoms: N_1  and  C_2
REMARK    2  A    between atoms: C_2  and  C_3
REMARK    3  A    between atoms: C_3  and  C_4
REMARK    4  A    between atoms: C_4  and  N_5
REMARK    5  A    between atoms: N_5  and  C_6
REMARK    6  A    between atoms: C_6  and  C_7
REMARK    7  A    between atoms: C_10  and  C_11
REMARK    8  A    between atoms: C_11  and  O_12
REMARK    9  A    between atoms: O_12  and  C_13
REMARK   10  A    between atoms: C_21  and  C_23
REMARK                            x       y       z     vdW  Elec       q    Type
REMARK                         _______ _______ _______ _____ _____    ______ ____
ROOT
ATOM      1  N   UNL     1      48.341   6.168  14.714  0.00  0.00    +0.000 N 
ATOM      2  C   UNL     1      48.626   5.768  16.057  0.00  0.00    +0.000 C 
ATOM      3  O   UNL     1      47.754   5.170  16.686  0.00  0.00    +0.000 OA
ENDROOT
BRANCH   2   4
ATOM      4  C   UNL     1      49.904   6.090  16.773  0.00  0.00    +0.000 A 
ATOM      5  C   UNL     1      50.400   7.344  17.096  0.00  0.00    +0.000 A 
ATOM      6  S   UNL     1      51.896   7.363  17.907  0.00  0.00    +0.000 S 
ATOM      7  C   UNL     1      51.840   5.685  18.103  0.00  0.00    +0.000 A 
ATOM      8  N   UNL     1      52.755   5.077  18.892  0.00  0.00    +0.000 NA
ATOM      9  C   UNL     1      52.559   3.807  19.043  0.00  0.00    +0.000 A 
ATOM     10  N   UNL     1      51.568   3.102  18.413  0.00  0.00    +0.000 N 
ATOM     11  C   UNL     1      50.742   3.650  17.458  0.00  0.00    +0.000 A 
ATOM     12  O   UNL     1      50.095   2.927  16.709  0.00  0.00    +0.000 OA
ATOM     13  C   UNL     1      50.794   5.106  17.402  0.00  0.00    +0.000 A 
ATOM     14  H   UNL     1      51.534   2.093  18.497  0.00  0.00    +0.000 HD
ENDBRANCH   2   4
BRANCH   1  15
ATOM     15  C   UNL     1      49.143   7.124  13.950  0.00  0.00    +0.000 C 
BRANCH  15  16
ATOM     16  C   UNL     1      48.459   8.453  13.639  0.00  0.00    +0.000 C 
BRANCH  16  17
ATOM     17  C   UNL     1      48.646   9.515  14.705  0.00  0.00    +0.000 C 
BRANCH  17  18
ATOM     18  N   UNL     1      47.608   9.307  15.714  0.00  0.00    +0.000 NA
ATOM     19  H   UNL     1      48.023   9.321  16.643  0.00  0.00    +0.000 HD
ATOM     20  H   UNL     1      47.200   8.376  15.603  0.00  0.00    +0.000 HD
ENDBRANCH  17  18
ENDBRANCH  16  17
ENDBRANCH  15  16
ENDBRANCH   1  15
BRANCH   1  21
ATOM     21  C   UNL     1      46.919   6.106  14.309  0.00  0.00    +0.000 C 
BRANCH  21  22
ATOM     22  C   UNL     1      46.531   5.296  13.083  0.00  0.00    +0.000 A 
ATOM     23  C   UNL     1      46.153   3.951  13.203  0.00  0.00    +0.000 A 
ATOM     24  C   UNL     1      45.467   3.297  12.169  0.00  0.00    +0.000 A 
ATOM     25  C   UNL     1      45.149   3.965  10.981  0.00  0.00    +0.000 A 
ATOM     26  C   UNL     1      45.601   5.280  10.818  0.00  0.00    +0.000 A 
ATOM     27  C   UNL     1      46.286   5.936  11.854  0.00  0.00    +0.000 A 
BRANCH  25  28
ATOM     28  C   UNL     1      44.256   3.310   9.953  0.00  0.00    +0.000 C 
BRANCH  28  29
ATOM     29  O   UNL     1      44.904   2.124   9.482  0.00  0.00    +0.000 OA
BRANCH  29  30
ATOM     30  C   UNL     1      45.695   2.237   8.378  0.00  0.00    +0.000 A 
ATOM     31  C   UNL     1      45.832   3.363   7.568  0.00  0.00    +0.000 A 
ATOM     32  C   UNL     1      46.689   3.323   6.469  0.00  0.00    +0.000 A 
ATOM     33  C   UNL     1      47.382   2.155   6.205  0.00  0.00    +0.000 A 
ATOM     34  N   UNL     1      47.274   1.040   6.960  0.00  0.00    +0.000 NA
ATOM     35  C   UNL     1      46.435   1.111   8.024  0.00  0.00    +0.000 A 
ENDBRANCH  29  30
ENDBRANCH  28  29
ENDBRANCH  25  28
ENDBRANCH  21  22
ENDBRANCH   1  21
TORSDOF 10
ENDMDL
MODEL 5
REMARK VINA RESULT:    -6.808      2.869      4.242
REMARK INTER + INTRA:         -12.259
REMARK INTER:                 -11.409
REMARK INTRA:                  -0.851
REMARK UNBOUND:                -1.671
REMARK  Name = 
REMARK  10 active torsions:
REMARK  status: ('A' for Active; 'I' for Inactive)
REMARK    1  A    between atoms: N_1  and  C_2
REMARK    2  A    between atoms: C_2  and  C_3
REMARK    3  A    between atoms: C_3  and  C_4
REMARK    4  A    between atoms: C_4  and  N_5
REMARK    5  A    between atoms: N_5  and  C_6
REMARK    6  A    between atoms: C_6  and  C_7
REMARK    7  A    between atoms: C_10  and  C_11
REMARK    8  A    between atoms: C_11  and  O_12
REMARK    9  A    between atoms: O_12  and  C_13
REMARK   10  A    between atoms: C_21  and  C_23
REMARK                            x       y       z     vdW  Elec       q    Type
REMARK                         _______ _______ _______ _____ _____    ______ ____
ROOT
ATOM      1  N   UNL     1      48.559   7.664  14.247  0.00  0.00    +0.000 N 
ATOM      2  C   UNL     1      49.043   7.105  15.471  0.00  0.00    +0.000 C 
ATOM      3  O   UNL     1      49.623   6.019  15.428  0.00  0.00    +0.000 OA
ENDROOT
BRANCH   2   4
ATOM      4  C   UNL     1      48.833   7.728  16.819  0.00  0.00    +0.000 A 
ATOM      5  C   UNL     1      48.897   9.074  17.147  0.00  0.00    +0.000 A 
ATOM      6  S   UNL     1      48.618   9.451  18.783  0.00  0.00    +0.000 S 
ATOM      7  C   UNL     1      48.138   7.861  19.094  0.00  0.00    +0.000 A 
ATOM      8  N   UNL     1      47.591   7.554  20.293  0.00  0.00    +0.000 NA
ATOM      9  C   UNL     1      47.176   6.332  20.385  0.00  0.00    +0.000 A 
ATOM     10  N   UNL     1      47.332   5.391  19.402  0.00  0.00    +0.000 N 
ATOM     11  C   UNL     1      48.053   5.615  18.251  0.00  0.00    +0.000 A 
ATOM     12  O   UNL     1      48.427   4.674  17.561  0.00  0.00    +0.000 OA
ATOM     13  C   UNL     1      48.364   7.020  18.016  0.00  0.00    +0.000 A 
ATOM     14  H   UNL     1      47.075   4.428  19.580  0.00  0.00    +0.000 HD
ENDBRANCH   2   4
BRANCH   1  15
ATOM     15  C   UNL     1      47.612   8.777  14.167  0.00  0.00    +0.000 C 
BRANCH  15  16
ATOM     16  C   UNL     1      48.017   9.917  13.237  0.00  0.00    +0.000 C 
BRANCH  16  17
ATOM     17  C   UNL     1      46.976  10.270  12.192  0.00  0.00    +0.000 C 
BRANCH  17  18
ATOM     18  N   UNL     1      45.685   9.787  12.681  0.00  0.00    +0.000 NA
ATOM     19  H   UNL     1      45.767   8.813  12.963  0.00  0.00    +0.000 HD
ATOM     20  H   UNL     1      45.000   9.804  11.923  0.00  0.00    +0.000 HD
ENDBRANCH  17  18
ENDBRANCH  16  17
ENDBRANCH  15  16
ENDBRANCH   1  15
BRANCH   1  21
ATOM     21  C   UNL     1      48.518   6.746  13.088  0.00  0.00    +0.000 C 
BRANCH  21  22
ATOM     22  C   UNL     1      47.185   6.160  12.652  0.00  0.00    +0.000 A 
ATOM     23  C   UNL     1      46.582   6.564  11.452  0.00  0.00    +0.000 A 
ATOM     24  C   UNL     1      45.561   5.804  10.864  0.00  0.00    +0.000 A 
ATOM     25  C   UNL     1      45.103   4.626  11.463  0.00  0.00    +0.000 A 
ATOM     26  C   UNL     1      45.637   4.263  12.706  0.00  0.00    +0.000 A 
ATOM     27  C   UNL     1      46.662   5.023  13.294  0.00  0.00    +0.000 A 
BRANCH  25  28
ATOM     28  C   UNL     1      44.134   3.724  10.734  0.00  0.00    +0.000 C 
BRANCH  28  29
ATOM     29  O   UNL     1      44.244   3.984   9.331  0.00  0.00    +0.000 OA
BRANCH  29  30
ATOM     30  C   UNL     1      45.174   3.273   8.632  0.00  0.00    +0.000 A 
ATOM     31  C   UNL     1      46.032   3.768   7.653  0.00  0.00    +0.000 A 
ATOM     32  C   UNL     1      46.935   2.910   7.027  0.00  0.00    +0.000 A 
ATOM     33  C   UNL     1      46.952   1.576   7.394  0.00  0.00    +0.000 A 
ATOM     34  N   UNL     1      46.134   1.054   8.335  0.00  0.00    +0.000 NA
ATOM     35  C   UNL     1      45.269   1.914   8.926  0.00  0.00    +0.000 A 
ENDBRANCH  29  30
ENDBRANCH  28  29
ENDBRANCH  25  28
ENDBRANCH  21  22
ENDBRANCH   1  21
TORSDOF 10
ENDMDL
MODEL 6
REMARK VINA RESULT:    -6.574      3.166      4.644
REMARK INTER + INTRA:         -11.896
REMARK INTER:                 -10.271
REMARK INTRA:                  -1.625
REMARK UNBOUND:                -1.671
REMARK  Name = 
REMARK  10 active torsions:
REMARK  status: ('A' for Active; 'I' for Inactive)
REMARK    1  A    between atoms: N_1  and  C_2
REMARK    2  A    between atoms: C_2  and  C_3
REMARK    3  A    between atoms: C_3  and  C_4
REMARK    4  A    between atoms: C_4  and  N_5
REMARK    5  A    between atoms: N_5  and  C_6
REMARK    6  A    between atoms: C_6  and  C_7
REMARK    7  A    between atoms: C_10  and  C_11
REMARK    8  A    between atoms: C_11  and  O_12
REMARK    9  A    between atoms: O_12  and  C_13
REMARK   10  A    between atoms: C_21  and  C_23
REMARK                            x       y       z     vdW  Elec       q    Type
REMARK                         _______ _______ _______ _____ _____    ______ ____
ROOT
ATOM      1  N   UNL     1      47.946   5.988  15.554  0.00  0.00    +0.000 N 
ATOM      2  C   UNL     1      48.758   7.165  15.565  0.00  0.00    +0.000 C 
ATOM      3  O   UNL     1      49.159   7.608  14.489  0.00  0.00    +0.000 OA
ENDROOT
BRANCH   2   4
ATOM      4  C   UNL     1      49.207   7.862  16.815  0.00  0.00    +0.000 A 
ATOM      5  C   UNL     1      48.562   8.889  17.488  0.00  0.00    +0.000 A 
ATOM      6  S   UNL     1      49.351   9.471  18.880  0.00  0.00    +0.000 S 
ATOM      7  C   UNL     1      50.468   8.206  18.807  0.00  0.00    +0.000 A 
ATOM      8  N   UNL     1      51.327   8.017  19.835  0.00  0.00    +0.000 NA
ATOM      9  C   UNL     1      52.071   6.965  19.715  0.00  0.00    +0.000 A 
ATOM     10  N   UNL     1      52.066   6.142  18.619  0.00  0.00    +0.000 N 
ATOM     11  C   UNL     1      51.348   6.411  17.476  0.00  0.00    +0.000 A 
ATOM     12  O   UNL     1      51.609   5.832  16.429  0.00  0.00    +0.000 OA
ATOM     13  C   UNL     1      50.353   7.465  17.642  0.00  0.00    +0.000 A 
ATOM     14  H   UNL     1      52.746   5.395  18.546  0.00  0.00    +0.000 HD
ENDBRANCH   2   4
BRANCH   1  15
ATOM     15  C   UNL     1      47.641   5.185  16.739  0.00  0.00    +0.000 C 
BRANCH  15  16
ATOM     16  C   UNL     1      48.596   4.025  17.009  0.00  0.00    +0.000 C 
BRANCH  16  17
ATOM     17  C   UNL     1      47.917   2.678  17.157  0.00  0.00    +0.000 C 
BRANCH  17  18
ATOM     18  N   UNL     1      46.554   2.926  17.626  0.00  0.00    +0.000 NA
ATOM     19  H   UNL     1      46.036   2.051  17.655  0.00  0.00    +0.000 HD
ATOM     20  H   UNL     1      46.062   3.521  16.956  0.00  0.00    +0.000 HD
ENDBRANCH  17  18
ENDBRANCH  16  17
ENDBRANCH  15  16
ENDBRANCH   1  15
BRANCH   1  21
ATOM     21  C   UNL     1      47.922   5.230  14.283  0.00  0.00    +0.000 C 
BRANCH  21  22
ATOM     22  C   UNL     1      46.708   5.340  13.376  0.00  0.00    +0.000 A 
ATOM     23  C   UNL     1      46.761   6.093  12.194  0.00  0.00    +0.000 A 
ATOM     24  C   UNL     1      45.800   5.927  11.187  0.00  0.00    +0.000 A 
ATOM     25  C   UNL     1      44.750   5.013  11.336  0.00  0.00    +0.000 A 
ATOM     26  C   UNL     1      44.639   4.323  12.550  0.00  0.00    +0.000 A 
ATOM     27  C   UNL     1      45.603   4.487  13.558  0.00  0.00    +0.000 A 
BRANCH  25  28
ATOM     28  C   UNL     1      43.829   4.713  10.177  0.00  0.00    +0.000 C 
BRANCH  28  29
ATOM     29  O   UNL     1      43.986   3.336   9.820  0.00  0.00    +0.000 OA
BRANCH  29  30
ATOM     30  C   UNL     1      44.972   3.027   8.930  0.00  0.00    +0.000 A 
ATOM     31  C   UNL     1      45.592   3.905   8.043  0.00  0.00    +0.000 A 
ATOM     32  C   UNL     1      46.593   3.435   7.193  0.00  0.00    +0.000 A 
ATOM     33  C   UNL     1      46.942   2.097   7.248  0.00  0.00    +0.000 A 
ATOM     34  N   UNL     1      46.363   1.213   8.089  0.00  0.00    +0.000 NA
ATOM     35  C   UNL     1      45.396   1.700   8.905  0.00  0.00    +0.000 A 
ENDBRANCH  29  30
ENDBRANCH  28  29
ENDBRANCH  25  28
ENDBRANCH  21  22
ENDBRANCH   1  21
TORSDOF 10
ENDMDL
MODEL 7
REMARK VINA RESULT:    -6.555      2.009      3.317
REMARK INTER + INTRA:         -11.866
REMARK INTER:                 -10.190
REMARK INTRA:                  -1.676
REMARK UNBOUND:                -1.671
REMARK  Name = 
REMARK  10 active torsions:
REMARK  status: ('A' for Active; 'I' for Inactive)
REMARK    1  A    between atoms: N_1  and  C_2
REMARK    2  A    between atoms: C_2  and  C_3
REMARK    3  A    between atoms: C_3  and  C_4
REMARK    4  A    between atoms: C_4  and  N_5
REMARK    5  A    between atoms: N_5  and  C_6
REMARK    6  A    between atoms: C_6  and  C_7
REMARK    7  A    between atoms: C_10  and  C_11
REMARK    8  A    between atoms: C_11  and  O_12
REMARK    9  A    between atoms: O_12  and  C_13
REMARK   10  A    between atoms: C_21  and  C_23
REMARK                            x       y       z     vdW  Elec       q    Type
REMARK                         _______ _______ _______ _____ _____    ______ ____
ROOT
ATOM      1  N   UNL     1      47.923   8.223  13.896  0.00  0.00    +0.000 N 
ATOM      2  C   UNL     1      48.395   9.335  13.130  0.00  0.00    +0.000 C 
ATOM      3  O   UNL     1      47.571  10.015  12.519  0.00  0.00    +0.000 OA
ENDROOT
BRANCH   2   4
ATOM      4  C   UNL     1      49.843   9.689  12.971  0.00  0.00    +0.000 A 
ATOM      5  C   UNL     1      50.563  10.642  13.675  0.00  0.00    +0.000 A 
ATOM      6  S   UNL     1      52.200  10.806  13.239  0.00  0.00    +0.000 S 
ATOM      7  C   UNL     1      52.104   9.429  12.264  0.00  0.00    +0.000 A 
ATOM      8  N   UNL     1      53.235   8.909  11.734  0.00  0.00    +0.000 NA
ATOM      9  C   UNL     1      53.054   7.805  11.084  0.00  0.00    +0.000 A 
ATOM     10  N   UNL     1      51.827   7.232  10.871  0.00  0.00    +0.000 N 
ATOM     11  C   UNL     1      50.642   7.831  11.228  0.00  0.00    +0.000 A 
ATOM     12  O   UNL     1      49.582   7.444  10.749  0.00  0.00    +0.000 OA
ATOM     13  C   UNL     1      50.805   8.965  12.130  0.00  0.00    +0.000 A 
ATOM     14  H   UNL     1      51.747   6.422  10.267  0.00  0.00    +0.000 HD
ENDBRANCH   2   4
BRANCH   1  15
ATOM     15  C   UNL     1      48.781   7.164  14.428  0.00  0.00    +0.000 C 
BRANCH  15  16
ATOM     16  C   UNL     1      49.102   7.265  15.917  0.00  0.00    +0.000 C 
BRANCH  16  17
ATOM     17  C   UNL     1      49.052   5.942  16.657  0.00  0.00    +0.000 C 
BRANCH  17  18
ATOM     18  N   UNL     1      48.277   5.012  15.837  0.00  0.00    +0.000 NA
ATOM     19  H   UNL     1      47.338   4.918  16.219  0.00  0.00    +0.000 HD
ATOM     20  H   UNL     1      48.694   4.081  15.883  0.00  0.00    +0.000 HD
ENDBRANCH  17  18
ENDBRANCH  16  17
ENDBRANCH  15  16
ENDBRANCH   1  15
BRANCH   1  21
ATOM     21  C   UNL     1      46.529   7.802  13.634  0.00  0.00    +0.000 C 
BRANCH  21  22
ATOM     22  C   UNL     1      46.273   6.600  12.739  0.00  0.00    +0.000 A 
ATOM     23  C   UNL     1      45.860   5.376  13.284  0.00  0.00    +0.000 A 
ATOM     24  C   UNL     1      45.288   4.382  12.477  0.00  0.00    +0.000 A 
ATOM     25  C   UNL     1      45.123   4.577  11.101  0.00  0.00    +0.000 A 
ATOM     26  C   UNL     1      45.614   5.760  10.535  0.00  0.00    +0.000 A 
ATOM     27  C   UNL     1      46.184   6.758  11.344  0.00  0.00    +0.000 A 
BRANCH  25  28
ATOM     28  C   UNL     1      44.345   3.578  10.276  0.00  0.00    +0.000 C 
BRANCH  28  29
ATOM     29  O   UNL     1      44.589   3.848   8.892  0.00  0.00    +0.000 OA
BRANCH  29  30
ATOM     30  C   UNL     1      45.535   3.095   8.262  0.00  0.00    +0.000 A 
ATOM     31  C   UNL     1      46.446   3.539   7.306  0.00  0.00    +0.000 A 
ATOM     32  C   UNL     1      47.360   2.642   6.753  0.00  0.00    +0.000 A 
ATOM     33  C   UNL     1      47.333   1.322   7.168  0.00  0.00    +0.000 A 
ATOM     34  N   UNL     1      46.463   0.850   8.088  0.00  0.00    +0.000 NA
ATOM     35  C   UNL     1      45.590   1.747   8.608  0.00  0.00    +0.000 A 
ENDBRANCH  29  30
ENDBRANCH  28  29
ENDBRANCH  25  28
ENDBRANCH  21  22
ENDBRANCH   1  21
TORSDOF 10
ENDMDL
MODEL 8
REMARK VINA RESULT:    -6.371      3.136      5.394
REMARK INTER + INTRA:         -11.580
REMARK INTER:                  -9.854
REMARK INTRA:                  -1.726
REMARK UNBOUND:                -1.671
REMARK  Name = 
REMARK  10 active torsions:
REMARK  status: ('A' for Active; 'I' for Inactive)
REMARK    1  A    between atoms: N_1  and  C_2
REMARK    2  A    between atoms: C_2  and  C_3
REMARK    3  A    between atoms: C_3  and  C_4
REMARK    4  A    between atoms: C_4  and  N_5
REMARK    5  A    between atoms: N_5  and  C_6
REMARK    6  A    between atoms: C_6  and  C_7
REMARK    7  A    between atoms: C_10  and  C_11
REMARK    8  A    between atoms: C_11  and  O_12
REMARK    9  A    between atoms: O_12  and  C_13
REMARK   10  A    between atoms: C_21  and  C_23
REMARK                            x       y       z     vdW  Elec       q    Type
REMARK                         _______ _______ _______ _____ _____    ______ ____
ROOT
ATOM      1  N   UNL     1      49.178   8.377  15.788  0.00  0.00    +0.000 N 
ATOM      2  C   UNL     1      49.998   7.205  15.780  0.00  0.00    +0.000 C 
ATOM      3  O   UNL     1      50.756   7.029  14.827  0.00  0.00    +0.000 OA
ENDROOT
BRANCH   2   4
ATOM      4  C   UNL     1      49.945   6.139  16.833  0.00  0.00    +0.000 A 
ATOM      5  C   UNL     1      50.679   6.075  18.009  0.00  0.00    +0.000 A 
ATOM      6  S   UNL     1      50.388   4.714  18.989  0.00  0.00    +0.000 S 
ATOM      7  C   UNL     1      49.076   4.267  18.024  0.00  0.00    +0.000 A 
ATOM      8  N   UNL     1      48.263   3.264  18.429  0.00  0.00    +0.000 NA
ATOM      9  C   UNL     1      47.241   3.070  17.660  0.00  0.00    +0.000 A 
ATOM     10  N   UNL     1      47.017   3.753  16.493  0.00  0.00    +0.000 N 
ATOM     11  C   UNL     1      47.918   4.641  15.954  0.00  0.00    +0.000 A 
ATOM     12  O   UNL     1      47.826   4.983  14.781  0.00  0.00    +0.000 OA
ATOM     13  C   UNL     1      48.979   5.035  16.874  0.00  0.00    +0.000 A 
ATOM     14  H   UNL     1      46.251   3.481  15.889  0.00  0.00    +0.000 HD
ENDBRANCH   2   4
BRANCH   1  15
ATOM     15  C   UNL     1      48.036   8.580  16.681  0.00  0.00    +0.000 C 
BRANCH  15  16
ATOM     16  C   UNL     1      48.364   9.204  18.034  0.00  0.00    +0.000 C 
BRANCH  16  17
ATOM     17  C   UNL     1      47.528   8.678  19.184  0.00  0.00    +0.000 C 
BRANCH  17  18
ATOM     18  N   UNL     1      47.153   7.303  18.857  0.00  0.00    +0.000 NA
ATOM     19  H   UNL     1      47.206   6.724  19.692  0.00  0.00    +0.000 HD
ATOM     20  H   UNL     1      47.829   6.908  18.199  0.00  0.00    +0.000 HD
ENDBRANCH  17  18
ENDBRANCH  16  17
ENDBRANCH  15  16
ENDBRANCH   1  15
BRANCH   1  21
ATOM     21  C   UNL     1      49.085   9.110  14.506  0.00  0.00    +0.000 C 
BRANCH  21  22
ATOM     22  C   UNL     1      48.043   8.686  13.483  0.00  0.00    +0.000 A 
ATOM     23  C   UNL     1      48.315   7.663  12.564  0.00  0.00    +0.000 A 
ATOM     24  C   UNL     1      47.280   7.024  11.865  0.00  0.00    +0.000 A 
ATOM     25  C   UNL     1      45.945   7.398  12.055  0.00  0.00    +0.000 A 
ATOM     26  C   UNL     1      45.672   8.478  12.904  0.00  0.00    +0.000 A 
ATOM     27  C   UNL     1      46.708   9.116  13.607  0.00  0.00    +0.000 A 
BRANCH  25  28
ATOM     28  C   UNL     1      44.830   6.587  11.437  0.00  0.00    +0.000 C 
BRANCH  28  29
ATOM     29  O   UNL     1      45.148   5.199  11.579  0.00  0.00    +0.000 OA
BRANCH  29  30
ATOM     30  C   UNL     1      45.101   4.425  10.457  0.00  0.00    +0.000 A 
ATOM     31  C   UNL     1      44.692   3.095  10.384  0.00  0.00    +0.000 A 
ATOM     32  C   UNL     1      44.697   2.438   9.155  0.00  0.00    +0.000 A 
ATOM     33  C   UNL     1      45.119   3.127   8.031  0.00  0.00    +0.000 A 
ATOM     34  N   UNL     1      45.528   4.414   8.059  0.00  0.00    +0.000 NA
ATOM     35  C   UNL     1      45.509   5.027   9.269  0.00  0.00    +0.000 A 
ENDBRANCH  29  30
ENDBRANCH  28  29
ENDBRANCH  25  28
ENDBRANCH  21  22
ENDBRANCH   1  21
TORSDOF 10
ENDMDL
MODEL 9
REMARK VINA RESULT:    -6.328      2.571      4.149
REMARK INTER + INTRA:         -11.513
REMARK INTER:                 -10.166
REMARK INTRA:                  -1.347
REMARK UNBOUND:                -1.671
REMARK  Name = 
REMARK  10 active torsions:
REMARK  status: ('A' for Active; 'I' for Inactive)
REMARK    1  A    between atoms: N_1  and  C_2
REMARK    2  A    between atoms: C_2  and  C_3
REMARK    3  A    between atoms: C_3  and  C_4
REMARK    4  A    between atoms: C_4  and  N_5
REMARK    5  A    between atoms: N_5  and  C_6
REMARK    6  A    between atoms: C_6  and  C_7
REMARK    7  A    between atoms: C_10  and  C_11
REMARK    8  A    between atoms: C_11  and  O_12
REMARK    9  A    between atoms: O_12  and  C_13
REMARK   10  A    between atoms: C_21  and  C_23
REMARK                            x       y       z     vdW  Elec       q    Type
REMARK                         _______ _______ _______ _____ _____    ______ ____
ROOT
ATOM      1  N   UNL     1      48.459   7.208  13.959  0.00  0.00    +0.000 N 
ATOM      2  C   UNL     1      49.015   7.523  15.238  0.00  0.00    +0.000 C 
ATOM      3  O   UNL     1      48.315   8.132  16.047  0.00  0.00    +0.000 OA
ENDROOT
BRANCH   2   4
ATOM      4  C   UNL     1      50.427   7.212  15.637  0.00  0.00    +0.000 A 
ATOM      5  C   UNL     1      51.563   7.966  15.381  0.00  0.00    +0.000 A 
ATOM      6  S   UNL     1      53.026   7.322  15.965  0.00  0.00    +0.000 S 
ATOM      7  C   UNL     1      52.189   6.129  16.821  0.00  0.00    +0.000 A 
ATOM      8  N   UNL     1      52.859   5.342  17.693  0.00  0.00    +0.000 NA
ATOM      9  C   UNL     1      52.104   4.529  18.358  0.00  0.00    +0.000 A 
ATOM     10  N   UNL     1      50.753   4.402  18.163  0.00  0.00    +0.000 N 
ATOM     11  C   UNL     1      50.072   5.046  17.155  0.00  0.00    +0.000 A 
ATOM     12  O   UNL     1      48.954   4.671  16.825  0.00  0.00    +0.000 OA
ATOM     13  C   UNL     1      50.837   6.111  16.517  0.00  0.00    +0.000 A 
ATOM     14  H   UNL     1      50.240   3.675  18.646  0.00  0.00    +0.000 HD
ENDBRANCH   2   4
BRANCH   1  15
ATOM     15  C   UNL     1      49.241   6.760  12.807  0.00  0.00    +0.000 C 
BRANCH  15  16
ATOM     16  C   UNL     1      49.457   7.803  11.714  0.00  0.00    +0.000 C 
BRANCH  16  17
ATOM     17  C   UNL     1      50.886   8.295  11.593  0.00  0.00    +0.000 C 
BRANCH  17  18
ATOM     18  N   UNL     1      51.634   7.281  10.850  0.00  0.00    +0.000 NA
ATOM     19  H   UNL     1      51.906   6.526  11.476  0.00  0.00    +0.000 HD
ATOM     20  H   UNL     1      52.505   7.683  10.499  0.00  0.00    +0.000 HD
ENDBRANCH  17  18
ENDBRANCH  16  17
ENDBRANCH  15  16
ENDBRANCH   1  15
BRANCH   1  21
ATOM     21  C   UNL     1      47.207   7.916  13.607  0.00  0.00    +0.000 C 
BRANCH  21  22
ATOM     22  C   UNL     1      46.070   7.137  12.966  0.00  0.00    +0.000 A 
ATOM     23  C   UNL     1      45.361   7.667  11.879  0.00  0.00    +0.000 A 
ATOM     24  C   UNL     1      44.568   6.847  11.063  0.00  0.00    +0.000 A 
ATOM     25  C   UNL     1      44.450   5.476  11.316  0.00  0.00    +0.000 A 
ATOM     26  C   UNL     1      45.084   4.955  12.451  0.00  0.00    +0.000 A 
ATOM     27  C   UNL     1      45.881   5.775  13.267  0.00  0.00    +0.000 A 
BRANCH  25  28
ATOM     28  C   UNL     1      43.743   4.575  10.331  0.00  0.00    +0.000 C 
BRANCH  28  29
ATOM     29  O   UNL     1      44.437   3.325  10.284  0.00  0.00    +0.000 OA
BRANCH  29  30
ATOM     30  C   UNL     1      45.234   3.089   9.202  0.00  0.00    +0.000 A 
ATOM     31  C   UNL     1      45.735   1.854   8.796  0.00  0.00    +0.000 A 
ATOM     32  C   UNL     1      46.539   1.775   7.659  0.00  0.00    +0.000 A 
ATOM     33  C   UNL     1      46.825   2.936   6.962  0.00  0.00    +0.000 A 
ATOM     34  N   UNL     1      46.364   4.153   7.325  0.00  0.00    +0.000 NA
ATOM     35  C   UNL     1      45.583   4.197   8.433  0.00  0.00    +0.000 A 
ENDBRANCH  29  30
ENDBRANCH  28  29
ENDBRANCH  25  28
ENDBRANCH  21  22
ENDBRANCH   1  21
TORSDOF 10
ENDMDL
