MODEL 1
REMARK VINA RESULT:    -8.434      0.000      0.000
REMARK INTER + INTRA:         -11.480
REMARK INTER:                 -10.899
REMARK INTRA:                  -0.581
REMARK UNBOUND:                -0.581
REMARK  Name = 
REMARK  5 active torsions:
REMARK  status: ('A' for Active; 'I' for Inactive)
REMARK    1  A    between atoms: C_2  and  C_4
REMARK    2  A    between atoms: C_7  and  N_8
REMARK    3  A    between atoms: N_8  and  C_9
REMARK    4  A    between atoms: C_9  and  C_10
REMARK    5  A    between atoms: C_14  and  C_15
REMARK                            x       y       z     vdW  Elec       q    Type
REMARK                         _______ _______ _______ _____ _____    ______ ____
ROOT
ATOM      1  N   UNL     1      43.782   4.806   9.796  0.00  0.00    +0.000 N 
ATOM      2  H   UNL     1      43.996   5.788   9.646  0.00  0.00    +0.000 HD
ENDROOT
BRANCH   1   6
ATOM      3  C   UNL     1      46.359   2.283   7.813  0.00  0.00    +0.000 A 
ATOM      4  C   UNL     1      46.355   3.643   7.546  0.00  0.00    +0.000 A 
ATOM      5  N   UNL     1      45.494   4.510   8.152  0.00  0.00    +0.000 NA
ATOM      6  C   UNL     1      44.624   3.983   9.040  0.00  0.00    +0.000 A 
ATOM      7  C   UNL     1      44.634   2.600   9.277  0.00  0.00    +0.000 A 
ATOM      8  N   UNL     1      45.477   1.719   8.679  0.00  0.00    +0.000 NA
BRANCH   3  10
ATOM      9  N   UNL     1      48.369   1.982   6.468  0.00  0.00    +0.000 N 
ATOM     10  C   UNL     1      47.349   1.389   7.162  0.00  0.00    +0.000 C 
ATOM     11  O   UNL     1      47.276   0.164   7.254  0.00  0.00    +0.000 OA
ATOM     12  H   UNL     1      49.104   1.383   6.120  0.00  0.00    +0.000 HD
ATOM     13  H   UNL     1      48.544   2.975   6.572  0.00  0.00    +0.000 HD
ENDBRANCH   3  10
ENDBRANCH   1   6
BRANCH   1  14
ATOM     14  C   UNL     1      43.659   4.475  11.211  0.00  0.00    +0.000 C 
BRANCH  14  15
ATOM     15  C   UNL     1      44.949   4.823  11.909  0.00  0.00    +0.000 A 
ATOM     16  C   UNL     1      45.536   3.974  12.834  0.00  0.00    +0.000 A 
ATOM     17  N   UNL     1      46.671   4.254  13.510  0.00  0.00    +0.000 NA
ATOM     18  C   UNL     1      47.251   5.450  13.254  0.00  0.00    +0.000 A 
ATOM     19  C   UNL     1      46.764   6.399  12.351  0.00  0.00    +0.000 A 
ATOM     20  C   UNL     1      45.584   6.051  11.680  0.00  0.00    +0.000 A 
BRANCH  19  21
ATOM     21  C   UNL     1      47.445   7.680  12.118  0.00  0.00    +0.000 A 
ATOM     22  C   UNL     1      48.786   7.743  11.711  0.00  0.00    +0.000 A 
ATOM     23  C   UNL     1      49.404   8.971  11.495  0.00  0.00    +0.000 A 
ATOM     24  C   UNL     1      48.662  10.119  11.695  0.00  0.00    +0.000 A 
ATOM     25  N   UNL     1      47.373  10.119  12.091  0.00  0.00    +0.000 NA
ATOM     26  C   UNL     1      46.802   8.910  12.288  0.00  0.00    +0.000 A 
ENDBRANCH  19  21
ENDBRANCH  14  15
ENDBRANCH   1  14
TORSDOF 5
ENDMDL
MODEL 2
REMARK VINA RESULT:    -8.314      1.815      3.381
REMARK INTER + INTRA:         -11.325
REMARK INTER:                 -10.664
REMARK INTRA:                  -0.661
REMARK UNBOUND:                -0.581
REMARK  Name = 
REMARK  5 active torsions:
REMARK  status: ('A' for Active; 'I' for Inactive)
REMARK    1  A    between atoms: C_2  and  C_4
REMARK    2  A    between atoms: C_7  and  N_8
REMARK    3  A    between atoms: N_8  and  C_9
REMARK    4  A    between atoms: C_9  and  C_10
REMARK    5  A    between atoms: C_14  and  C_15
REMARK                            x       y       z     vdW  Elec       q    Type
REMARK                         _______ _______ _______ _____ _____    ______ ____
ROOT
ATOM      1  N   UNL     1      43.804   4.866   9.814  0.00  0.00    +0.000 N 
ATOM      2  H   UNL     1      43.966   5.846   9.597  0.00  0.00    +0.000 HD
ENDROOT
BRANCH   1   6
ATOM      3  C   UNL     1      46.353   2.325   7.817  0.00  0.00    +0.000 A 
ATOM      4  C   UNL     1      46.340   3.681   7.532  0.00  0.00    +0.000 A 
ATOM      5  N   UNL     1      45.487   4.554   8.142  0.00  0.00    +0.000 NA
ATOM      6  C   UNL     1      44.635   4.035   9.053  0.00  0.00    +0.000 A 
ATOM      7  C   UNL     1      44.654   2.656   9.308  0.00  0.00    +0.000 A 
ATOM      8  N   UNL     1      45.489   1.770   8.707  0.00  0.00    +0.000 NA
BRANCH   3  10
ATOM      9  N   UNL     1      48.384   2.012   6.507  0.00  0.00    +0.000 N 
ATOM     10  C   UNL     1      47.335   1.425   7.160  0.00  0.00    +0.000 C 
ATOM     11  O   UNL     1      47.228   0.201   7.213  0.00  0.00    +0.000 OA
ATOM     12  H   UNL     1      49.111   1.405   6.156  0.00  0.00    +0.000 HD
ATOM     13  H   UNL     1      48.582   2.997   6.645  0.00  0.00    +0.000 HD
ENDBRANCH   3  10
ENDBRANCH   1   6
BRANCH   1  14
ATOM     14  C   UNL     1      43.779   4.611  11.249  0.00  0.00    +0.000 C 
BRANCH  14  15
ATOM     15  C   UNL     1      44.890   5.391  11.904  0.00  0.00    +0.000 A 
ATOM     16  C   UNL     1      45.314   6.617  11.415  0.00  0.00    +0.000 A 
ATOM     17  N   UNL     1      46.326   7.338  11.945  0.00  0.00    +0.000 NA
ATOM     18  C   UNL     1      46.953   6.806  13.020  0.00  0.00    +0.000 A 
ATOM     19  C   UNL     1      46.630   5.581  13.610  0.00  0.00    +0.000 A 
ATOM     20  C   UNL     1      45.572   4.880  13.016  0.00  0.00    +0.000 A 
BRANCH  19  21
ATOM     21  C   UNL     1      47.352   5.060  14.779  0.00  0.00    +0.000 A 
ATOM     22  C   UNL     1      47.141   3.759  15.261  0.00  0.00    +0.000 A 
ATOM     23  C   UNL     1      47.841   3.292  16.369  0.00  0.00    +0.000 A 
ATOM     24  C   UNL     1      48.743   4.143  16.977  0.00  0.00    +0.000 A 
ATOM     25  N   UNL     1      48.982   5.403  16.562  0.00  0.00    +0.000 NA
ATOM     26  C   UNL     1      48.289   5.824  15.481  0.00  0.00    +0.000 A 
ENDBRANCH  19  21
ENDBRANCH  14  15
ENDBRANCH   1  14
TORSDOF 5
ENDMDL
MODEL 3
REMARK VINA RESULT:    -7.827      3.001      7.166
REMARK INTER + INTRA:         -10.696
REMARK INTER:                 -10.310
REMARK INTRA:                  -0.386
REMARK UNBOUND:                -0.581
REMARK  Name = 
REMARK  5 active torsions:
REMARK  status: ('A' for Active; 'I' for Inactive)
REMARK    1  A    between atoms: C_2  and  C_4
REMARK    2  A    between atoms: C_7  and  N_8
REMARK    3  A    between atoms: N_8  and  C_9
REMARK    4  A    between atoms: C_9  and  C_10
REMARK    5  A    between atoms: C_14  and  C_15
REMARK                            x       y       z     vdW  Elec       q    Type
REMARK                         _______ _______ _______ _____ _____    ______ ____
ROOT
ATOM      1  N   UNL     1      47.385   6.511  12.296  0.00  0.00    +0.000 N 
ATOM      2  H   UNL     1      48.161   7.153  12.165  0.00  0.00    +0.000 HD
ENDROOT
BRANCH   1   6
ATOM      3  C   UNL     1      47.395   4.571  15.926  0.00  0.00    +0.000 A 
ATOM      4  C   UNL     1      48.214   5.667  15.707  0.00  0.00    +0.000 A 
ATOM      5  N   UNL     1      48.271   6.317  14.509  0.00  0.00    +0.000 NA
ATOM      6  C   UNL     1      47.482   5.842  13.521  0.00  0.00    +0.000 A 
ATOM      7  C   UNL     1      46.677   4.718  13.762  0.00  0.00    +0.000 A 
ATOM      8  N   UNL     1      46.612   4.052  14.944  0.00  0.00    +0.000 NA
BRANCH   3  10
ATOM      9  N   UNL     1      48.109   4.467  18.254  0.00  0.00    +0.000 N 
ATOM     10  C   UNL     1      47.334   3.928  17.263  0.00  0.00    +0.000 C 
ATOM     11  O   UNL     1      46.604   2.963  17.486  0.00  0.00    +0.000 OA
ATOM     12  H   UNL     1      47.987   4.105  19.189  0.00  0.00    +0.000 HD
ATOM     13  H   UNL     1      48.538   5.377  18.125  0.00  0.00    +0.000 HD
ENDBRANCH   3  10
ENDBRANCH   1   6
BRANCH   1  14
ATOM     14  C   UNL     1      46.097   7.128  12.000  0.00  0.00    +0.000 C 
BRANCH  14  15
ATOM     15  C   UNL     1      45.266   6.164  11.194  0.00  0.00    +0.000 A 
ATOM     16  C   UNL     1      43.891   6.075  11.347  0.00  0.00    +0.000 A 
ATOM     17  N   UNL     1      43.106   5.206  10.674  0.00  0.00    +0.000 NA
ATOM     18  C   UNL     1      43.726   4.376   9.802  0.00  0.00    +0.000 A 
ATOM     19  C   UNL     1      45.101   4.358   9.555  0.00  0.00    +0.000 A 
ATOM     20  C   UNL     1      45.863   5.283  10.283  0.00  0.00    +0.000 A 
BRANCH  19  21
ATOM     21  C   UNL     1      45.712   3.431   8.593  0.00  0.00    +0.000 A 
ATOM     22  C   UNL     1      46.313   3.882   7.408  0.00  0.00    +0.000 A 
ATOM     23  C   UNL     1      46.887   2.981   6.516  0.00  0.00    +0.000 A 
ATOM     24  C   UNL     1      46.845   1.636   6.831  0.00  0.00    +0.000 A 
ATOM     25  N   UNL     1      46.277   1.146   7.951  0.00  0.00    +0.000 NA
ATOM     26  C   UNL     1      45.733   2.048   8.797  0.00  0.00    +0.000 A 
ENDBRANCH  19  21
ENDBRANCH  14  15
ENDBRANCH   1  14
TORSDOF 5
ENDMDL
MODEL 4
REMARK VINA RESULT:    -7.696      2.900      6.989
REMARK INTER + INTRA:         -10.526
REMARK INTER:                 -10.072
REMARK INTRA:                  -0.454
REMARK UNBOUND:                -0.581
REMARK  Name = 
REMARK  5 active torsions:
REMARK  status: ('A' for Active; 'I' for Inactive)
REMARK    1  A    between atoms: C_2  and  C_4
REMARK    2  A    between atoms: C_7  and  N_8
REMARK    3  A    between atoms: N_8  and  C_9
REMARK    4  A    between atoms: C_9  and  C_10
REMARK    5  A    between atoms: C_14  and  C_15
REMARK                            x       y       z     vdW  Elec       q    Type
REMARK                         _______ _______ _______ _____ _____    ______ ____
ROOT
ATOM      1  N   UNL     1      45.182   6.914  10.982  0.00  0.00    +0.000 N 
ATOM      2  H   UNL     1      45.013   7.812  10.536  0.00  0.00    +0.000 HD
ENDROOT
BRANCH   1   6
ATOM      3  C   UNL     1      47.937   7.020  14.038  0.00  0.00    +0.000 A 
ATOM      4  C   UNL     1      47.293   8.176  13.626  0.00  0.00    +0.000 A 
ATOM      5  N   UNL     1      46.402   8.195  12.594  0.00  0.00    +0.000 NA
ATOM      6  C   UNL     1      46.164   7.019  11.973  0.00  0.00    +0.000 A 
ATOM      7  C   UNL     1      46.845   5.867  12.396  0.00  0.00    +0.000 A 
ATOM      8  N   UNL     1      47.741   5.829  13.416  0.00  0.00    +0.000 NA
BRANCH   3  10
ATOM      9  N   UNL     1      48.359   7.482  16.394  0.00  0.00    +0.000 N 
ATOM     10  C   UNL     1      48.863   7.045  15.199  0.00  0.00    +0.000 C 
ATOM     11  O   UNL     1      50.031   6.671  15.103  0.00  0.00    +0.000 OA
ATOM     12  H   UNL     1      48.952   7.394  17.207  0.00  0.00    +0.000 HD
ATOM     13  H   UNL     1      47.358   7.584  16.517  0.00  0.00    +0.000 HD
ENDBRANCH   3  10
ENDBRANCH   1   6
BRANCH   1  14
ATOM     14  C   UNL     1      43.946   6.245  11.369  0.00  0.00    +0.000 C 
BRANCH  14  15
ATOM     15  C   UNL     1      43.993   4.816  10.892  0.00  0.00    +0.000 A 
ATOM     16  C   UNL     1      43.273   3.810  11.517  0.00  0.00    +0.000 A 
ATOM     17  N   UNL     1      43.307   2.511  11.150  0.00  0.00    +0.000 NA
ATOM     18  C   UNL     1      44.107   2.195  10.105  0.00  0.00    +0.000 A 
ATOM     19  C   UNL     1      44.887   3.108   9.390  0.00  0.00    +0.000 A 
ATOM     20  C   UNL     1      44.809   4.440   9.817  0.00  0.00    +0.000 A 
BRANCH  19  21
ATOM     21  C   UNL     1      45.734   2.700   8.261  0.00  0.00    +0.000 A 
ATOM     22  C   UNL     1      46.063   3.584   7.223  0.00  0.00    +0.000 A 
ATOM     23  C   UNL     1      46.870   3.170   6.168  0.00  0.00    +0.000 A 
ATOM     24  C   UNL     1      47.334   1.869   6.173  0.00  0.00    +0.000 A 
ATOM     25  N   UNL     1      47.047   0.975   7.140  0.00  0.00    +0.000 NA
ATOM     26  C   UNL     1      46.264   1.410   8.152  0.00  0.00    +0.000 A 
ENDBRANCH  19  21
ENDBRANCH  14  15
ENDBRANCH   1  14
TORSDOF 5
ENDMDL
MODEL 5
REMARK VINA RESULT:    -7.674      1.670      2.368
REMARK INTER + INTRA:         -10.497
REMARK INTER:                  -9.942
REMARK INTRA:                  -0.556
REMARK UNBOUND:                -0.581
REMARK  Name = 
REMARK  5 active torsions:
REMARK  status: ('A' for Active; 'I' for Inactive)
REMARK    1  A    between atoms: C_2  and  C_4
REMARK    2  A    between atoms: C_7  and  N_8
REMARK    3  A    between atoms: N_8  and  C_9
REMARK    4  A    between atoms: C_9  and  C_10
REMARK    5  A    between atoms: C_14  and  C_15
REMARK                            x       y       z     vdW  Elec       q    Type
REMARK                         _______ _______ _______ _____ _____    ______ ____
ROOT
ATOM      1  N   UNL     1      44.042   5.052   9.764  0.00  0.00    +0.000 N 
ATOM      2  H   UNL     1      44.148   5.969   9.338  0.00  0.00    +0.000 HD
ENDROOT
BRANCH   1   6
ATOM      3  C   UNL     1      46.268   2.105   7.948  0.00  0.00    +0.000 A 
ATOM      4  C   UNL     1      46.397   3.429   7.560  0.00  0.00    +0.000 A 
ATOM      5  N   UNL     1      45.653   4.433   8.108  0.00  0.00    +0.000 NA
ATOM      6  C   UNL     1      44.766   4.081   9.063  0.00  0.00    +0.000 A 
ATOM      7  C   UNL     1      44.639   2.731   9.423  0.00  0.00    +0.000 A 
ATOM      8  N   UNL     1      45.364   1.716   8.885  0.00  0.00    +0.000 NA
BRANCH   3  10
ATOM      9  N   UNL     1      46.853  -0.245   7.670  0.00  0.00    +0.000 N 
ATOM     10  C   UNL     1      47.135   1.056   7.354  0.00  0.00    +0.000 C 
ATOM     11  O   UNL     1      48.059   1.336   6.591  0.00  0.00    +0.000 OA
ATOM     12  H   UNL     1      47.368  -0.964   7.182  0.00  0.00    +0.000 HD
ATOM     13  H   UNL     1      45.975  -0.480   8.119  0.00  0.00    +0.000 HD
ENDBRANCH   3  10
ENDBRANCH   1   6
BRANCH   1  14
ATOM     14  C   UNL     1      44.241   5.086  11.209  0.00  0.00    +0.000 C 
BRANCH  14  15
ATOM     15  C   UNL     1      44.907   6.385  11.581  0.00  0.00    +0.000 A 
ATOM     16  C   UNL     1      44.291   7.610  11.381  0.00  0.00    +0.000 A 
ATOM     17  N   UNL     1      44.857   8.802  11.667  0.00  0.00    +0.000 NA
ATOM     18  C   UNL     1      46.111   8.772  12.176  0.00  0.00    +0.000 A 
ATOM     19  C   UNL     1      46.847   7.610  12.424  0.00  0.00    +0.000 A 
ATOM     20  C   UNL     1      46.205   6.405  12.108  0.00  0.00    +0.000 A 
BRANCH  19  21
ATOM     21  C   UNL     1      48.206   7.647  12.981  0.00  0.00    +0.000 A 
ATOM     22  C   UNL     1      49.263   8.285  12.314  0.00  0.00    +0.000 A 
ATOM     23  C   UNL     1      50.540   8.306  12.867  0.00  0.00    +0.000 A 
ATOM     24  C   UNL     1      50.734   7.682  14.084  0.00  0.00    +0.000 A 
ATOM     25  N   UNL     1      49.757   7.051  14.767  0.00  0.00    +0.000 NA
ATOM     26  C   UNL     1      48.529   7.052  14.204  0.00  0.00    +0.000 A 
ENDBRANCH  19  21
ENDBRANCH  14  15
ENDBRANCH   1  14
TORSDOF 5
ENDMDL
MODEL 6
REMARK VINA RESULT:    -7.010      2.800      7.134
REMARK INTER + INTRA:          -9.640
REMARK INTER:                  -9.050
REMARK INTRA:                  -0.590
REMARK UNBOUND:                -0.581
REMARK  Name = 
REMARK  5 active torsions:
REMARK  status: ('A' for Active; 'I' for Inactive)
REMARK    1  A    between atoms: C_2  and  C_4
REMARK    2  A    between atoms: C_7  and  N_8
REMARK    3  A    between atoms: N_8  and  C_9
REMARK    4  A    between atoms: C_9  and  C_10
REMARK    5  A    between atoms: C_14  and  C_15
REMARK                            x       y       z     vdW  Elec       q    Type
REMARK                         _______ _______ _______ _____ _____    ______ ____
ROOT
ATOM      1  N   UNL     1      45.465   6.184  12.597  0.00  0.00    +0.000 N 
ATOM      2  H   UNL     1      45.863   5.259  12.736  0.00  0.00    +0.000 HD
ENDROOT
BRANCH   1   6
ATOM      3  C   UNL     1      48.241   9.154  11.956  0.00  0.00    +0.000 A 
ATOM      4  C   UNL     1      48.563   7.825  11.732  0.00  0.00    +0.000 A 
ATOM      5  N   UNL     1      47.687   6.805  11.966  0.00  0.00    +0.000 NA
ATOM      6  C   UNL     1      46.468   7.146  12.436  0.00  0.00    +0.000 A 
ATOM      7  C   UNL     1      46.174   8.497  12.675  0.00  0.00    +0.000 A 
ATOM      8  N   UNL     1      47.033   9.526  12.456  0.00  0.00    +0.000 NA
BRANCH   3  10
ATOM      9  N   UNL     1      48.845  11.515  11.932  0.00  0.00    +0.000 N 
ATOM     10  C   UNL     1      49.214  10.230  11.639  0.00  0.00    +0.000 C 
ATOM     11  O   UNL     1      50.317   9.983  11.153  0.00  0.00    +0.000 OA
ATOM     12  H   UNL     1      49.545  12.236  11.822  0.00  0.00    +0.000 HD
ATOM     13  H   UNL     1      48.038  11.691  12.519  0.00  0.00    +0.000 HD
ENDBRANCH   3  10
ENDBRANCH   1   6
BRANCH   1  14
ATOM     14  C   UNL     1      44.403   6.188  11.597  0.00  0.00    +0.000 C 
BRANCH  14  15
ATOM     15  C   UNL     1      44.283   4.808  11.005  0.00  0.00    +0.000 A 
ATOM     16  C   UNL     1      43.425   3.854  11.531  0.00  0.00    +0.000 A 
ATOM     17  N   UNL     1      43.306   2.595  11.058  0.00  0.00    +0.000 NA
ATOM     18  C   UNL     1      44.088   2.265  10.004  0.00  0.00    +0.000 A 
ATOM     19  C   UNL     1      44.997   3.125   9.381  0.00  0.00    +0.000 A 
ATOM     20  C   UNL     1      45.075   4.418   9.916  0.00  0.00    +0.000 A 
BRANCH  19  21
ATOM     21  C   UNL     1      45.817   2.704   8.238  0.00  0.00    +0.000 A 
ATOM     22  C   UNL     1      46.115   3.575   7.178  0.00  0.00    +0.000 A 
ATOM     23  C   UNL     1      46.897   3.149   6.109  0.00  0.00    +0.000 A 
ATOM     24  C   UNL     1      47.366   1.850   6.121  0.00  0.00    +0.000 A 
ATOM     25  N   UNL     1      47.109   0.968   7.109  0.00  0.00    +0.000 NA
ATOM     26  C   UNL     1      46.349   1.415   8.134  0.00  0.00    +0.000 A 
ENDBRANCH  19  21
ENDBRANCH  14  15
ENDBRANCH   1  14
TORSDOF 5
ENDMDL
MODEL 7
REMARK VINA RESULT:    -6.913      3.776      7.750
REMARK INTER + INTRA:          -9.514
REMARK INTER:                  -9.066
REMARK INTRA:                  -0.448
REMARK UNBOUND:                -0.581
REMARK  Name = 
REMARK  5 active torsions:
REMARK  status: ('A' for Active; 'I' for Inactive)
REMARK    1  A    between atoms: C_2  and  C_4
REMARK    2  A    between atoms: C_7  and  N_8
REMARK    3  A    between atoms: N_8  and  C_9
REMARK    4  A    between atoms: C_9  and  C_10
REMARK    5  A    between atoms: C_14  and  C_15
REMARK                            x       y       z     vdW  Elec       q    Type
REMARK                         _______ _______ _______ _____ _____    ______ ____
ROOT
ATOM      1  N   UNL     1      46.574   5.049  13.638  0.00  0.00    +0.000 N 
ATOM      2  H   UNL     1      46.722   6.008  13.336  0.00  0.00    +0.000 HD
ENDROOT
BRANCH   1   6
ATOM      3  C   UNL     1      48.801   4.313  17.020  0.00  0.00    +0.000 A 
ATOM      4  C   UNL     1      47.863   3.393  16.577  0.00  0.00    +0.000 A 
ATOM      5  N   UNL     1      47.078   3.612  15.483  0.00  0.00    +0.000 NA
ATOM      6  C   UNL     1      47.250   4.784  14.834  0.00  0.00    +0.000 A 
ATOM      7  C   UNL     1      48.190   5.707  15.316  0.00  0.00    +0.000 A 
ATOM      8  N   UNL     1      48.976   5.512  16.407  0.00  0.00    +0.000 NA
BRANCH   3  10
ATOM      9  N   UNL     1      49.052   3.878  19.405  0.00  0.00    +0.000 N 
ATOM     10  C   UNL     1      49.665   4.006  18.188  0.00  0.00    +0.000 C 
ATOM     11  O   UNL     1      50.880   3.851  18.072  0.00  0.00    +0.000 OA
ATOM     12  H   UNL     1      49.618   3.561  20.179  0.00  0.00    +0.000 HD
ATOM     13  H   UNL     1      48.043   3.796  19.460  0.00  0.00    +0.000 HD
ENDBRANCH   3  10
ENDBRANCH   1   6
BRANCH   1  14
ATOM     14  C   UNL     1      45.167   4.665  13.595  0.00  0.00    +0.000 C 
BRANCH  14  15
ATOM     15  C   UNL     1      44.705   4.658  12.161  0.00  0.00    +0.000 A 
ATOM     16  C   UNL     1      43.571   5.342  11.752  0.00  0.00    +0.000 A 
ATOM     17  N   UNL     1      43.097   5.340  10.488  0.00  0.00    +0.000 NA
ATOM     18  C   UNL     1      43.788   4.612   9.580  0.00  0.00    +0.000 A 
ATOM     19  C   UNL     1      44.942   3.874   9.858  0.00  0.00    +0.000 A 
ATOM     20  C   UNL     1      45.386   3.916  11.187  0.00  0.00    +0.000 A 
BRANCH  19  21
ATOM     21  C   UNL     1      45.648   3.105   8.824  0.00  0.00    +0.000 A 
ATOM     22  C   UNL     1      46.278   3.729   7.737  0.00  0.00    +0.000 A 
ATOM     23  C   UNL     1      46.942   2.974   6.774  0.00  0.00    +0.000 A 
ATOM     24  C   UNL     1      46.959   1.601   6.920  0.00  0.00    +0.000 A 
ATOM     25  N   UNL     1      46.368   0.948   7.940  0.00  0.00    +0.000 NA
ATOM     26  C   UNL     1      45.735   1.710   8.859  0.00  0.00    +0.000 A 
ENDBRANCH  19  21
ENDBRANCH  14  15
ENDBRANCH   1  14
TORSDOF 5
ENDMDL
MODEL 8
REMARK VINA RESULT:    -6.700      3.165      7.106
REMARK INTER + INTRA:          -9.239
REMARK INTER:                  -9.118
REMARK INTRA:                  -0.121
REMARK UNBOUND:                -0.581
REMARK  Name = 
REMARK  5 active torsions:
REMARK  status: ('A' for Active; 'I' for Inactive)
REMARK    1  A    between atoms: C_2  and  C_4
REMARK    2  A    between atoms: C_7  and  N_8
REMARK    3  A    between atoms: N_8  and  C_9
REMARK    4  A    between atoms: C_9  and  C_10
REMARK    5  A    between atoms: C_14  and  C_15
REMARK                            x       y       z     vdW  Elec       q    Type
REMARK                         _______ _______ _______ _____ _____    ______ ____
ROOT
ATOM      1  N   UNL     1      46.498   5.581  12.874  0.00  0.00    +0.000 N 
ATOM      2  H   UNL     1      47.071   5.156  12.150  0.00  0.00    +0.000 HD
ENDROOT
BRANCH   1   6
ATOM      3  C   UNL     1      44.985   9.291  11.933  0.00  0.00    +0.000 A 
ATOM      4  C   UNL     1      44.501   8.151  11.311  0.00  0.00    +0.000 A 
ATOM      5  N   UNL     1      44.998   6.906  11.564  0.00  0.00    +0.000 NA
ATOM      6  C   UNL     1      46.002   6.824  12.463  0.00  0.00    +0.000 A 
ATOM      7  C   UNL     1      46.489   7.995  13.063  0.00  0.00    +0.000 A 
ATOM      8  N   UNL     1      46.014   9.243  12.819  0.00  0.00    +0.000 NA
BRANCH   3  10
ATOM      9  N   UNL     1      43.098  10.825  12.099  0.00  0.00    +0.000 N 
ATOM     10  C   UNL     1      44.376  10.617  11.657  0.00  0.00    +0.000 C 
ATOM     11  O   UNL     1      44.997  11.506  11.074  0.00  0.00    +0.000 OA
ATOM     12  H   UNL     1      42.723  11.759  12.013  0.00  0.00    +0.000 HD
ATOM     13  H   UNL     1      42.675  10.177  12.755  0.00  0.00    +0.000 HD
ENDBRANCH   3  10
ENDBRANCH   1   6
BRANCH   1  14
ATOM     14  C   UNL     1      45.522   4.650  13.427  0.00  0.00    +0.000 C 
BRANCH  14  15
ATOM     15  C   UNL     1      44.896   3.869  12.300  0.00  0.00    +0.000 A 
ATOM     16  C   UNL     1      43.660   3.255  12.429  0.00  0.00    +0.000 A 
ATOM     17  N   UNL     1      43.073   2.518  11.463  0.00  0.00    +0.000 NA
ATOM     18  C   UNL     1      43.757   2.381  10.303  0.00  0.00    +0.000 A 
ATOM     19  C   UNL     1      45.009   2.942  10.041  0.00  0.00    +0.000 A 
ATOM     20  C   UNL     1      45.568   3.696  11.082  0.00  0.00    +0.000 A 
BRANCH  19  21
ATOM     21  C   UNL     1      45.699   2.755   8.758  0.00  0.00    +0.000 A 
ATOM     22  C   UNL     1      46.155   1.496   8.337  0.00  0.00    +0.000 A 
ATOM     23  C   UNL     1      46.802   1.349   7.114  0.00  0.00    +0.000 A 
ATOM     24  C   UNL     1      46.984   2.473   6.333  0.00  0.00    +0.000 A 
ATOM     25  N   UNL     1      46.572   3.707   6.687  0.00  0.00    +0.000 NA
ATOM     26  C   UNL     1      45.943   3.815   7.879  0.00  0.00    +0.000 A 
ENDBRANCH  19  21
ENDBRANCH  14  15
ENDBRANCH   1  14
TORSDOF 5
ENDMDL
MODEL 9
REMARK VINA RESULT:    -6.429      5.287      7.445
REMARK INTER + INTRA:          -8.889
REMARK INTER:                  -8.412
REMARK INTRA:                  -0.476
REMARK UNBOUND:                -0.581
REMARK  Name = 
REMARK  5 active torsions:
REMARK  status: ('A' for Active; 'I' for Inactive)
REMARK    1  A    between atoms: C_2  and  C_4
REMARK    2  A    between atoms: C_7  and  N_8
REMARK    3  A    between atoms: N_8  and  C_9
REMARK    4  A    between atoms: C_9  and  C_10
REMARK    5  A    between atoms: C_14  and  C_15
REMARK                            x       y       z     vdW  Elec       q    Type
REMARK                         _______ _______ _______ _____ _____    ______ ____
ROOT
ATOM      1  N   UNL     1      47.204   5.206  15.067  0.00  0.00    +0.000 N 
ATOM      2  H   UNL     1      48.153   5.468  14.813  0.00  0.00    +0.000 HD
ENDROOT
BRANCH   1   6
ATOM      3  C   UNL     1      44.804   4.206  11.876  0.00  0.00    +0.000 A 
ATOM      4  C   UNL     1      45.584   3.247  12.503  0.00  0.00    +0.000 A 
ATOM      5  N   UNL     1      46.421   3.540  13.539  0.00  0.00    +0.000 NA
ATOM      6  C   UNL     1      46.465   4.829  13.940  0.00  0.00    +0.000 A 
ATOM      7  C   UNL     1      45.682   5.785  13.275  0.00  0.00    +0.000 A 
ATOM      8  N   UNL     1      44.849   5.515  12.237  0.00  0.00    +0.000 NA
BRANCH   3  10
ATOM      9  N   UNL     1      43.943   4.545   9.621  0.00  0.00    +0.000 N 
ATOM     10  C   UNL     1      43.873   3.826  10.783  0.00  0.00    +0.000 C 
ATOM     11  O   UNL     1      43.082   2.891  10.902  0.00  0.00    +0.000 OA
ATOM     12  H   UNL     1      43.393   4.219   8.839  0.00  0.00    +0.000 HD
ATOM     13  H   UNL     1      44.729   5.163   9.452  0.00  0.00    +0.000 HD
ENDBRANCH   3  10
ENDBRANCH   1   6
BRANCH   1  14
ATOM     14  C   UNL     1      47.166   4.287  16.198  0.00  0.00    +0.000 C 
BRANCH  14  15
ATOM     15  C   UNL     1      48.373   4.529  17.067  0.00  0.00    +0.000 A 
ATOM     16  C   UNL     1      48.526   5.694  17.803  0.00  0.00    +0.000 A 
ATOM     17  N   UNL     1      49.603   5.973  18.569  0.00  0.00    +0.000 NA
ATOM     18  C   UNL     1      50.584   5.042  18.600  0.00  0.00    +0.000 A 
ATOM     19  C   UNL     1      50.560   3.829  17.905  0.00  0.00    +0.000 A 
ATOM     20  C   UNL     1      49.417   3.596  17.128  0.00  0.00    +0.000 A 
BRANCH  19  21
ATOM     21  C   UNL     1      51.660   2.859  17.984  0.00  0.00    +0.000 A 
ATOM     22  C   UNL     1      51.551   1.570  17.441  0.00  0.00    +0.000 A 
ATOM     23  C   UNL     1      52.611   0.672  17.527  0.00  0.00    +0.000 A 
ATOM     24  C   UNL     1      53.766   1.087  18.162  0.00  0.00    +0.000 A 
ATOM     25  N   UNL     1      53.926   2.310  18.706  0.00  0.00    +0.000 NA
ATOM     26  C   UNL     1      52.879   3.158  18.601  0.00  0.00    +0.000 A 
ENDBRANCH  19  21
ENDBRANCH  14  15
ENDBRANCH   1  14
TORSDOF 5
ENDMDL
