MODEL 1
REMARK VINA RESULT:    -7.638      0.000      0.000
REMARK INTER + INTRA:         -10.128
REMARK INTER:                  -9.648
REMARK INTRA:                  -0.481
REMARK UNBOUND:                -0.481
REMARK  Name = 
REMARK  5 active torsions:
REMARK  status: ('A' for Active; 'I' for Inactive)
REMARK    1  A    between atoms: N_1  and  C_2
REMARK    2  A    between atoms: C_2  and  C_3
REMARK    3  A    between atoms: C_3  and  C_4
REMARK    4  A    between atoms: C_7  and  C_8
REMARK    5  A    between atoms: C_8  and  N_9
REMARK                            x       y       z     vdW  Elec       q    Type
REMARK                         _______ _______ _______ _____ _____    ______ ____
ROOT
ATOM      1  C   UNL     1      46.117   2.280   7.770  0.00  0.00    +0.000 A 
ATOM      2  C   UNL     1      45.365   1.689   8.787  0.00  0.00    +0.000 A 
ATOM      3  C   UNL     1      44.569   2.483   9.617  0.00  0.00    +0.000 A 
ATOM      4  C   UNL     1      44.556   3.862   9.421  0.00  0.00    +0.000 A 
ATOM      5  N   UNL     1      45.257   4.454   8.422  0.00  0.00    +0.000 NA
ATOM      6  C   UNL     1      46.002   3.658   7.618  0.00  0.00    +0.000 A 
ENDROOT
BRANCH   1   7
ATOM      7  C   UNL     1      46.992   1.455   6.860  0.00  0.00    +0.000 C 
BRANCH   7   8
ATOM      8  C   UNL     1      48.284   2.175   6.448  0.00  0.00    +0.000 C 
BRANCH   8   9
ATOM      9  N   UNL     1      48.272   2.503   5.024  0.00  0.00    +0.000 NA
ATOM     10  H   UNL     1      48.387   1.650   4.480  0.00  0.00    +0.000 HD
ATOM     11  H   UNL     1      49.072   3.094   4.796  0.00  0.00    +0.000 HD
ENDBRANCH   8   9
ENDBRANCH   7   8
ENDBRANCH   1   7
BRANCH   4  12
ATOM     12  C   UNL     1      43.774   4.770  10.337  0.00  0.00    +0.000 C 
BRANCH  12  13
ATOM     13  N   UNL     1      44.376   4.865  11.653  0.00  0.00    +0.000 N 
ATOM     14  C   UNL     1      43.865   4.306  12.794  0.00  0.00    +0.000 A 
ATOM     15  N   UNL     1      44.639   4.528  13.833  0.00  0.00    +0.000 NA
ATOM     16  C   UNL     1      45.684   5.275  13.352  0.00  0.00    +0.000 A 
ATOM     17  C   UNL     1      46.810   5.761  14.028  0.00  0.00    +0.000 A 
ATOM     18  C   UNL     1      47.735   6.511  13.304  0.00  0.00    +0.000 A 
ATOM     19  F   UNL     1      48.837   6.961  13.920  0.00  0.00    +0.000 F 
ATOM     20  C   UNL     1      47.549   6.804  11.956  0.00  0.00    +0.000 A 
ATOM     21  C   UNL     1      46.430   6.330  11.264  0.00  0.00    +0.000 A 
ATOM     22  C   UNL     1      45.525   5.543  11.990  0.00  0.00    +0.000 A 
ENDBRANCH  12  13
ENDBRANCH   4  12
TORSDOF 5
ENDMDL
MODEL 2
REMARK VINA RESULT:    -7.448      1.197      1.689
REMARK INTER + INTRA:          -9.888
REMARK INTER:                  -9.421
REMARK INTRA:                  -0.467
REMARK UNBOUND:                -0.481
REMARK  Name = 
REMARK  5 active torsions:
REMARK  status: ('A' for Active; 'I' for Inactive)
REMARK    1  A    between atoms: N_1  and  C_2
REMARK    2  A    between atoms: C_2  and  C_3
REMARK    3  A    between atoms: C_3  and  C_4
REMARK    4  A    between atoms: C_7  and  C_8
REMARK    5  A    between atoms: C_8  and  N_9
REMARK                            x       y       z     vdW  Elec       q    Type
REMARK                         _______ _______ _______ _____ _____    ______ ____
ROOT
ATOM      1  C   UNL     1      45.952   2.401   8.082  0.00  0.00    +0.000 A 
ATOM      2  C   UNL     1      45.089   1.839   9.024  0.00  0.00    +0.000 A 
ATOM      3  C   UNL     1      44.300   2.664   9.829  0.00  0.00    +0.000 A 
ATOM      4  C   UNL     1      44.405   4.046   9.684  0.00  0.00    +0.000 A 
ATOM      5  N   UNL     1      45.215   4.613   8.756  0.00  0.00    +0.000 NA
ATOM      6  C   UNL     1      45.951   3.788   7.974  0.00  0.00    +0.000 A 
ENDROOT
BRANCH   1   7
ATOM      7  C   UNL     1      46.822   1.540   7.201  0.00  0.00    +0.000 C 
BRANCH   7   8
ATOM      8  C   UNL     1      48.131   2.228   6.787  0.00  0.00    +0.000 C 
BRANCH   8   9
ATOM      9  N   UNL     1      48.495   1.882   5.415  0.00  0.00    +0.000 NA
ATOM     10  H   UNL     1      47.697   1.449   4.953  0.00  0.00    +0.000 HD
ATOM     11  H   UNL     1      49.236   1.180   5.418  0.00  0.00    +0.000 HD
ENDBRANCH   8   9
ENDBRANCH   7   8
ENDBRANCH   1   7
BRANCH   4  12
ATOM     12  C   UNL     1      43.632   4.982  10.580  0.00  0.00    +0.000 C 
BRANCH  12  13
ATOM     13  N   UNL     1      44.507   5.859  11.335  0.00  0.00    +0.000 N 
ATOM     14  C   UNL     1      44.573   7.219  11.189  0.00  0.00    +0.000 A 
ATOM     15  N   UNL     1      45.431   7.756  12.028  0.00  0.00    +0.000 NA
ATOM     16  C   UNL     1      45.956   6.703  12.733  0.00  0.00    +0.000 A 
ATOM     17  C   UNL     1      46.894   6.713  13.773  0.00  0.00    +0.000 A 
ATOM     18  C   UNL     1      47.271   5.490  14.324  0.00  0.00    +0.000 A 
ATOM     19  F   UNL     1      48.144   5.475  15.342  0.00  0.00    +0.000 F 
ATOM     20  C   UNL     1      46.767   4.282  13.851  0.00  0.00    +0.000 A 
ATOM     21  C   UNL     1      45.831   4.252  12.812  0.00  0.00    +0.000 A 
ATOM     22  C   UNL     1      45.426   5.489  12.289  0.00  0.00    +0.000 A 
ENDBRANCH  12  13
ENDBRANCH   4  12
TORSDOF 5
ENDMDL
MODEL 3
REMARK VINA RESULT:    -7.087      2.028      2.198
REMARK INTER + INTRA:          -9.432
REMARK INTER:                  -9.008
REMARK INTRA:                  -0.424
REMARK UNBOUND:                -0.481
REMARK  Name = 
REMARK  5 active torsions:
REMARK  status: ('A' for Active; 'I' for Inactive)
REMARK    1  A    between atoms: N_1  and  C_2
REMARK    2  A    between atoms: C_2  and  C_3
REMARK    3  A    between atoms: C_3  and  C_4
REMARK    4  A    between atoms: C_7  and  C_8
REMARK    5  A    between atoms: C_8  and  N_9
REMARK                            x       y       z     vdW  Elec       q    Type
REMARK                         _______ _______ _______ _____ _____    ______ ____
ROOT
ATOM      1  C   UNL     1      45.971   2.484   7.981  0.00  0.00    +0.000 A 
ATOM      2  C   UNL     1      45.214   1.846   8.965  0.00  0.00    +0.000 A 
ATOM      3  C   UNL     1      44.405   2.598   9.821  0.00  0.00    +0.000 A 
ATOM      4  C   UNL     1      44.384   3.984   9.682  0.00  0.00    +0.000 A 
ATOM      5  N   UNL     1      45.089   4.623   8.716  0.00  0.00    +0.000 NA
ATOM      6  C   UNL     1      45.846   3.866   7.886  0.00  0.00    +0.000 A 
ENDROOT
BRANCH   1   7
ATOM      7  C   UNL     1      46.860   1.705   7.045  0.00  0.00    +0.000 C 
BRANCH   7   8
ATOM      8  C   UNL     1      47.139   2.440   5.725  0.00  0.00    +0.000 C 
BRANCH   8   9
ATOM      9  N   UNL     1      48.508   2.203   5.271  0.00  0.00    +0.000 NA
ATOM     10  H   UNL     1      48.920   3.083   4.966  0.00  0.00    +0.000 HD
ATOM     11  H   UNL     1      48.503   1.594   4.452  0.00  0.00    +0.000 HD
ENDBRANCH   8   9
ENDBRANCH   7   8
ENDBRANCH   1   7
BRANCH   4  12
ATOM     12  C   UNL     1      43.586   4.847  10.629  0.00  0.00    +0.000 C 
BRANCH  12  13
ATOM     13  N   UNL     1      44.439   5.609  11.521  0.00  0.00    +0.000 N 
ATOM     14  C   UNL     1      45.267   5.069  12.469  0.00  0.00    +0.000 A 
ATOM     15  N   UNL     1      45.944   5.996  13.108  0.00  0.00    +0.000 NA
ATOM     16  C   UNL     1      45.528   7.185  12.567  0.00  0.00    +0.000 A 
ATOM     17  C   UNL     1      45.950   8.488  12.861  0.00  0.00    +0.000 A 
ATOM     18  C   UNL     1      45.357   9.539  12.166  0.00  0.00    +0.000 A 
ATOM     19  F   UNL     1      45.765  10.794  12.406  0.00  0.00    +0.000 F 
ATOM     20  C   UNL     1      44.353   9.327  11.226  0.00  0.00    +0.000 A 
ATOM     21  C   UNL     1      43.917   8.034  10.920  0.00  0.00    +0.000 A 
ATOM     22  C   UNL     1      44.547   6.978  11.595  0.00  0.00    +0.000 A 
ENDBRANCH  12  13
ENDBRANCH   4  12
TORSDOF 5
ENDMDL
MODEL 4
REMARK VINA RESULT:    -7.016      1.539      1.741
REMARK INTER + INTRA:          -9.342
REMARK INTER:                  -8.913
REMARK INTRA:                  -0.429
REMARK UNBOUND:                -0.481
REMARK  Name = 
REMARK  5 active torsions:
REMARK  status: ('A' for Active; 'I' for Inactive)
REMARK    1  A    between atoms: N_1  and  C_2
REMARK    2  A    between atoms: C_2  and  C_3
REMARK    3  A    between atoms: C_3  and  C_4
REMARK    4  A    between atoms: C_7  and  C_8
REMARK    5  A    between atoms: C_8  and  N_9
REMARK                            x       y       z     vdW  Elec       q    Type
REMARK                         _______ _______ _______ _____ _____    ______ ____
ROOT
ATOM      1  C   UNL     1      45.712   3.173   8.044  0.00  0.00    +0.000 A 
ATOM      2  C   UNL     1      45.051   2.285   8.895  0.00  0.00    +0.000 A 
ATOM      3  C   UNL     1      44.597   2.721  10.142  0.00  0.00    +0.000 A 
ATOM      4  C   UNL     1      44.830   4.042  10.520  0.00  0.00    +0.000 A 
ATOM      5  N   UNL     1      45.444   4.929   9.698  0.00  0.00    +0.000 NA
ATOM      6  C   UNL     1      45.853   4.484   8.485  0.00  0.00    +0.000 A 
ENDROOT
BRANCH   1   7
ATOM      7  C   UNL     1      46.221   2.734   6.694  0.00  0.00    +0.000 C 
BRANCH   7   8
ATOM      8  C   UNL     1      47.751   2.798   6.575  0.00  0.00    +0.000 C 
BRANCH   8   9
ATOM      9  N   UNL     1      48.262   1.693   5.767  0.00  0.00    +0.000 NA
ATOM     10  H   UNL     1      47.716   1.621   4.910  0.00  0.00    +0.000 HD
ATOM     11  H   UNL     1      48.131   0.811   6.262  0.00  0.00    +0.000 HD
ENDBRANCH   8   9
ENDBRANCH   7   8
ENDBRANCH   1   7
BRANCH   4  12
ATOM     12  C   UNL     1      44.427   4.543  11.885  0.00  0.00    +0.000 C 
BRANCH  12  13
ATOM     13  N   UNL     1      45.573   4.955  12.673  0.00  0.00    +0.000 N 
ATOM     14  C   UNL     1      46.446   4.105  13.297  0.00  0.00    +0.000 A 
ATOM     15  N   UNL     1      47.406   4.758  13.912  0.00  0.00    +0.000 NA
ATOM     16  C   UNL     1      47.137   6.085  13.694  0.00  0.00    +0.000 A 
ATOM     17  C   UNL     1      47.859   7.214  14.101  0.00  0.00    +0.000 A 
ATOM     18  C   UNL     1      47.363   8.468  13.753  0.00  0.00    +0.000 A 
ATOM     19  F   UNL     1      48.052   9.563  14.104  0.00  0.00    +0.000 F 
ATOM     20  C   UNL     1      46.172   8.619  13.048  0.00  0.00    +0.000 A 
ATOM     21  C   UNL     1      45.437   7.504  12.634  0.00  0.00    +0.000 A 
ATOM     22  C   UNL     1      45.963   6.245  12.954  0.00  0.00    +0.000 A 
ENDBRANCH  12  13
ENDBRANCH   4  12
TORSDOF 5
ENDMDL
MODEL 5
REMARK VINA RESULT:    -6.644      2.951      6.410
REMARK INTER + INTRA:          -8.872
REMARK INTER:                  -8.466
REMARK INTRA:                  -0.406
REMARK UNBOUND:                -0.481
REMARK  Name = 
REMARK  5 active torsions:
REMARK  status: ('A' for Active; 'I' for Inactive)
REMARK    1  A    between atoms: N_1  and  C_2
REMARK    2  A    between atoms: C_2  and  C_3
REMARK    3  A    between atoms: C_3  and  C_4
REMARK    4  A    between atoms: C_7  and  C_8
REMARK    5  A    between atoms: C_8  and  N_9
REMARK                            x       y       z     vdW  Elec       q    Type
REMARK                         _______ _______ _______ _____ _____    ______ ____
ROOT
ATOM      1  C   UNL     1      47.281   7.468  12.969  0.00  0.00    +0.000 A 
ATOM      2  C   UNL     1      46.506   8.277  12.136  0.00  0.00    +0.000 A 
ATOM      3  C   UNL     1      45.300   7.797  11.621  0.00  0.00    +0.000 A 
ATOM      4  C   UNL     1      44.901   6.500  11.939  0.00  0.00    +0.000 A 
ATOM      5  N   UNL     1      45.623   5.706  12.768  0.00  0.00    +0.000 NA
ATOM      6  C   UNL     1      46.777   6.208  13.271  0.00  0.00    +0.000 A 
ENDROOT
BRANCH   1   7
ATOM      7  C   UNL     1      48.591   7.952  13.537  0.00  0.00    +0.000 C 
BRANCH   7   8
ATOM      8  C   UNL     1      48.564   8.114  15.065  0.00  0.00    +0.000 C 
BRANCH   8   9
ATOM      9  N   UNL     1      47.524   9.055  15.475  0.00  0.00    +0.000 NA
ATOM     10  H   UNL     1      46.620   8.585  15.463  0.00  0.00    +0.000 HD
ATOM     11  H   UNL     1      47.457   9.816  14.799  0.00  0.00    +0.000 HD
ENDBRANCH   8   9
ENDBRANCH   7   8
ENDBRANCH   1   7
BRANCH   4  12
ATOM     12  C   UNL     1      43.646   5.907  11.347  0.00  0.00    +0.000 C 
BRANCH  12  13
ATOM     13  N   UNL     1      43.846   4.541  10.903  0.00  0.00    +0.000 N 
ATOM     14  C   UNL     1      43.265   3.437  11.467  0.00  0.00    +0.000 A 
ATOM     15  N   UNL     1      43.603   2.335  10.837  0.00  0.00    +0.000 NA
ATOM     16  C   UNL     1      44.451   2.735   9.836  0.00  0.00    +0.000 A 
ATOM     17  C   UNL     1      45.081   1.968   8.848  0.00  0.00    +0.000 A 
ATOM     18  C   UNL     1      45.910   2.623   7.941  0.00  0.00    +0.000 A 
ATOM     19  F   UNL     1      46.500   1.915   6.967  0.00  0.00    +0.000 F 
ATOM     20  C   UNL     1      46.142   3.994   8.013  0.00  0.00    +0.000 A 
ATOM     21  C   UNL     1      45.524   4.776   8.993  0.00  0.00    +0.000 A 
ATOM     22  C   UNL     1      44.660   4.116   9.877  0.00  0.00    +0.000 A 
ENDBRANCH  12  13
ENDBRANCH   4  12
TORSDOF 5
ENDMDL
MODEL 6
REMARK VINA RESULT:    -5.672      3.290      6.555
REMARK INTER + INTRA:          -7.645
REMARK INTER:                  -7.164
REMARK INTRA:                  -0.481
REMARK UNBOUND:                -0.481
REMARK  Name = 
REMARK  5 active torsions:
REMARK  status: ('A' for Active; 'I' for Inactive)
REMARK    1  A    between atoms: N_1  and  C_2
REMARK    2  A    between atoms: C_2  and  C_3
REMARK    3  A    between atoms: C_3  and  C_4
REMARK    4  A    between atoms: C_7  and  C_8
REMARK    5  A    between atoms: C_8  and  N_9
REMARK                            x       y       z     vdW  Elec       q    Type
REMARK                         _______ _______ _______ _____ _____    ______ ____
ROOT
ATOM      1  C   UNL     1      48.402   8.271  13.539  0.00  0.00    +0.000 A 
ATOM      2  C   UNL     1      48.484   7.336  12.505  0.00  0.00    +0.000 A 
ATOM      3  C   UNL     1      47.345   7.015  11.762  0.00  0.00    +0.000 A 
ATOM      4  C   UNL     1      46.136   7.630  12.083  0.00  0.00    +0.000 A 
ATOM      5  N   UNL     1      46.040   8.561  13.065  0.00  0.00    +0.000 NA
ATOM      6  C   UNL     1      47.165   8.869  13.753  0.00  0.00    +0.000 A 
ENDROOT
BRANCH   1   7
ATOM      7  C   UNL     1      49.610   8.635  14.365  0.00  0.00    +0.000 C 
BRANCH   7   8
ATOM      8  C   UNL     1      49.762   7.772  15.627  0.00  0.00    +0.000 C 
BRANCH   8   9
ATOM      9  N   UNL     1      50.498   6.543  15.337  0.00  0.00    +0.000 NA
ATOM     10  H   UNL     1      49.841   5.767  15.258  0.00  0.00    +0.000 HD
ATOM     11  H   UNL     1      51.114   6.314  16.117  0.00  0.00    +0.000 HD
ENDBRANCH   8   9
ENDBRANCH   7   8
ENDBRANCH   1   7
BRANCH   4  12
ATOM     12  C   UNL     1      44.863   7.263  11.362  0.00  0.00    +0.000 C 
BRANCH  12  13
ATOM     13  N   UNL     1      44.506   5.872  11.561  0.00  0.00    +0.000 N 
ATOM     14  C   UNL     1      43.935   5.361  12.697  0.00  0.00    +0.000 A 
ATOM     15  N   UNL     1      43.693   4.075  12.582  0.00  0.00    +0.000 NA
ATOM     16  C   UNL     1      44.139   3.732  11.332  0.00  0.00    +0.000 A 
ATOM     17  C   UNL     1      44.097   2.490  10.686  0.00  0.00    +0.000 A 
ATOM     18  C   UNL     1      44.631   2.403   9.402  0.00  0.00    +0.000 A 
ATOM     19  F   UNL     1      44.575   1.233   8.750  0.00  0.00    +0.000 F 
ATOM     20  C   UNL     1      45.220   3.497   8.774  0.00  0.00    +0.000 A 
ATOM     21  C   UNL     1      45.274   4.744   9.404  0.00  0.00    +0.000 A 
ATOM     22  C   UNL     1      44.698   4.833  10.679  0.00  0.00    +0.000 A 
ENDBRANCH  12  13
ENDBRANCH   4  12
TORSDOF 5
ENDMDL
MODEL 7
REMARK VINA RESULT:    -5.239      2.958      6.823
REMARK INTER + INTRA:          -7.098
REMARK INTER:                  -7.327
REMARK INTRA:                   0.229
REMARK UNBOUND:                -0.481
REMARK  Name = 
REMARK  5 active torsions:
REMARK  status: ('A' for Active; 'I' for Inactive)
REMARK    1  A    between atoms: N_1  and  C_2
REMARK    2  A    between atoms: C_2  and  C_3
REMARK    3  A    between atoms: C_3  and  C_4
REMARK    4  A    between atoms: C_7  and  C_8
REMARK    5  A    between atoms: C_8  and  N_9
REMARK                            x       y       z     vdW  Elec       q    Type
REMARK                         _______ _______ _______ _____ _____    ______ ____
ROOT
ATOM      1  C   UNL     1      47.605   5.533  14.753  0.00  0.00    +0.000 A 
ATOM      2  C   UNL     1      47.393   6.343  13.636  0.00  0.00    +0.000 A 
ATOM      3  C   UNL     1      46.446   5.975  12.677  0.00  0.00    +0.000 A 
ATOM      4  C   UNL     1      45.738   4.788  12.850  0.00  0.00    +0.000 A 
ATOM      5  N   UNL     1      45.908   4.000  13.940  0.00  0.00    +0.000 NA
ATOM      6  C   UNL     1      46.816   4.393  14.865  0.00  0.00    +0.000 A 
ENDROOT
BRANCH   1   7
ATOM      7  C   UNL     1      48.624   5.896  15.804  0.00  0.00    +0.000 C 
BRANCH   7   8
ATOM      8  C   UNL     1      49.333   7.230  15.522  0.00  0.00    +0.000 C 
BRANCH   8   9
ATOM      9  N   UNL     1      50.732   7.015  15.158  0.00  0.00    +0.000 NA
ATOM     10  H   UNL     1      50.992   7.664  14.418  0.00  0.00    +0.000 HD
ATOM     11  H   UNL     1      50.850   6.079  14.768  0.00  0.00    +0.000 HD
ENDBRANCH   8   9
ENDBRANCH   7   8
ENDBRANCH   1   7
BRANCH   4  12
ATOM     12  C   UNL     1      44.759   4.308  11.806  0.00  0.00    +0.000 C 
BRANCH  12  13
ATOM     13  N   UNL     1      45.273   4.474  10.460  0.00  0.00    +0.000 N 
ATOM     14  C   UNL     1      45.610   5.673   9.890  0.00  0.00    +0.000 A 
ATOM     15  N   UNL     1      46.077   5.517   8.672  0.00  0.00    +0.000 NA
ATOM     16  C   UNL     1      46.026   4.168   8.434  0.00  0.00    +0.000 A 
ATOM     17  C   UNL     1      46.431   3.452   7.301  0.00  0.00    +0.000 A 
ATOM     18  C   UNL     1      46.264   2.069   7.307  0.00  0.00    +0.000 A 
ATOM     19  F   UNL     1      46.672   1.357   6.247  0.00  0.00    +0.000 F 
ATOM     20  C   UNL     1      45.686   1.402   8.384  0.00  0.00    +0.000 A 
ATOM     21  C   UNL     1      45.273   2.100   9.523  0.00  0.00    +0.000 A 
ATOM     22  C   UNL     1      45.482   3.486   9.526  0.00  0.00    +0.000 A 
ENDBRANCH  12  13
ENDBRANCH   4  12
TORSDOF 5
ENDMDL
MODEL 8
REMARK VINA RESULT:    -5.079      4.537      7.122
REMARK INTER + INTRA:          -6.896
REMARK INTER:                  -6.409
REMARK INTRA:                  -0.488
REMARK UNBOUND:                -0.481
REMARK  Name = 
REMARK  5 active torsions:
REMARK  status: ('A' for Active; 'I' for Inactive)
REMARK    1  A    between atoms: N_1  and  C_2
REMARK    2  A    between atoms: C_2  and  C_3
REMARK    3  A    between atoms: C_3  and  C_4
REMARK    4  A    between atoms: C_7  and  C_8
REMARK    5  A    between atoms: C_8  and  N_9
REMARK                            x       y       z     vdW  Elec       q    Type
REMARK                         _______ _______ _______ _____ _____    ______ ____
ROOT
ATOM      1  C   UNL     1      45.950   6.066  12.720  0.00  0.00    +0.000 A 
ATOM      2  C   UNL     1      46.330   7.406  12.821  0.00  0.00    +0.000 A 
ATOM      3  C   UNL     1      47.463   7.756  13.559  0.00  0.00    +0.000 A 
ATOM      4  C   UNL     1      48.188   6.752  14.198  0.00  0.00    +0.000 A 
ATOM      5  N   UNL     1      47.854   5.442  14.090  0.00  0.00    +0.000 NA
ATOM      6  C   UNL     1      46.764   5.130  13.349  0.00  0.00    +0.000 A 
ENDROOT
BRANCH   1   7
ATOM      7  C   UNL     1      44.729   5.653  11.937  0.00  0.00    +0.000 C 
BRANCH   7   8
ATOM      8  C   UNL     1      43.807   4.701  12.714  0.00  0.00    +0.000 C 
BRANCH   8   9
ATOM      9  N   UNL     1      42.668   5.419  13.281  0.00  0.00    +0.000 NA
ATOM     10  H   UNL     1      41.811   5.103  12.829  0.00  0.00    +0.000 HD
ATOM     11  H   UNL     1      42.746   6.415  13.074  0.00  0.00    +0.000 HD
ENDBRANCH   8   9
ENDBRANCH   7   8
ENDBRANCH   1   7
BRANCH   4  12
ATOM     12  C   UNL     1      49.375   7.085  15.069  0.00  0.00    +0.000 C 
BRANCH  12  13
ATOM     13  N   UNL     1      49.009   7.197  16.468  0.00  0.00    +0.000 N 
ATOM     14  C   UNL     1      48.594   8.349  17.082  0.00  0.00    +0.000 A 
ATOM     15  N   UNL     1      48.299   8.146  18.346  0.00  0.00    +0.000 NA
ATOM     16  C   UNL     1      48.549   6.816  18.567  0.00  0.00    +0.000 A 
ATOM     17  C   UNL     1      48.376   6.065  19.736  0.00  0.00    +0.000 A 
ATOM     18  C   UNL     1      48.715   4.714  19.701  0.00  0.00    +0.000 A 
ATOM     19  F   UNL     1      48.529   3.966  20.798  0.00  0.00    +0.000 F 
ATOM     20  C   UNL     1      49.239   4.116  18.559  0.00  0.00    +0.000 A 
ATOM     21  C   UNL     1      49.421   4.850  17.383  0.00  0.00    +0.000 A 
ATOM     22  C   UNL     1      49.040   6.199  17.414  0.00  0.00    +0.000 A 
ENDBRANCH  12  13
ENDBRANCH   4  12
TORSDOF 5
ENDMDL
MODEL 9
REMARK VINA RESULT:    -4.661      3.321      6.941
REMARK INTER + INTRA:          -6.368
REMARK INTER:                  -6.516
REMARK INTRA:                   0.148
REMARK UNBOUND:                -0.481
REMARK  Name = 
REMARK  5 active torsions:
REMARK  status: ('A' for Active; 'I' for Inactive)
REMARK    1  A    between atoms: N_1  and  C_2
REMARK    2  A    between atoms: C_2  and  C_3
REMARK    3  A    between atoms: C_3  and  C_4
REMARK    4  A    between atoms: C_7  and  C_8
REMARK    5  A    between atoms: C_8  and  N_9
REMARK                            x       y       z     vdW  Elec       q    Type
REMARK                         _______ _______ _______ _____ _____    ______ ____
ROOT
ATOM      1  C   UNL     1      48.441   5.678  15.806  0.00  0.00    +0.000 A 
ATOM      2  C   UNL     1      47.509   4.777  15.289  0.00  0.00    +0.000 A 
ATOM      3  C   UNL     1      46.708   5.145  14.206  0.00  0.00    +0.000 A 
ATOM      4  C   UNL     1      46.847   6.423  13.669  0.00  0.00    +0.000 A 
ATOM      5  N   UNL     1      47.765   7.305  14.137  0.00  0.00    +0.000 NA
ATOM      6  C   UNL     1      48.544   6.912  15.173  0.00  0.00    +0.000 A 
ENDROOT
BRANCH   1   7
ATOM      7  C   UNL     1      49.317   5.315  16.979  0.00  0.00    +0.000 C 
BRANCH   7   8
ATOM      8  C   UNL     1      49.120   3.868  17.455  0.00  0.00    +0.000 C 
BRANCH   8   9
ATOM      9  N   UNL     1      49.858   3.616  18.691  0.00  0.00    +0.000 NA
ATOM     10  H   UNL     1      49.421   2.845  19.194  0.00  0.00    +0.000 HD
ATOM     11  H   UNL     1      49.792   4.428  19.307  0.00  0.00    +0.000 HD
ENDBRANCH   8   9
ENDBRANCH   7   8
ENDBRANCH   1   7
BRANCH   4  12
ATOM     12  C   UNL     1      45.955   6.897  12.548  0.00  0.00    +0.000 C 
BRANCH  12  13
ATOM     13  N   UNL     1      45.155   5.820  11.997  0.00  0.00    +0.000 N 
ATOM     14  C   UNL     1      44.164   5.154  12.667  0.00  0.00    +0.000 A 
ATOM     15  N   UNL     1      43.588   4.249  11.908  0.00  0.00    +0.000 NA
ATOM     16  C   UNL     1      44.241   4.317  10.704  0.00  0.00    +0.000 A 
ATOM     17  C   UNL     1      44.010   3.592   9.529  0.00  0.00    +0.000 A 
ATOM     18  C   UNL     1      44.829   3.847   8.431  0.00  0.00    +0.000 A 
ATOM     19  F   UNL     1      44.608   3.189   7.284  0.00  0.00    +0.000 F 
ATOM     20  C   UNL     1      45.871   4.769   8.489  0.00  0.00    +0.000 A 
ATOM     21  C   UNL     1      46.118   5.501   9.655  0.00  0.00    +0.000 A 
ATOM     22  C   UNL     1      45.265   5.267  10.741  0.00  0.00    +0.000 A 
ENDBRANCH  12  13
ENDBRANCH   4  12
TORSDOF 5
ENDMDL
