MODEL 1
REMARK VINA RESULT:    -8.149      0.000      0.000
REMARK INTER + INTRA:         -12.342
REMARK INTER:                 -11.245
REMARK INTRA:                  -1.097
REMARK UNBOUND:                -1.097
REMARK  Name = 
REMARK  7 active torsions:
REMARK  status: ('A' for Active; 'I' for Inactive)
REMARK    1  A    between atoms: C_2  and  C_20
REMARK    2  A    between atoms: N_3  and  C_4
REMARK    3  A    between atoms: C_4  and  C_5
REMARK    4  A    between atoms: C_8  and  C_9
REMARK    5  A    between atoms: C_9  and  O_10
REMARK    6  A    between atoms: C_9  and  C_11
REMARK    7  A    between atoms: C_11  and  N_12
REMARK                            x       y       z     vdW  Elec       q    Type
REMARK                         _______ _______ _______ _____ _____    ______ ____
ROOT
ATOM      1  C   UNL     1      47.102   7.587  13.287  0.00  0.00    +0.000 C 
ENDROOT
BRANCH   1   2
ATOM      2  C   UNL     1      46.381   6.496  12.537  0.00  0.00    +0.000 A 
ATOM      3  C   UNL     1      45.753   5.448  13.206  0.00  0.00    +0.000 A 
ATOM      4  N   UNL     1      45.109   4.431  12.568  0.00  0.00    +0.000 NA
ATOM      5  C   UNL     1      45.087   4.511  11.210  0.00  0.00    +0.000 A 
ATOM      6  C   UNL     1      45.691   5.578  10.549  0.00  0.00    +0.000 A 
ATOM      7  N   UNL     1      46.341   6.582  11.185  0.00  0.00    +0.000 NA
BRANCH   5   8
ATOM      8  C   UNL     1      44.427   3.410  10.402  0.00  0.00    +0.000 C 
BRANCH   8   9
ATOM      9  O   UNL     1      43.121   3.120  10.922  0.00  0.00    +0.000 OA
ATOM     10  H   UNL     1      42.931   3.819  11.575  0.00  0.00    +0.000 HD
ENDBRANCH   8   9
BRANCH   8  11
ATOM     11  C   UNL     1      44.306   3.734   8.890  0.00  0.00    +0.000 C 
BRANCH  11  12
ATOM     12  N   UNL     1      45.136   2.923   7.972  0.00  0.00    +0.000 NA
ATOM     13  C   UNL     1      46.166   3.734   7.307  0.00  0.00    +0.000 C 
ATOM     14  C   UNL     1      46.989   2.898   6.329  0.00  0.00    +0.000 C 
ATOM     15  C   UNL     1      47.620   1.699   7.020  0.00  0.00    +0.000 C 
ATOM     16  C   UNL     1      46.556   0.901   7.763  0.00  0.00    +0.000 C 
ATOM     17  C   UNL     1      45.748   1.799   8.703  0.00  0.00    +0.000 C 
ENDBRANCH  11  12
ENDBRANCH   8  11
ENDBRANCH   5   8
ENDBRANCH   1   2
BRANCH   1  20
ATOM     18  O   UNL     1      49.735   7.012  13.964  0.00  0.00    +0.000 OA
ATOM     19  C   UNL     1      48.883   6.957  14.843  0.00  0.00    +0.000 C 
ATOM     20  N   UNL     1      47.549   7.151  14.590  0.00  0.00    +0.000 N 
ATOM     21  H   UNL     1      46.945   7.415  15.364  0.00  0.00    +0.000 HD
BRANCH  19  22
ATOM     22  C   UNL     1      49.229   6.631  16.232  0.00  0.00    +0.000 A 
ATOM     23  C   UNL     1      49.952   7.528  17.003  0.00  0.00    +0.000 A 
ATOM     24  S   UNL     1      50.284   6.959  18.577  0.00  0.00    +0.000 S 
ATOM     25  C   UNL     1      49.433   5.512  18.295  0.00  0.00    +0.000 A 
ATOM     26  N   UNL     1      49.289   4.570  19.277  0.00  0.00    +0.000 NA
ATOM     27  C   UNL     1      48.597   3.535  18.918  0.00  0.00    +0.000 A 
ATOM     28  N   UNL     1      48.041   3.362  17.685  0.00  0.00    +0.000 N 
ATOM     29  C   UNL     1      48.176   4.264  16.663  0.00  0.00    +0.000 A 
ATOM     30  O   UNL     1      47.735   4.032  15.543  0.00  0.00    +0.000 OA
ATOM     31  C   UNL     1      48.937   5.455  17.007  0.00  0.00    +0.000 A 
ATOM     32  H   UNL     1      47.518   2.519  17.461  0.00  0.00    +0.000 HD
ENDBRANCH  19  22
ENDBRANCH   1  20
TORSDOF 7
ENDMDL
MODEL 2
REMARK VINA RESULT:    -7.985      0.820      1.210
REMARK INTER + INTRA:         -12.116
REMARK INTER:                 -11.225
REMARK INTRA:                  -0.891
REMARK UNBOUND:                -1.097
REMARK  Name = 
REMARK  7 active torsions:
REMARK  status: ('A' for Active; 'I' for Inactive)
REMARK    1  A    between atoms: C_2  and  C_20
REMARK    2  A    between atoms: N_3  and  C_4
REMARK    3  A    between atoms: C_4  and  C_5
REMARK    4  A    between atoms: C_8  and  C_9
REMARK    5  A    between atoms: C_9  and  O_10
REMARK    6  A    between atoms: C_9  and  C_11
REMARK    7  A    between atoms: C_11  and  N_12
REMARK                            x       y       z     vdW  Elec       q    Type
REMARK                         _______ _______ _______ _____ _____    ______ ____
ROOT
ATOM      1  C   UNL     1      47.547   6.949  13.372  0.00  0.00    +0.000 C 
ENDROOT
BRANCH   1   2
ATOM      2  C   UNL     1      46.669   5.871  12.788  0.00  0.00    +0.000 A 
ATOM      3  C   UNL     1      46.511   4.641  13.421  0.00  0.00    +0.000 A 
ATOM      4  N   UNL     1      45.747   3.632  12.919  0.00  0.00    +0.000 NA
ATOM      5  C   UNL     1      45.106   3.908  11.750  0.00  0.00    +0.000 A 
ATOM      6  C   UNL     1      45.245   5.151  11.137  0.00  0.00    +0.000 A 
ATOM      7  N   UNL     1      46.015   6.148  11.633  0.00  0.00    +0.000 NA
BRANCH   5   8
ATOM      8  C   UNL     1      44.258   2.840  11.086  0.00  0.00    +0.000 C 
BRANCH   8   9
ATOM      9  O   UNL     1      42.919   2.868  11.605  0.00  0.00    +0.000 OA
ATOM     10  H   UNL     1      42.719   1.954  11.880  0.00  0.00    +0.000 HD
ENDBRANCH   8   9
BRANCH   8  11
ATOM     11  C   UNL     1      44.201   2.960   9.541  0.00  0.00    +0.000 C 
BRANCH  11  12
ATOM     12  N   UNL     1      45.464   2.717   8.812  0.00  0.00    +0.000 NA
ATOM     13  C   UNL     1      45.595   1.311   8.402  0.00  0.00    +0.000 C 
ATOM     14  C   UNL     1      46.923   1.059   7.689  0.00  0.00    +0.000 C 
ATOM     15  C   UNL     1      47.091   1.981   6.491  0.00  0.00    +0.000 C 
ATOM     16  C   UNL     1      46.887   3.431   6.910  0.00  0.00    +0.000 C 
ATOM     17  C   UNL     1      45.556   3.611   7.645  0.00  0.00    +0.000 C 
ENDBRANCH  11  12
ENDBRANCH   8  11
ENDBRANCH   5   8
ENDBRANCH   1   2
BRANCH   1  20
ATOM     18  O   UNL     1      50.030   7.042  14.614  0.00  0.00    +0.000 OA
ATOM     19  C   UNL     1      49.035   6.893  15.314  0.00  0.00    +0.000 C 
ATOM     20  N   UNL     1      47.776   6.761  14.786  0.00  0.00    +0.000 N 
ATOM     21  H   UNL     1      46.978   6.964  15.383  0.00  0.00    +0.000 HD
BRANCH  19  22
ATOM     22  C   UNL     1      49.128   6.798  16.776  0.00  0.00    +0.000 A 
ATOM     23  C   UNL     1      49.427   7.920  17.533  0.00  0.00    +0.000 A 
ATOM     24  S   UNL     1      49.523   7.604  19.208  0.00  0.00    +0.000 S 
ATOM     25  C   UNL     1      49.121   5.966  18.980  0.00  0.00    +0.000 A 
ATOM     26  N   UNL     1      48.987   5.114  20.042  0.00  0.00    +0.000 NA
ATOM     27  C   UNL     1      48.656   3.906  19.711  0.00  0.00    +0.000 A 
ATOM     28  N   UNL     1      48.447   3.480  18.432  0.00  0.00    +0.000 N 
ATOM     29  C   UNL     1      48.592   4.289  17.334  0.00  0.00    +0.000 A 
ATOM     30  O   UNL     1      48.481   3.847  16.196  0.00  0.00    +0.000 OA
ATOM     31  C   UNL     1      48.954   5.663  17.642  0.00  0.00    +0.000 A 
ATOM     32  H   UNL     1      48.202   2.514  18.236  0.00  0.00    +0.000 HD
ENDBRANCH  19  22
ENDBRANCH   1  20
TORSDOF 7
ENDMDL
MODEL 3
REMARK VINA RESULT:    -7.886      2.029      2.657
REMARK INTER + INTRA:         -11.979
REMARK INTER:                 -11.237
REMARK INTRA:                  -0.742
REMARK UNBOUND:                -1.097
REMARK  Name = 
REMARK  7 active torsions:
REMARK  status: ('A' for Active; 'I' for Inactive)
REMARK    1  A    between atoms: C_2  and  C_20
REMARK    2  A    between atoms: N_3  and  C_4
REMARK    3  A    between atoms: C_4  and  C_5
REMARK    4  A    between atoms: C_8  and  C_9
REMARK    5  A    between atoms: C_9  and  O_10
REMARK    6  A    between atoms: C_9  and  C_11
REMARK    7  A    between atoms: C_11  and  N_12
REMARK                            x       y       z     vdW  Elec       q    Type
REMARK                         _______ _______ _______ _____ _____    ______ ____
ROOT
ATOM      1  C   UNL     1      47.880   6.245  14.003  0.00  0.00    +0.000 C 
ENDROOT
BRANCH   1   2
ATOM      2  C   UNL     1      46.909   5.386  13.233  0.00  0.00    +0.000 A 
ATOM      3  C   UNL     1      46.653   4.068  13.604  0.00  0.00    +0.000 A 
ATOM      4  N   UNL     1      45.801   3.251  12.925  0.00  0.00    +0.000 NA
ATOM      5  C   UNL     1      45.176   3.813  11.855  0.00  0.00    +0.000 A 
ATOM      6  C   UNL     1      45.415   5.141  11.507  0.00  0.00    +0.000 A 
ATOM      7  N   UNL     1      46.272   5.948  12.177  0.00  0.00    +0.000 NA
BRANCH   5   8
ATOM      8  C   UNL     1      44.235   2.979  11.009  0.00  0.00    +0.000 C 
BRANCH   8   9
ATOM      9  O   UNL     1      42.875   3.179  11.425  0.00  0.00    +0.000 OA
ATOM     10  H   UNL     1      42.648   4.092  11.170  0.00  0.00    +0.000 HD
ENDBRANCH   8   9
BRANCH   8  11
ATOM     11  C   UNL     1      44.343   3.266   9.488  0.00  0.00    +0.000 C 
BRANCH  11  12
ATOM     12  N   UNL     1      45.566   2.783   8.810  0.00  0.00    +0.000 NA
ATOM     13  C   UNL     1      45.470   1.358   8.463  0.00  0.00    +0.000 C 
ATOM     14  C   UNL     1      46.754   0.857   7.803  0.00  0.00    +0.000 C 
ATOM     15  C   UNL     1      47.103   1.683   6.574  0.00  0.00    +0.000 C 
ATOM     16  C   UNL     1      47.133   3.165   6.926  0.00  0.00    +0.000 C 
ATOM     17  C   UNL     1      45.833   3.596   7.610  0.00  0.00    +0.000 C 
ENDBRANCH  11  12
ENDBRANCH   8  11
ENDBRANCH   5   8
ENDBRANCH   1   2
BRANCH   1  20
ATOM     18  O   UNL     1      50.030   6.465  15.749  0.00  0.00    +0.000 OA
ATOM     19  C   UNL     1      48.928   6.194  16.214  0.00  0.00    +0.000 C 
ATOM     20  N   UNL     1      47.825   5.993  15.424  0.00  0.00    +0.000 N 
ATOM     21  H   UNL     1      46.905   6.095  15.846  0.00  0.00    +0.000 HD
BRANCH  19  22
ATOM     22  C   UNL     1      48.722   6.020  17.657  0.00  0.00    +0.000 A 
ATOM     23  C   UNL     1      48.973   4.795  18.257  0.00  0.00    +0.000 A 
ATOM     24  S   UNL     1      48.645   4.780  19.932  0.00  0.00    +0.000 S 
ATOM     25  C   UNL     1      48.202   6.423  19.919  0.00  0.00    +0.000 A 
ATOM     26  N   UNL     1      47.844   7.070  21.070  0.00  0.00    +0.000 NA
ATOM     27  C   UNL     1      47.556   8.323  20.903  0.00  0.00    +0.000 A 
ATOM     28  N   UNL     1      47.597   8.977  19.706  0.00  0.00    +0.000 N 
ATOM     29  C   UNL     1      47.926   8.367  18.524  0.00  0.00    +0.000 A 
ATOM     30  O   UNL     1      47.867   8.968  17.457  0.00  0.00    +0.000 OA
ATOM     31  C   UNL     1      48.270   6.959  18.647  0.00  0.00    +0.000 A 
ATOM     32  H   UNL     1      47.346   9.959  19.639  0.00  0.00    +0.000 HD
ENDBRANCH  19  22
ENDBRANCH   1  20
TORSDOF 7
ENDMDL
MODEL 4
REMARK VINA RESULT:    -7.540      1.883      3.466
REMARK INTER + INTRA:         -11.503
REMARK INTER:                 -10.698
REMARK INTRA:                  -0.805
REMARK UNBOUND:                -1.097
REMARK  Name = 
REMARK  7 active torsions:
REMARK  status: ('A' for Active; 'I' for Inactive)
REMARK    1  A    between atoms: C_2  and  C_20
REMARK    2  A    between atoms: N_3  and  C_4
REMARK    3  A    between atoms: C_4  and  C_5
REMARK    4  A    between atoms: C_8  and  C_9
REMARK    5  A    between atoms: C_9  and  O_10
REMARK    6  A    between atoms: C_9  and  C_11
REMARK    7  A    between atoms: C_11  and  N_12
REMARK                            x       y       z     vdW  Elec       q    Type
REMARK                         _______ _______ _______ _____ _____    ______ ____
ROOT
ATOM      1  C   UNL     1      47.012   4.535  15.017  0.00  0.00    +0.000 C 
ENDROOT
BRANCH   1   2
ATOM      2  C   UNL     1      46.339   4.472  13.670  0.00  0.00    +0.000 A 
ATOM      3  C   UNL     1      46.252   5.593  12.848  0.00  0.00    +0.000 A 
ATOM      4  N   UNL     1      45.636   5.586  11.633  0.00  0.00    +0.000 NA
ATOM      5  C   UNL     1      45.121   4.388  11.244  0.00  0.00    +0.000 A 
ATOM      6  C   UNL     1      45.237   3.264  12.058  0.00  0.00    +0.000 A 
ATOM      7  N   UNL     1      45.841   3.276  13.270  0.00  0.00    +0.000 NA
BRANCH   5   8
ATOM      8  C   UNL     1      44.381   4.280   9.925  0.00  0.00    +0.000 C 
BRANCH   8   9
ATOM      9  O   UNL     1      43.259   5.176   9.904  0.00  0.00    +0.000 OA
ATOM     10  H   UNL     1      42.721   4.914   9.133  0.00  0.00    +0.000 HD
ENDBRANCH   8   9
BRANCH   8  11
ATOM     11  C   UNL     1      45.271   4.561   8.686  0.00  0.00    +0.000 C 
BRANCH  11  12
ATOM     12  N   UNL     1      45.673   3.387   7.881  0.00  0.00    +0.000 NA
ATOM     13  C   UNL     1      46.881   3.656   7.089  0.00  0.00    +0.000 C 
ATOM     14  C   UNL     1      47.264   2.454   6.227  0.00  0.00    +0.000 C 
ATOM     15  C   UNL     1      47.449   1.203   7.074  0.00  0.00    +0.000 C 
ATOM     16  C   UNL     1      46.219   0.969   7.942  0.00  0.00    +0.000 C 
ATOM     17  C   UNL     1      45.872   2.218   8.756  0.00  0.00    +0.000 C 
ENDBRANCH  11  12
ENDBRANCH   8  11
ENDBRANCH   5   8
ENDBRANCH   1   2
BRANCH   1  20
ATOM     18  O   UNL     1      49.223   4.937  16.651  0.00  0.00    +0.000 OA
ATOM     19  C   UNL     1      48.784   5.893  16.022  0.00  0.00    +0.000 C 
ATOM     20  N   UNL     1      47.653   5.809  15.249  0.00  0.00    +0.000 N 
ATOM     21  H   UNL     1      47.519   6.500  14.515  0.00  0.00    +0.000 HD
BRANCH  19  22
ATOM     22  C   UNL     1      49.415   7.216  16.089  0.00  0.00    +0.000 A 
ATOM     23  C   UNL     1      49.603   7.841  17.313  0.00  0.00    +0.000 A 
ATOM     24  S   UNL     1      50.322   9.383  17.186  0.00  0.00    +0.000 S 
ATOM     25  C   UNL     1      50.449   9.248  15.494  0.00  0.00    +0.000 A 
ATOM     26  N   UNL     1      51.031  10.234  14.745  0.00  0.00    +0.000 NA
ATOM     27  C   UNL     1      51.074   9.976  13.476  0.00  0.00    +0.000 A 
ATOM     28  N   UNL     1      50.598   8.836  12.898  0.00  0.00    +0.000 N 
ATOM     29  C   UNL     1      49.987   7.831  13.602  0.00  0.00    +0.000 A 
ATOM     30  O   UNL     1      49.494   6.863  13.035  0.00  0.00    +0.000 OA
ATOM     31  C   UNL     1      49.916   8.058  15.037  0.00  0.00    +0.000 A 
ATOM     32  H   UNL     1      50.650   8.699  11.892  0.00  0.00    +0.000 HD
ENDBRANCH  19  22
ENDBRANCH   1  20
TORSDOF 7
ENDMDL
MODEL 5
REMARK VINA RESULT:    -7.475      2.281      4.157
REMARK INTER + INTRA:         -11.412
REMARK INTER:                 -10.375
REMARK INTRA:                  -1.037
REMARK UNBOUND:                -1.097
REMARK  Name = 
REMARK  7 active torsions:
REMARK  status: ('A' for Active; 'I' for Inactive)
REMARK    1  A    between atoms: C_2  and  C_20
REMARK    2  A    between atoms: N_3  and  C_4
REMARK    3  A    between atoms: C_4  and  C_5
REMARK    4  A    between atoms: C_8  and  C_9
REMARK    5  A    between atoms: C_9  and  O_10
REMARK    6  A    between atoms: C_9  and  C_11
REMARK    7  A    between atoms: C_11  and  N_12
REMARK                            x       y       z     vdW  Elec       q    Type
REMARK                         _______ _______ _______ _____ _____    ______ ____
ROOT
ATOM      1  C   UNL     1      47.525   5.182  15.082  0.00  0.00    +0.000 C 
ENDROOT
BRANCH   1   2
ATOM      2  C   UNL     1      46.633   4.691  13.971  0.00  0.00    +0.000 A 
ATOM      3  C   UNL     1      45.853   5.569  13.223  0.00  0.00    +0.000 A 
ATOM      4  N   UNL     1      45.018   5.167  12.225  0.00  0.00    +0.000 NA
ATOM      5  C   UNL     1      45.008   3.830  11.972  0.00  0.00    +0.000 A 
ATOM      6  C   UNL     1      45.813   2.960  12.704  0.00  0.00    +0.000 A 
ATOM      7  N   UNL     1      46.634   3.362  13.704  0.00  0.00    +0.000 NA
BRANCH   5   8
ATOM      8  C   UNL     1      44.086   3.272  10.905  0.00  0.00    +0.000 C 
BRANCH   8   9
ATOM      9  O   UNL     1      42.717   3.358  11.331  0.00  0.00    +0.000 OA
ATOM     10  H   UNL     1      42.606   2.676  12.018  0.00  0.00    +0.000 HD
ENDBRANCH   8   9
BRANCH   8  11
ATOM     11  C   UNL     1      44.229   3.973   9.529  0.00  0.00    +0.000 C 
BRANCH  11  12
ATOM     12  N   UNL     1      44.940   3.218   8.474  0.00  0.00    +0.000 NA
ATOM     13  C   UNL     1      45.981   4.031   7.829  0.00  0.00    +0.000 C 
ATOM     14  C   UNL     1      46.680   3.258   6.712  0.00  0.00    +0.000 C 
ATOM     15  C   UNL     1      47.266   1.952   7.226  0.00  0.00    +0.000 C 
ATOM     16  C   UNL     1      46.198   1.145   7.952  0.00  0.00    +0.000 C 
ATOM     17  C   UNL     1      45.516   1.983   9.037  0.00  0.00    +0.000 C 
ENDBRANCH  11  12
ENDBRANCH   8  11
ENDBRANCH   5   8
ENDBRANCH   1   2
BRANCH   1  20
ATOM     18  O   UNL     1      49.996   6.306  15.671  0.00  0.00    +0.000 OA
ATOM     19  C   UNL     1      49.129   7.028  15.193  0.00  0.00    +0.000 C 
ATOM     20  N   UNL     1      47.857   6.581  14.939  0.00  0.00    +0.000 N 
ATOM     21  H   UNL     1      47.292   7.092  14.265  0.00  0.00    +0.000 HD
BRANCH  19  22
ATOM     22  C   UNL     1      49.379   8.444  14.900  0.00  0.00    +0.000 A 
ATOM     23  C   UNL     1      49.804   9.302  15.903  0.00  0.00    +0.000 A 
ATOM     24  S   UNL     1      50.011  10.913  15.378  0.00  0.00    +0.000 S 
ATOM     25  C   UNL     1      49.585  10.507  13.781  0.00  0.00    +0.000 A 
ATOM     26  N   UNL     1      49.600  11.443  12.783  0.00  0.00    +0.000 NA
ATOM     27  C   UNL     1      49.273  10.977  11.618  0.00  0.00    +0.000 A 
ATOM     28  N   UNL     1      48.942   9.678  11.365  0.00  0.00    +0.000 N 
ATOM     29  C   UNL     1      48.890   8.711  12.334  0.00  0.00    +0.000 A 
ATOM     30  O   UNL     1      48.503   7.575  12.083  0.00  0.00    +0.000 OA
ATOM     31  C   UNL     1      49.255   9.170  13.665  0.00  0.00    +0.000 A 
ATOM     32  H   UNL     1      48.682   9.378  10.430  0.00  0.00    +0.000 HD
ENDBRANCH  19  22
ENDBRANCH   1  20
TORSDOF 7
ENDMDL
MODEL 6
REMARK VINA RESULT:    -7.051      2.546      3.025
REMARK INTER + INTRA:         -10.828
REMARK INTER:                  -9.925
REMARK INTRA:                  -0.903
REMARK UNBOUND:                -1.097
REMARK  Name = 
REMARK  7 active torsions:
REMARK  status: ('A' for Active; 'I' for Inactive)
REMARK    1  A    between atoms: C_2  and  C_20
REMARK    2  A    between atoms: N_3  and  C_4
REMARK    3  A    between atoms: C_4  and  C_5
REMARK    4  A    between atoms: C_8  and  C_9
REMARK    5  A    between atoms: C_9  and  O_10
REMARK    6  A    between atoms: C_9  and  C_11
REMARK    7  A    between atoms: C_11  and  N_12
REMARK                            x       y       z     vdW  Elec       q    Type
REMARK                         _______ _______ _______ _____ _____    ______ ____
ROOT
ATOM      1  C   UNL     1      48.776   6.725  15.742  0.00  0.00    +0.000 C 
ENDROOT
BRANCH   1   2
ATOM      2  C   UNL     1      47.823   5.938  14.879  0.00  0.00    +0.000 A 
ATOM      3  C   UNL     1      47.214   4.775  15.344  0.00  0.00    +0.000 A 
ATOM      4  N   UNL     1      46.364   4.021  14.593  0.00  0.00    +0.000 NA
ATOM      5  C   UNL     1      46.113   4.494  13.341  0.00  0.00    +0.000 A 
ATOM      6  C   UNL     1      46.702   5.673  12.893  0.00  0.00    +0.000 A 
ATOM      7  N   UNL     1      47.556   6.414  13.638  0.00  0.00    +0.000 NA
BRANCH   5   8
ATOM      8  C   UNL     1      45.209   3.711  12.409  0.00  0.00    +0.000 C 
BRANCH   8   9
ATOM      9  O   UNL     1      44.088   3.175  13.129  0.00  0.00    +0.000 OA
ATOM     10  H   UNL     1      44.127   3.571  14.020  0.00  0.00    +0.000 HD
ENDBRANCH   8   9
BRANCH   8  11
ATOM     11  C   UNL     1      44.684   4.539  11.207  0.00  0.00    +0.000 C 
BRANCH  11  12
ATOM     12  N   UNL     1      44.790   3.909   9.873  0.00  0.00    +0.000 NA
ATOM     13  C   UNL     1      45.724   4.633   9.000  0.00  0.00    +0.000 C 
ATOM     14  C   UNL     1      45.793   4.001   7.611  0.00  0.00    +0.000 C 
ATOM     15  C   UNL     1      46.170   2.529   7.691  0.00  0.00    +0.000 C 
ATOM     16  C   UNL     1      45.239   1.799   8.650  0.00  0.00    +0.000 C 
ATOM     17  C   UNL     1      45.191   2.498  10.011  0.00  0.00    +0.000 C 
ENDBRANCH  11  12
ENDBRANCH   8  11
ENDBRANCH   5   8
ENDBRANCH   1   2
BRANCH   1  20
ATOM     18  O   UNL     1      49.691   6.557  18.360  0.00  0.00    +0.000 OA
ATOM     19  C   UNL     1      50.233   5.861  17.509  0.00  0.00    +0.000 C 
ATOM     20  N   UNL     1      49.900   5.930  16.180  0.00  0.00    +0.000 N 
ATOM     21  H   UNL     1      50.128   5.138  15.584  0.00  0.00    +0.000 HD
BRANCH  19  22
ATOM     22  C   UNL     1      51.317   4.932  17.849  0.00  0.00    +0.000 A 
ATOM     23  C   UNL     1      52.506   5.408  18.381  0.00  0.00    +0.000 A 
ATOM     24  S   UNL     1      53.655   4.182  18.681  0.00  0.00    +0.000 S 
ATOM     25  C   UNL     1      52.583   2.969  18.155  0.00  0.00    +0.000 A 
ATOM     26  N   UNL     1      52.934   1.647  18.193  0.00  0.00    +0.000 NA
ATOM     27  C   UNL     1      52.005   0.843  17.781  0.00  0.00    +0.000 A 
ATOM     28  N   UNL     1      50.774   1.236  17.344  0.00  0.00    +0.000 N 
ATOM     29  C   UNL     1      50.385   2.548  17.265  0.00  0.00    +0.000 A 
ATOM     30  O   UNL     1      49.303   2.866  16.784  0.00  0.00    +0.000 OA
ATOM     31  C   UNL     1      51.383   3.502  17.723  0.00  0.00    +0.000 A 
ATOM     32  H   UNL     1      50.092   0.556  17.020  0.00  0.00    +0.000 HD
ENDBRANCH  19  22
ENDBRANCH   1  20
TORSDOF 7
ENDMDL
MODEL 7
REMARK VINA RESULT:    -7.017      2.118      3.424
REMARK INTER + INTRA:         -10.780
REMARK INTER:                 -10.348
REMARK INTRA:                  -0.432
REMARK UNBOUND:                -1.097
REMARK  Name = 
REMARK  7 active torsions:
REMARK  status: ('A' for Active; 'I' for Inactive)
REMARK    1  A    between atoms: C_2  and  C_20
REMARK    2  A    between atoms: N_3  and  C_4
REMARK    3  A    between atoms: C_4  and  C_5
REMARK    4  A    between atoms: C_8  and  C_9
REMARK    5  A    between atoms: C_9  and  O_10
REMARK    6  A    between atoms: C_9  and  C_11
REMARK    7  A    between atoms: C_11  and  N_12
REMARK                            x       y       z     vdW  Elec       q    Type
REMARK                         _______ _______ _______ _____ _____    ______ ____
ROOT
ATOM      1  C   UNL     1      47.531   3.844  15.383  0.00  0.00    +0.000 C 
ENDROOT
BRANCH   1   2
ATOM      2  C   UNL     1      46.779   4.150  14.113  0.00  0.00    +0.000 A 
ATOM      3  C   UNL     1      46.651   5.455  13.641  0.00  0.00    +0.000 A 
ATOM      4  N   UNL     1      45.962   5.779  12.511  0.00  0.00    +0.000 NA
ATOM      5  C   UNL     1      45.416   4.730  11.836  0.00  0.00    +0.000 A 
ATOM      6  C   UNL     1      45.573   3.426  12.298  0.00  0.00    +0.000 A 
ATOM      7  N   UNL     1      46.249   3.107  13.428  0.00  0.00    +0.000 NA
BRANCH   5   8
ATOM      8  C   UNL     1      44.598   4.985  10.586  0.00  0.00    +0.000 C 
BRANCH   8   9
ATOM      9  O   UNL     1      45.235   5.975   9.763  0.00  0.00    +0.000 OA
ATOM     10  H   UNL     1      45.117   6.825  10.226  0.00  0.00    +0.000 HD
ENDBRANCH   8   9
BRANCH   8  11
ATOM     11  C   UNL     1      44.344   3.712   9.736  0.00  0.00    +0.000 C 
BRANCH  11  12
ATOM     12  N   UNL     1      45.494   3.194   8.964  0.00  0.00    +0.000 NA
ATOM     13  C   UNL     1      45.388   1.746   8.735  0.00  0.00    +0.000 C 
ATOM     14  C   UNL     1      46.601   1.211   7.974  0.00  0.00    +0.000 C 
ATOM     15  C   UNL     1      46.796   1.947   6.657  0.00  0.00    +0.000 C 
ATOM     16  C   UNL     1      46.836   3.451   6.894  0.00  0.00    +0.000 C 
ATOM     17  C   UNL     1      45.612   3.918   7.685  0.00  0.00    +0.000 C 
ENDBRANCH  11  12
ENDBRANCH   8  11
ENDBRANCH   5   8
ENDBRANCH   1   2
BRANCH   1  20
ATOM     18  O   UNL     1      49.684   4.989  16.714  0.00  0.00    +0.000 OA
ATOM     19  C   UNL     1      48.568   5.461  16.901  0.00  0.00    +0.000 C 
ATOM     20  N   UNL     1      47.438   4.917  16.346  0.00  0.00    +0.000 N 
ATOM     21  H   UNL     1      46.613   5.506  16.259  0.00  0.00    +0.000 HD
BRANCH  19  22
ATOM     22  C   UNL     1      48.358   6.621  17.774  0.00  0.00    +0.000 A 
ATOM     23  C   UNL     1      48.198   6.448  19.141  0.00  0.00    +0.000 A 
ATOM     24  S   UNL     1      47.934   7.908  19.984  0.00  0.00    +0.000 S 
ATOM     25  C   UNL     1      48.070   8.825  18.556  0.00  0.00    +0.000 A 
ATOM     26  N   UNL     1      47.985  10.190  18.578  0.00  0.00    +0.000 NA
ATOM     27  C   UNL     1      48.131  10.746  17.417  0.00  0.00    +0.000 A 
ATOM     28  N   UNL     1      48.355  10.070  16.254  0.00  0.00    +0.000 N 
ATOM     29  C   UNL     1      48.425   8.703  16.177  0.00  0.00    +0.000 A 
ATOM     30  O   UNL     1      48.541   8.129  15.100  0.00  0.00    +0.000 OA
ATOM     31  C   UNL     1      48.278   8.019  17.452  0.00  0.00    +0.000 A 
ATOM     32  H   UNL     1      48.448  10.565  15.371  0.00  0.00    +0.000 HD
ENDBRANCH  19  22
ENDBRANCH   1  20
TORSDOF 7
ENDMDL
MODEL 8
REMARK VINA RESULT:    -6.993      2.192      3.018
REMARK INTER + INTRA:         -10.748
REMARK INTER:                 -10.294
REMARK INTRA:                  -0.454
REMARK UNBOUND:                -1.097
REMARK  Name = 
REMARK  7 active torsions:
REMARK  status: ('A' for Active; 'I' for Inactive)
REMARK    1  A    between atoms: C_2  and  C_20
REMARK    2  A    between atoms: N_3  and  C_4
REMARK    3  A    between atoms: C_4  and  C_5
REMARK    4  A    between atoms: C_8  and  C_9
REMARK    5  A    between atoms: C_9  and  O_10
REMARK    6  A    between atoms: C_9  and  C_11
REMARK    7  A    between atoms: C_11  and  N_12
REMARK                            x       y       z     vdW  Elec       q    Type
REMARK                         _______ _______ _______ _____ _____    ______ ____
ROOT
ATOM      1  C   UNL     1      47.070   4.439  15.196  0.00  0.00    +0.000 C 
ENDROOT
BRANCH   1   2
ATOM      2  C   UNL     1      46.378   4.420  13.857  0.00  0.00    +0.000 A 
ATOM      3  C   UNL     1      46.130   5.595  13.151  0.00  0.00    +0.000 A 
ATOM      4  N   UNL     1      45.488   5.626  11.950  0.00  0.00    +0.000 NA
ATOM      5  C   UNL     1      45.119   4.415  11.450  0.00  0.00    +0.000 A 
ATOM      6  C   UNL     1      45.397   3.242  12.148  0.00  0.00    +0.000 A 
ATOM      7  N   UNL     1      46.024   3.214  13.348  0.00  0.00    +0.000 NA
BRANCH   5   8
ATOM      8  C   UNL     1      44.367   4.341  10.136  0.00  0.00    +0.000 C 
BRANCH   8   9
ATOM      9  O   UNL     1      43.262   5.258  10.138  0.00  0.00    +0.000 OA
ATOM     10  H   UNL     1      42.739   5.047  10.934  0.00  0.00    +0.000 HD
ENDBRANCH   8   9
BRANCH   8  11
ATOM     11  C   UNL     1      45.252   4.623   8.894  0.00  0.00    +0.000 C 
BRANCH  11  12
ATOM     12  N   UNL     1      45.595   3.459   8.049  0.00  0.00    +0.000 NA
ATOM     13  C   UNL     1      46.781   3.716   7.221  0.00  0.00    +0.000 C 
ATOM     14  C   UNL     1      47.101   2.525   6.319  0.00  0.00    +0.000 C 
ATOM     15  C   UNL     1      47.284   1.251   7.130  0.00  0.00    +0.000 C 
ATOM     16  C   UNL     1      46.080   1.027   8.036  0.00  0.00    +0.000 C 
ATOM     17  C   UNL     1      45.794   2.265   8.889  0.00  0.00    +0.000 C 
ENDBRANCH  11  12
ENDBRANCH   8  11
ENDBRANCH   5   8
ENDBRANCH   1   2
BRANCH   1  20
ATOM     18  O   UNL     1      48.279   5.196  17.580  0.00  0.00    +0.000 OA
ATOM     19  C   UNL     1      48.482   5.879  16.583  0.00  0.00    +0.000 C 
ATOM     20  N   UNL     1      47.870   5.627  15.381  0.00  0.00    +0.000 N 
ATOM     21  H   UNL     1      48.299   5.995  14.536  0.00  0.00    +0.000 HD
BRANCH  19  22
ATOM     22  C   UNL     1      49.364   7.052  16.619  0.00  0.00    +0.000 A 
ATOM     23  C   UNL     1      48.838   8.328  16.483  0.00  0.00    +0.000 A 
ATOM     24  S   UNL     1      50.020   9.558  16.518  0.00  0.00    +0.000 S 
ATOM     25  C   UNL     1      51.270   8.428  16.762  0.00  0.00    +0.000 A 
ATOM     26  N   UNL     1      52.568   8.830  16.924  0.00  0.00    +0.000 NA
ATOM     27  C   UNL     1      53.400   7.857  17.123  0.00  0.00    +0.000 A 
ATOM     28  N   UNL     1      53.056   6.538  17.177  0.00  0.00    +0.000 N 
ATOM     29  C   UNL     1      51.775   6.085  16.997  0.00  0.00    +0.000 A 
ATOM     30  O   UNL     1      51.520   4.886  16.966  0.00  0.00    +0.000 OA
ATOM     31  C   UNL     1      50.790   7.132  16.779  0.00  0.00    +0.000 A 
ATOM     32  H   UNL     1      53.759   5.819  17.324  0.00  0.00    +0.000 HD
ENDBRANCH  19  22
ENDBRANCH   1  20
TORSDOF 7
ENDMDL
MODEL 9
REMARK VINA RESULT:    -6.901      2.467      3.150
REMARK INTER + INTRA:         -10.620
REMARK INTER:                 -10.057
REMARK INTRA:                  -0.563
REMARK UNBOUND:                -1.097
REMARK  Name = 
REMARK  7 active torsions:
REMARK  status: ('A' for Active; 'I' for Inactive)
REMARK    1  A    between atoms: C_2  and  C_20
REMARK    2  A    between atoms: N_3  and  C_4
REMARK    3  A    between atoms: C_4  and  C_5
REMARK    4  A    between atoms: C_8  and  C_9
REMARK    5  A    between atoms: C_9  and  O_10
REMARK    6  A    between atoms: C_9  and  C_11
REMARK    7  A    between atoms: C_11  and  N_12
REMARK                            x       y       z     vdW  Elec       q    Type
REMARK                         _______ _______ _______ _____ _____    ______ ____
ROOT
ATOM      1  C   UNL     1      47.522   4.826  14.758  0.00  0.00    +0.000 C 
ENDROOT
BRANCH   1   2
ATOM      2  C   UNL     1      46.673   4.675  13.522  0.00  0.00    +0.000 A 
ATOM      3  C   UNL     1      46.059   3.465  13.206  0.00  0.00    +0.000 A 
ATOM      4  N   UNL     1      45.302   3.277  12.089  0.00  0.00    +0.000 NA
ATOM      5  C   UNL     1      45.150   4.371  11.293  0.00  0.00    +0.000 A 
ATOM      6  C   UNL     1      45.742   5.586  11.630  0.00  0.00    +0.000 A 
ATOM      7  N   UNL     1      46.504   5.766  12.735  0.00  0.00    +0.000 NA
BRANCH   5   8
ATOM      8  C   UNL     1      44.356   4.260  10.006  0.00  0.00    +0.000 C 
BRANCH   8   9
ATOM      9  O   UNL     1      43.229   5.149  10.034  0.00  0.00    +0.000 OA
ATOM     10  H   UNL     1      42.848   5.073  10.929  0.00  0.00    +0.000 HD
ENDBRANCH   8   9
BRANCH   8  11
ATOM     11  C   UNL     1      45.192   4.548   8.731  0.00  0.00    +0.000 C 
BRANCH  11  12
ATOM     12  N   UNL     1      45.602   3.374   7.931  0.00  0.00    +0.000 NA
ATOM     13  C   UNL     1      46.811   3.646   7.142  0.00  0.00    +0.000 C 
ATOM     14  C   UNL     1      47.202   2.443   6.285  0.00  0.00    +0.000 C 
ATOM     15  C   UNL     1      47.391   1.196   7.137  0.00  0.00    +0.000 C 
ATOM     16  C   UNL     1      46.160   0.958   8.001  0.00  0.00    +0.000 C 
ATOM     17  C   UNL     1      45.803   2.208   8.810  0.00  0.00    +0.000 C 
ENDBRANCH  11  12
ENDBRANCH   8  11
ENDBRANCH   5   8
ENDBRANCH   1   2
BRANCH   1  20
ATOM     18  O   UNL     1      49.693   5.886  16.129  0.00  0.00    +0.000 OA
ATOM     19  C   UNL     1      48.799   6.648  15.778  0.00  0.00    +0.000 C 
ATOM     20  N   UNL     1      47.655   6.207  15.163  0.00  0.00    +0.000 N 
ATOM     21  H   UNL     1      47.116   6.872  14.615  0.00  0.00    +0.000 HD
BRANCH  19  22
ATOM     22  C   UNL     1      48.871   8.091  16.037  0.00  0.00    +0.000 A 
ATOM     23  C   UNL     1      49.397   8.948  15.082  0.00  0.00    +0.000 A 
ATOM     24  S   UNL     1      49.425  10.581  15.577  0.00  0.00    +0.000 S 
ATOM     25  C   UNL     1      48.692  10.203  17.066  0.00  0.00    +0.000 A 
ATOM     26  N   UNL     1      48.385  11.179  17.973  0.00  0.00    +0.000 NA
ATOM     27  C   UNL     1      47.811  10.737  19.048  0.00  0.00    +0.000 A 
ATOM     28  N   UNL     1      47.518   9.427  19.291  0.00  0.00    +0.000 N 
ATOM     29  C   UNL     1      47.827   8.412  18.424  0.00  0.00    +0.000 A 
ATOM     30  O   UNL     1      47.626   7.239  18.717  0.00  0.00    +0.000 OA
ATOM     31  C   UNL     1      48.466   8.845  17.192  0.00  0.00    +0.000 A 
ATOM     32  H   UNL     1      47.077   9.143  20.162  0.00  0.00    +0.000 HD
ENDBRANCH  19  22
ENDBRANCH   1  20
TORSDOF 7
ENDMDL
