MODEL 1
REMARK VINA RESULT:    -8.648      0.000      0.000
REMARK INTER + INTRA:         -11.804
REMARK INTER:                 -11.176
REMARK INTRA:                  -0.628
REMARK UNBOUND:                -0.628
REMARK  Name = 
REMARK  5 active torsions:
REMARK  status: ('A' for Active; 'I' for Inactive)
REMARK    1  A    between atoms: C_7  and  C_8
REMARK    2  A    between atoms: N_10  and  C_11
REMARK    3  A    between atoms: C_11  and  C_12
REMARK    4  A    between atoms: C_15  and  O_16
REMARK    5  A    between atoms: O_16  and  C_17
REMARK                            x       y       z     vdW  Elec       q    Type
REMARK                         _______ _______ _______ _____ _____    ______ ____
ROOT
ATOM      1  C   UNL     1      47.750   7.116  13.629  0.00  0.00    +0.000 C 
ATOM      2  O   UNL     1      48.432   7.442  12.656  0.00  0.00    +0.000 OA
ATOM      3  N   UNL     1      46.380   7.225  13.622  0.00  0.00    +0.000 N 
ATOM      4  H   UNL     1      45.838   6.828  14.386  0.00  0.00    +0.000 HD
ENDROOT
BRANCH   1  11
ATOM      5  N   UNL     1      48.043   2.775  18.751  0.00  0.00    +0.000 N 
ATOM      6  C   UNL     1      48.110   3.703  17.761  0.00  0.00    +0.000 A 
ATOM      7  N   UNL     1      49.003   4.656  17.817  0.00  0.00    +0.000 NA
ATOM      8  C   UNL     1      48.946   5.514  16.769  0.00  0.00    +0.000 A 
ATOM      9  N   UNL     1      49.782   6.579  16.628  0.00  0.00    +0.000 N 
ATOM     10  C   UNL     1      49.449   7.253  15.478  0.00  0.00    +0.000 A 
ATOM     11  C   UNL     1      48.373   6.615  14.860  0.00  0.00    +0.000 A 
ATOM     12  C   UNL     1      48.089   5.490  15.692  0.00  0.00    +0.000 A 
ATOM     13  C   UNL     1      47.141   4.405  15.640  0.00  0.00    +0.000 A 
ATOM     14  O   UNL     1      46.367   4.214  14.707  0.00  0.00    +0.000 OA
ATOM     15  N   UNL     1      47.200   3.574  16.742  0.00  0.00    +0.000 N 
ATOM     16  H   UNL     1      48.564   3.048  19.578  0.00  0.00    +0.000 HD
ATOM     17  H   UNL     1      47.134   2.388  18.964  0.00  0.00    +0.000 HD
ATOM     18  H   UNL     1      50.517   6.825  17.277  0.00  0.00    +0.000 HD
ATOM     19  H   UNL     1      46.575   2.786  16.726  0.00  0.00    +0.000 HD
ENDBRANCH   1  11
BRANCH   3  20
ATOM     20  C   UNL     1      45.664   7.683  12.457  0.00  0.00    +0.000 C 
BRANCH  20  21
ATOM     21  C   UNL     1      45.300   6.540  11.543  0.00  0.00    +0.000 A 
ATOM     22  C   UNL     1      44.197   5.728  11.857  0.00  0.00    +0.000 A 
ATOM     23  C   UNL     1      43.865   4.637  11.052  0.00  0.00    +0.000 A 
ATOM     24  C   UNL     1      44.572   4.383   9.873  0.00  0.00    +0.000 A 
ATOM     25  C   UNL     1      45.684   5.171   9.565  0.00  0.00    +0.000 A 
ATOM     26  C   UNL     1      46.050   6.235  10.401  0.00  0.00    +0.000 A 
BRANCH  24  27
ATOM     27  O   UNL     1      44.267   3.365   8.993  0.00  0.00    +0.000 OA
BRANCH  27  28
ATOM     28  C   UNL     1      45.275   2.789   8.255  0.00  0.00    +0.000 A 
ATOM     29  C   UNL     1      45.907   3.398   7.173  0.00  0.00    +0.000 A 
ATOM     30  C   UNL     1      46.856   2.692   6.440  0.00  0.00    +0.000 A 
ATOM     31  C   UNL     1      47.198   1.422   6.866  0.00  0.00    +0.000 A 
ATOM     32  N   UNL     1      46.667   0.827   7.956  0.00  0.00    +0.000 NA
ATOM     33  C   UNL     1      45.718   1.525   8.628  0.00  0.00    +0.000 A 
ENDBRANCH  27  28
ENDBRANCH  24  27
ENDBRANCH  20  21
ENDBRANCH   3  20
TORSDOF 5
ENDMDL
MODEL 2
REMARK VINA RESULT:    -8.264      3.038      3.958
REMARK INTER + INTRA:         -11.308
REMARK INTER:                 -10.272
REMARK INTRA:                  -1.037
REMARK UNBOUND:                -0.628
REMARK  Name = 
REMARK  5 active torsions:
REMARK  status: ('A' for Active; 'I' for Inactive)
REMARK    1  A    between atoms: C_7  and  C_8
REMARK    2  A    between atoms: N_10  and  C_11
REMARK    3  A    between atoms: C_11  and  C_12
REMARK    4  A    between atoms: C_15  and  O_16
REMARK    5  A    between atoms: O_16  and  C_17
REMARK                            x       y       z     vdW  Elec       q    Type
REMARK                         _______ _______ _______ _____ _____    ______ ____
ROOT
ATOM      1  C   UNL     1      45.777   8.179  12.345  0.00  0.00    +0.000 C 
ATOM      2  O   UNL     1      44.816   8.611  11.709  0.00  0.00    +0.000 OA
ATOM      3  N   UNL     1      45.698   7.021  13.080  0.00  0.00    +0.000 N 
ATOM      4  H   UNL     1      46.541   6.622  13.487  0.00  0.00    +0.000 HD
ENDROOT
BRANCH   1  11
ATOM      5  N   UNL     1      52.432   8.354  13.271  0.00  0.00    +0.000 N 
ATOM      6  C   UNL     1      51.097   8.453  13.036  0.00  0.00    +0.000 A 
ATOM      7  N   UNL     1      50.564   9.618  12.776  0.00  0.00    +0.000 NA
ATOM      8  C   UNL     1      49.225   9.567  12.573  0.00  0.00    +0.000 A 
ATOM      9  N   UNL     1      48.468  10.663  12.290  0.00  0.00    +0.000 N 
ATOM     10  C   UNL     1      47.157  10.274  12.163  0.00  0.00    +0.000 A 
ATOM     11  C   UNL     1      47.057   8.898  12.370  0.00  0.00    +0.000 A 
ATOM     12  C   UNL     1      48.398   8.467  12.603  0.00  0.00    +0.000 A 
ATOM     13  C   UNL     1      49.022   7.191  12.854  0.00  0.00    +0.000 A 
ATOM     14  O   UNL     1      48.426   6.119  12.837  0.00  0.00    +0.000 OA
ATOM     15  N   UNL     1      50.380   7.285  13.096  0.00  0.00    +0.000 N 
ATOM     16  H   UNL     1      52.865   9.255  13.448  0.00  0.00    +0.000 HD
ATOM     17  H   UNL     1      52.738   7.634  13.911  0.00  0.00    +0.000 HD
ATOM     18  H   UNL     1      48.828  11.604  12.200  0.00  0.00    +0.000 HD
ATOM     19  H   UNL     1      50.856   6.412  13.244  0.00  0.00    +0.000 HD
ENDBRANCH   1  11
BRANCH   3  20
ATOM     20  C   UNL     1      44.497   6.223  13.107  0.00  0.00    +0.000 C 
BRANCH  20  21
ATOM     21  C   UNL     1      44.512   5.157  12.040  0.00  0.00    +0.000 A 
ATOM     22  C   UNL     1      43.807   5.368  10.843  0.00  0.00    +0.000 A 
ATOM     23  C   UNL     1      43.768   4.381   9.857  0.00  0.00    +0.000 A 
ATOM     24  C   UNL     1      44.500   3.198  10.007  0.00  0.00    +0.000 A 
ATOM     25  C   UNL     1      45.185   2.971  11.203  0.00  0.00    +0.000 A 
ATOM     26  C   UNL     1      45.181   3.940  12.216  0.00  0.00    +0.000 A 
BRANCH  24  27
ATOM     27  O   UNL     1      44.564   2.203   9.054  0.00  0.00    +0.000 OA
BRANCH  27  28
ATOM     28  C   UNL     1      45.592   2.210   8.141  0.00  0.00    +0.000 A 
ATOM     29  C   UNL     1      45.910   3.290   7.319  0.00  0.00    +0.000 A 
ATOM     30  C   UNL     1      46.918   3.162   6.368  0.00  0.00    +0.000 A 
ATOM     31  C   UNL     1      47.630   1.977   6.325  0.00  0.00    +0.000 A 
ATOM     32  N   UNL     1      47.406   0.936   7.158  0.00  0.00    +0.000 NA
ATOM     33  C   UNL     1      46.393   1.078   8.048  0.00  0.00    +0.000 A 
ENDBRANCH  27  28
ENDBRANCH  24  27
ENDBRANCH  20  21
ENDBRANCH   3  20
TORSDOF 5
ENDMDL
MODEL 3
REMARK VINA RESULT:    -7.833      3.821      8.311
REMARK INTER + INTRA:         -10.751
REMARK INTER:                  -9.861
REMARK INTRA:                  -0.891
REMARK UNBOUND:                -0.628
REMARK  Name = 
REMARK  5 active torsions:
REMARK  status: ('A' for Active; 'I' for Inactive)
REMARK    1  A    between atoms: C_7  and  C_8
REMARK    2  A    between atoms: N_10  and  C_11
REMARK    3  A    between atoms: C_11  and  C_12
REMARK    4  A    between atoms: C_15  and  O_16
REMARK    5  A    between atoms: O_16  and  C_17
REMARK                            x       y       z     vdW  Elec       q    Type
REMARK                         _______ _______ _______ _____ _____    ______ ____
ROOT
ATOM      1  C   UNL     1      43.971   4.167  10.374  0.00  0.00    +0.000 C 
ATOM      2  O   UNL     1      42.890   3.924  10.911  0.00  0.00    +0.000 OA
ATOM      3  N   UNL     1      44.566   5.402  10.470  0.00  0.00    +0.000 N 
ATOM      4  H   UNL     1      45.515   5.534  10.128  0.00  0.00    +0.000 HD
ENDROOT
BRANCH   1  11
ATOM      5  N   UNL     1      48.384   2.394   5.625  0.00  0.00    +0.000 N 
ATOM      6  C   UNL     1      47.481   2.613   6.617  0.00  0.00    +0.000 A 
ATOM      7  N   UNL     1      46.826   1.609   7.138  0.00  0.00    +0.000 NA
ATOM      8  C   UNL     1      45.953   1.977   8.107  0.00  0.00    +0.000 A 
ATOM      9  N   UNL     1      45.168   1.093   8.782  0.00  0.00    +0.000 N 
ATOM     10  C   UNL     1      44.389   1.787   9.676  0.00  0.00    +0.000 A 
ATOM     11  C   UNL     1      44.670   3.150   9.579  0.00  0.00    +0.000 A 
ATOM     12  C   UNL     1      45.694   3.241   8.588  0.00  0.00    +0.000 A 
ATOM     13  C   UNL     1      46.460   4.322   8.019  0.00  0.00    +0.000 A 
ATOM     14  O   UNL     1      46.390   5.487   8.398  0.00  0.00    +0.000 OA
ATOM     15  N   UNL     1      47.310   3.918   7.007  0.00  0.00    +0.000 N 
ATOM     16  H   UNL     1      48.299   1.468   5.217  0.00  0.00    +0.000 HD
ATOM     17  H   UNL     1      48.501   3.122   4.934  0.00  0.00    +0.000 HD
ATOM     18  H   UNL     1      45.165   0.093   8.632  0.00  0.00    +0.000 HD
ATOM     19  H   UNL     1      47.884   4.639   6.607  0.00  0.00    +0.000 HD
ENDBRANCH   1  11
BRANCH   3  20
ATOM     20  C   UNL     1      43.978   6.467  11.246  0.00  0.00    +0.000 C 
BRANCH  20  21
ATOM     21  C   UNL     1      45.024   7.416  11.771  0.00  0.00    +0.000 A 
ATOM     22  C   UNL     1      46.217   6.901  12.309  0.00  0.00    +0.000 A 
ATOM     23  C   UNL     1      47.183   7.756  12.842  0.00  0.00    +0.000 A 
ATOM     24  C   UNL     1      47.020   9.143  12.774  0.00  0.00    +0.000 A 
ATOM     25  C   UNL     1      45.829   9.662  12.263  0.00  0.00    +0.000 A 
ATOM     26  C   UNL     1      44.834   8.802  11.775  0.00  0.00    +0.000 A 
BRANCH  24  27
ATOM     27  O   UNL     1      47.956  10.053  13.221  0.00  0.00    +0.000 OA
BRANCH  27  28
ATOM     28  C   UNL     1      49.210  10.060  12.658  0.00  0.00    +0.000 A 
ATOM     29  C   UNL     1      49.476  10.376  11.327  0.00  0.00    +0.000 A 
ATOM     30  C   UNL     1      50.773  10.269  10.836  0.00  0.00    +0.000 A 
ATOM     31  C   UNL     1      51.780   9.922  11.720  0.00  0.00    +0.000 A 
ATOM     32  N   UNL     1      51.576   9.686  13.035  0.00  0.00    +0.000 NA
ATOM     33  C   UNL     1      50.295   9.763  13.474  0.00  0.00    +0.000 A 
ENDBRANCH  27  28
ENDBRANCH  24  27
ENDBRANCH  20  21
ENDBRANCH   3  20
TORSDOF 5
ENDMDL
MODEL 4
REMARK VINA RESULT:    -7.692      3.287      7.851
REMARK INTER + INTRA:         -10.569
REMARK INTER:                  -9.774
REMARK INTRA:                  -0.794
REMARK UNBOUND:                -0.628
REMARK  Name = 
REMARK  5 active torsions:
REMARK  status: ('A' for Active; 'I' for Inactive)
REMARK    1  A    between atoms: C_7  and  C_8
REMARK    2  A    between atoms: N_10  and  C_11
REMARK    3  A    between atoms: C_11  and  C_12
REMARK    4  A    between atoms: C_15  and  O_16
REMARK    5  A    between atoms: O_16  and  C_17
REMARK                            x       y       z     vdW  Elec       q    Type
REMARK                         _______ _______ _______ _____ _____    ______ ____
ROOT
ATOM      1  C   UNL     1      46.565   7.778  13.081  0.00  0.00    +0.000 C 
ATOM      2  O   UNL     1      46.330   8.875  13.586  0.00  0.00    +0.000 OA
ATOM      3  N   UNL     1      47.822   7.223  13.108  0.00  0.00    +0.000 N 
ATOM      4  H   UNL     1      47.958   6.263  12.799  0.00  0.00    +0.000 HD
ENDROOT
BRANCH   1  11
ATOM      5  N   UNL     1      43.379   2.011  11.753  0.00  0.00    +0.000 N 
ATOM      6  C   UNL     1      43.919   3.243  11.948  0.00  0.00    +0.000 A 
ATOM      7  N   UNL     1      43.473   4.267  11.270  0.00  0.00    +0.000 NA
ATOM      8  C   UNL     1      44.111   5.427  11.560  0.00  0.00    +0.000 A 
ATOM      9  N   UNL     1      43.808   6.616  10.969  0.00  0.00    +0.000 N 
ATOM     10  C   UNL     1      44.647   7.583  11.467  0.00  0.00    +0.000 A 
ATOM     11  C   UNL     1      45.514   7.013  12.398  0.00  0.00    +0.000 A 
ATOM     12  C   UNL     1      45.132   5.639  12.459  0.00  0.00    +0.000 A 
ATOM     13  C   UNL     1      45.576   4.496  13.218  0.00  0.00    +0.000 A 
ATOM     14  O   UNL     1      46.422   4.547  14.104  0.00  0.00    +0.000 OA
ATOM     15  N   UNL     1      44.933   3.324  12.869  0.00  0.00    +0.000 N 
ATOM     16  H   UNL     1      42.814   1.961  10.911  0.00  0.00    +0.000 HD
ATOM     17  H   UNL     1      43.988   1.213  11.869  0.00  0.00    +0.000 HD
ATOM     18  H   UNL     1      43.085   6.746  10.273  0.00  0.00    +0.000 HD
ATOM     19  H   UNL     1      45.193   2.510  13.400  0.00  0.00    +0.000 HD
ENDBRANCH   1  11
BRANCH   3  20
ATOM     20  C   UNL     1      48.923   7.877  13.773  0.00  0.00    +0.000 C 
BRANCH  20  21
ATOM     21  C   UNL     1      49.403   7.086  14.963  0.00  0.00    +0.000 A 
ATOM     22  C   UNL     1      48.495   6.276  15.666  0.00  0.00    +0.000 A 
ATOM     23  C   UNL     1      48.902   5.568  16.798  0.00  0.00    +0.000 A 
ATOM     24  C   UNL     1      50.240   5.585  17.203  0.00  0.00    +0.000 A 
ATOM     25  C   UNL     1      51.145   6.404  16.525  0.00  0.00    +0.000 A 
ATOM     26  C   UNL     1      50.725   7.158  15.419  0.00  0.00    +0.000 A 
BRANCH  24  27
ATOM     27  O   UNL     1      50.733   4.864  18.271  0.00  0.00    +0.000 OA
BRANCH  27  28
ATOM     28  C   UNL     1      51.276   3.620  18.051  0.00  0.00    +0.000 A 
ATOM     29  C   UNL     1      52.572   3.250  18.406  0.00  0.00    +0.000 A 
ATOM     30  C   UNL     1      53.052   1.992  18.059  0.00  0.00    +0.000 A 
ATOM     31  C   UNL     1      52.187   1.112  17.433  0.00  0.00    +0.000 A 
ATOM     32  N   UNL     1      50.900   1.403  17.143  0.00  0.00    +0.000 NA
ATOM     33  C   UNL     1      50.474   2.651  17.460  0.00  0.00    +0.000 A 
ENDBRANCH  27  28
ENDBRANCH  24  27
ENDBRANCH  20  21
ENDBRANCH   3  20
TORSDOF 5
ENDMDL
MODEL 5
REMARK VINA RESULT:    -7.606      2.636      8.589
REMARK INTER + INTRA:         -10.458
REMARK INTER:                  -9.783
REMARK INTRA:                  -0.674
REMARK UNBOUND:                -0.628
REMARK  Name = 
REMARK  5 active torsions:
REMARK  status: ('A' for Active; 'I' for Inactive)
REMARK    1  A    between atoms: C_7  and  C_8
REMARK    2  A    between atoms: N_10  and  C_11
REMARK    3  A    between atoms: C_11  and  C_12
REMARK    4  A    between atoms: C_15  and  O_16
REMARK    5  A    between atoms: O_16  and  C_17
REMARK                            x       y       z     vdW  Elec       q    Type
REMARK                         _______ _______ _______ _____ _____    ______ ____
ROOT
ATOM      1  C   UNL     1      44.092   4.152  10.453  0.00  0.00    +0.000 C 
ATOM      2  O   UNL     1      43.019   3.929  11.014  0.00  0.00    +0.000 OA
ATOM      3  N   UNL     1      44.746   5.353  10.592  0.00  0.00    +0.000 N 
ATOM      4  H   UNL     1      45.688   5.461  10.225  0.00  0.00    +0.000 HD
ENDROOT
BRANCH   1  11
ATOM      5  N   UNL     1      48.179   2.452   5.396  0.00  0.00    +0.000 N 
ATOM      6  C   UNL     1      47.340   2.656   6.445  0.00  0.00    +0.000 A 
ATOM      7  N   UNL     1      46.692   1.649   6.968  0.00  0.00    +0.000 NA
ATOM      8  C   UNL     1      45.885   2.002   7.999  0.00  0.00    +0.000 A 
ATOM      9  N   UNL     1      45.118   1.112   8.687  0.00  0.00    +0.000 N 
ATOM     10  C   UNL     1      44.409   1.791   9.649  0.00  0.00    +0.000 A 
ATOM     11  C   UNL     1      44.719   3.149   9.584  0.00  0.00    +0.000 A 
ATOM     12  C   UNL     1      45.686   3.253   8.538  0.00  0.00    +0.000 A 
ATOM     13  C   UNL     1      46.445   4.336   7.964  0.00  0.00    +0.000 A 
ATOM     14  O   UNL     1      46.427   5.487   8.387  0.00  0.00    +0.000 OA
ATOM     15  N   UNL     1      47.225   3.949   6.891  0.00  0.00    +0.000 N 
ATOM     16  H   UNL     1      48.048   1.544   4.962  0.00  0.00    +0.000 HD
ATOM     17  H   UNL     1      48.275   3.202   4.725  0.00  0.00    +0.000 HD
ATOM     18  H   UNL     1      45.082   0.119   8.503  0.00  0.00    +0.000 HD
ATOM     19  H   UNL     1      47.793   4.671   6.483  0.00  0.00    +0.000 HD
ENDBRANCH   1  11
BRANCH   3  20
ATOM     20  C   UNL     1      44.231   6.400  11.441  0.00  0.00    +0.000 C 
BRANCH  20  21
ATOM     21  C   UNL     1      45.327   7.056  12.242  0.00  0.00    +0.000 A 
ATOM     22  C   UNL     1      46.368   6.268  12.763  0.00  0.00    +0.000 A 
ATOM     23  C   UNL     1      47.371   6.842  13.545  0.00  0.00    +0.000 A 
ATOM     24  C   UNL     1      47.407   8.225  13.753  0.00  0.00    +0.000 A 
ATOM     25  C   UNL     1      46.364   9.012  13.259  0.00  0.00    +0.000 A 
ATOM     26  C   UNL     1      45.327   8.428  12.518  0.00  0.00    +0.000 A 
BRANCH  24  27
ATOM     27  O   UNL     1      48.397   8.874  14.460  0.00  0.00    +0.000 OA
BRANCH  27  28
ATOM     28  C   UNL     1      49.157   8.166  15.360  0.00  0.00    +0.000 A 
ATOM     29  C   UNL     1      48.756   7.855  16.659  0.00  0.00    +0.000 A 
ATOM     30  C   UNL     1      49.638   7.207  17.518  0.00  0.00    +0.000 A 
ATOM     31  C   UNL     1      50.869   6.819  17.021  0.00  0.00    +0.000 A 
ATOM     32  N   UNL     1      51.264   7.030  15.746  0.00  0.00    +0.000 NA
ATOM     33  C   UNL     1      50.398   7.697  14.944  0.00  0.00    +0.000 A 
ENDBRANCH  27  28
ENDBRANCH  24  27
ENDBRANCH  20  21
ENDBRANCH   3  20
TORSDOF 5
ENDMDL
MODEL 6
REMARK VINA RESULT:    -7.059      4.938      6.911
REMARK INTER + INTRA:          -9.751
REMARK INTER:                  -9.089
REMARK INTRA:                  -0.662
REMARK UNBOUND:                -0.628
REMARK  Name = 
REMARK  5 active torsions:
REMARK  status: ('A' for Active; 'I' for Inactive)
REMARK    1  A    between atoms: C_7  and  C_8
REMARK    2  A    between atoms: N_10  and  C_11
REMARK    3  A    between atoms: C_11  and  C_12
REMARK    4  A    between atoms: C_15  and  O_16
REMARK    5  A    between atoms: O_16  and  C_17
REMARK                            x       y       z     vdW  Elec       q    Type
REMARK                         _______ _______ _______ _____ _____    ______ ____
ROOT
ATOM      1  C   UNL     1      47.878   6.817  13.804  0.00  0.00    +0.000 C 
ATOM      2  O   UNL     1      48.468   6.109  14.620  0.00  0.00    +0.000 OA
ATOM      3  N   UNL     1      48.408   8.004  13.358  0.00  0.00    +0.000 N 
ATOM      4  H   UNL     1      47.961   8.501  12.591  0.00  0.00    +0.000 HD
ENDROOT
BRANCH   1  11
ATOM      5  N   UNL     1      43.428   2.198  11.797  0.00  0.00    +0.000 N 
ATOM      6  C   UNL     1      44.222   3.228  12.191  0.00  0.00    +0.000 A 
ATOM      7  N   UNL     1      43.813   4.461  12.046  0.00  0.00    +0.000 NA
ATOM      8  C   UNL     1      44.711   5.382  12.472  0.00  0.00    +0.000 A 
ATOM      9  N   UNL     1      44.491   6.724  12.413  0.00  0.00    +0.000 N 
ATOM     10  C   UNL     1      45.598   7.375  12.901  0.00  0.00    +0.000 A 
ATOM     11  C   UNL     1      46.559   6.439  13.282  0.00  0.00    +0.000 A 
ATOM     12  C   UNL     1      45.955   5.171  13.023  0.00  0.00    +0.000 A 
ATOM     13  C   UNL     1      46.362   3.800  13.204  0.00  0.00    +0.000 A 
ATOM     14  O   UNL     1      47.407   3.459  13.747  0.00  0.00    +0.000 OA
ATOM     15  N   UNL     1      45.441   2.888  12.723  0.00  0.00    +0.000 N 
ATOM     16  H   UNL     1      42.661   2.500  11.205  0.00  0.00    +0.000 HD
ATOM     17  H   UNL     1      43.885   1.362  11.459  0.00  0.00    +0.000 HD
ATOM     18  H   UNL     1      43.648   7.155  12.058  0.00  0.00    +0.000 HD
ATOM     19  H   UNL     1      45.675   1.920  12.860  0.00  0.00    +0.000 HD
ENDBRANCH   1  11
BRANCH   3  20
ATOM     20  C   UNL     1      49.708   8.461  13.787  0.00  0.00    +0.000 C 
BRANCH  20  21
ATOM     21  C   UNL     1      50.747   8.274  12.711  0.00  0.00    +0.000 A 
ATOM     22  C   UNL     1      50.377   7.687  11.488  0.00  0.00    +0.000 A 
ATOM     23  C   UNL     1      51.327   7.462  10.492  0.00  0.00    +0.000 A 
ATOM     24  C   UNL     1      52.647   7.893  10.658  0.00  0.00    +0.000 A 
ATOM     25  C   UNL     1      53.029   8.456  11.878  0.00  0.00    +0.000 A 
ATOM     26  C   UNL     1      52.086   8.634  12.900  0.00  0.00    +0.000 A 
BRANCH  24  27
ATOM     27  O   UNL     1      53.628   7.764   9.697  0.00  0.00    +0.000 OA
BRANCH  27  28
ATOM     28  C   UNL     1      53.367   8.168   8.409  0.00  0.00    +0.000 A 
ATOM     29  C   UNL     1      53.104   9.485   8.033  0.00  0.00    +0.000 A 
ATOM     30  C   UNL     1      52.766   9.773   6.715  0.00  0.00    +0.000 A 
ATOM     31  C   UNL     1      52.779   8.740   5.795  0.00  0.00    +0.000 A 
ATOM     32  N   UNL     1      53.106   7.465   6.103  0.00  0.00    +0.000 NA
ATOM     33  C   UNL     1      53.394   7.209   7.404  0.00  0.00    +0.000 A 
ENDBRANCH  27  28
ENDBRANCH  24  27
ENDBRANCH  20  21
ENDBRANCH   3  20
TORSDOF 5
ENDMDL
MODEL 7
REMARK VINA RESULT:    -6.628      3.555      8.548
REMARK INTER + INTRA:          -9.194
REMARK INTER:                  -8.061
REMARK INTRA:                  -1.133
REMARK UNBOUND:                -0.628
REMARK  Name = 
REMARK  5 active torsions:
REMARK  status: ('A' for Active; 'I' for Inactive)
REMARK    1  A    between atoms: C_7  and  C_8
REMARK    2  A    between atoms: N_10  and  C_11
REMARK    3  A    between atoms: C_11  and  C_12
REMARK    4  A    between atoms: C_15  and  O_16
REMARK    5  A    between atoms: O_16  and  C_17
REMARK                            x       y       z     vdW  Elec       q    Type
REMARK                         _______ _______ _______ _____ _____    ______ ____
ROOT
ATOM      1  C   UNL     1      46.369   8.260  12.560  0.00  0.00    +0.000 C 
ATOM      2  O   UNL     1      46.168   9.458  12.758  0.00  0.00    +0.000 OA
ATOM      3  N   UNL     1      47.625   7.710  12.659  0.00  0.00    +0.000 N 
ATOM      4  H   UNL     1      47.739   6.700  12.619  0.00  0.00    +0.000 HD
ENDROOT
BRANCH   1  11
ATOM      5  N   UNL     1      43.533   2.169  12.395  0.00  0.00    +0.000 N 
ATOM      6  C   UNL     1      43.984   3.451  12.376  0.00  0.00    +0.000 A 
ATOM      7  N   UNL     1      43.310   4.371  11.737  0.00  0.00    +0.000 NA
ATOM      8  C   UNL     1      43.882   5.598  11.793  0.00  0.00    +0.000 A 
ATOM      9  N   UNL     1      43.350   6.700  11.196  0.00  0.00    +0.000 N 
ATOM     10  C   UNL     1      44.180   7.771  11.425  0.00  0.00    +0.000 A 
ATOM     11  C   UNL     1      45.275   7.357  12.184  0.00  0.00    +0.000 A 
ATOM     12  C   UNL     1      45.045   5.970  12.428  0.00  0.00    +0.000 A 
ATOM     13  C   UNL     1      45.746   4.940  13.156  0.00  0.00    +0.000 A 
ATOM     14  O   UNL     1      46.752   5.138  13.828  0.00  0.00    +0.000 OA
ATOM     15  N   UNL     1      45.157   3.695  13.044  0.00  0.00    +0.000 N 
ATOM     16  H   UNL     1      42.810   1.998  11.704  0.00  0.00    +0.000 HD
ATOM     17  H   UNL     1      44.226   1.434  12.435  0.00  0.00    +0.000 HD
ATOM     18  H   UNL     1      42.487   6.710  10.668  0.00  0.00    +0.000 HD
ATOM     19  H   UNL     1      45.599   2.956  13.564  0.00  0.00    +0.000 HD
ENDBRANCH   1  11
BRANCH   3  20
ATOM     20  C   UNL     1      48.768   8.501  13.047  0.00  0.00    +0.000 C 
BRANCH  20  21
ATOM     21  C   UNL     1      49.053   8.382  14.522  0.00  0.00    +0.000 A 
ATOM     22  C   UNL     1      49.871   7.336  14.986  0.00  0.00    +0.000 A 
ATOM     23  C   UNL     1      50.114   7.176  16.351  0.00  0.00    +0.000 A 
ATOM     24  C   UNL     1      49.620   8.102  17.274  0.00  0.00    +0.000 A 
ATOM     25  C   UNL     1      48.788   9.131  16.825  0.00  0.00    +0.000 A 
ATOM     26  C   UNL     1      48.499   9.261  15.459  0.00  0.00    +0.000 A 
BRANCH  24  27
ATOM     27  O   UNL     1      49.869   8.049  18.630  0.00  0.00    +0.000 OA
BRANCH  27  28
ATOM     28  C   UNL     1      49.294   7.051  19.381  0.00  0.00    +0.000 A 
ATOM     29  C   UNL     1      47.932   6.960  19.664  0.00  0.00    +0.000 A 
ATOM     30  C   UNL     1      47.467   5.955  20.506  0.00  0.00    +0.000 A 
ATOM     31  C   UNL     1      48.375   5.024  20.977  0.00  0.00    +0.000 A 
ATOM     32  N   UNL     1      49.689   5.031  20.663  0.00  0.00    +0.000 NA
ATOM     33  C   UNL     1      50.118   6.044  19.870  0.00  0.00    +0.000 A 
ENDBRANCH  27  28
ENDBRANCH  24  27
ENDBRANCH  20  21
ENDBRANCH   3  20
TORSDOF 5
ENDMDL
MODEL 8
REMARK VINA RESULT:    -6.294      4.494      7.166
REMARK INTER + INTRA:          -8.762
REMARK INTER:                  -7.942
REMARK INTRA:                  -0.820
REMARK UNBOUND:                -0.628
REMARK  Name = 
REMARK  5 active torsions:
REMARK  status: ('A' for Active; 'I' for Inactive)
REMARK    1  A    between atoms: C_7  and  C_8
REMARK    2  A    between atoms: N_10  and  C_11
REMARK    3  A    between atoms: C_11  and  C_12
REMARK    4  A    between atoms: C_15  and  O_16
REMARK    5  A    between atoms: O_16  and  C_17
REMARK                            x       y       z     vdW  Elec       q    Type
REMARK                         _______ _______ _______ _____ _____    ______ ____
ROOT
ATOM      1  C   UNL     1      47.954   6.266  14.346  0.00  0.00    +0.000 C 
ATOM      2  O   UNL     1      48.871   5.836  15.045  0.00  0.00    +0.000 OA
ATOM      3  N   UNL     1      47.844   7.600  14.035  0.00  0.00    +0.000 N 
ATOM      4  H   UNL     1      47.155   7.906  13.352  0.00  0.00    +0.000 HD
ENDROOT
BRANCH   1  11
ATOM      5  N   UNL     1      41.934   5.224  11.543  0.00  0.00    +0.000 N 
ATOM      6  C   UNL     1      43.175   5.295  12.093  0.00  0.00    +0.000 A 
ATOM      7  N   UNL     1      43.811   4.199  12.414  0.00  0.00    +0.000 NA
ATOM      8  C   UNL     1      45.031   4.422  12.961  0.00  0.00    +0.000 A 
ATOM      9  N   UNL     1      45.861   3.423  13.369  0.00  0.00    +0.000 N 
ATOM     10  C   UNL     1      47.002   3.983  13.892  0.00  0.00    +0.000 A 
ATOM     11  C   UNL     1      46.911   5.373  13.826  0.00  0.00    +0.000 A 
ATOM     12  C   UNL     1      45.652   5.626  13.201  0.00  0.00    +0.000 A 
ATOM     13  C   UNL     1      44.941   6.815  12.800  0.00  0.00    +0.000 A 
ATOM     14  O   UNL     1      45.399   7.950  12.883  0.00  0.00    +0.000 OA
ATOM     15  N   UNL     1      43.686   6.554  12.284  0.00  0.00    +0.000 N 
ATOM     16  H   UNL     1      41.515   4.305  11.642  0.00  0.00    +0.000 HD
ATOM     17  H   UNL     1      41.292   5.977  11.747  0.00  0.00    +0.000 HD
ATOM     18  H   UNL     1      45.654   2.436  13.299  0.00  0.00    +0.000 HD
ATOM     19  H   UNL     1      43.172   7.356  11.964  0.00  0.00    +0.000 HD
ENDBRANCH   1  11
BRANCH   3  20
ATOM     20  C   UNL     1      48.827   8.562  14.473  0.00  0.00    +0.000 C 
BRANCH  20  21
ATOM     21  C   UNL     1      49.989   8.646  13.516  0.00  0.00    +0.000 A 
ATOM     22  C   UNL     1      51.292   8.412  13.989  0.00  0.00    +0.000 A 
ATOM     23  C   UNL     1      52.389   8.527  13.135  0.00  0.00    +0.000 A 
ATOM     24  C   UNL     1      52.206   8.792  11.774  0.00  0.00    +0.000 A 
ATOM     25  C   UNL     1      50.918   9.049  11.300  0.00  0.00    +0.000 A 
ATOM     26  C   UNL     1      49.819   8.986  12.169  0.00  0.00    +0.000 A 
BRANCH  24  27
ATOM     27  O   UNL     1      53.233   8.859  10.855  0.00  0.00    +0.000 OA
BRANCH  27  28
ATOM     28  C   UNL     1      53.807   7.694  10.402  0.00  0.00    +0.000 A 
ATOM     29  C   UNL     1      53.189   6.795   9.535  0.00  0.00    +0.000 A 
ATOM     30  C   UNL     1      53.826   5.603   9.206  0.00  0.00    +0.000 A 
ATOM     31  C   UNL     1      55.100   5.385   9.698  0.00  0.00    +0.000 A 
ATOM     32  N   UNL     1      55.766   6.267  10.476  0.00  0.00    +0.000 NA
ATOM     33  C   UNL     1      55.104   7.403  10.809  0.00  0.00    +0.000 A 
ENDBRANCH  27  28
ENDBRANCH  24  27
ENDBRANCH  20  21
ENDBRANCH   3  20
TORSDOF 5
ENDMDL
