MODEL 1
REMARK VINA RESULT:    -7.812      0.000      0.000
REMARK INTER + INTRA:         -13.008
REMARK INTER:                 -11.922
REMARK INTRA:                  -1.086
REMARK UNBOUND:                -1.086
REMARK  Name = 
REMARK  13 active torsions:
REMARK  status: ('A' for Active; 'I' for Inactive)
REMARK    1  A    between atoms: C_1  and  C_2
REMARK    2  A    between atoms: C_2  and  N_3
REMARK    3  A    between atoms: N_3  and  C_4
REMARK    4  A    between atoms: C_4  and  C_5
REMARK    5  A    between atoms: C_6  and  C_8
REMARK    6  A    between atoms: C_8  and  O_9
REMARK    7  A    between atoms: O_9  and  C_10
REMARK    8  A    between atoms: C_13  and  C_14
REMARK    9  A    between atoms: C_14  and  C_15
REMARK   10  A    between atoms: C_14  and  C_16
REMARK   11  A    between atoms: C_14  and  C_17
REMARK   12  A    between atoms: C_17  and  N_18
REMARK   13  A    between atoms: C_22  and  C_23
REMARK                            x       y       z     vdW  Elec       q    Type
REMARK                         _______ _______ _______ _____ _____    ______ ____
ROOT
ATOM      1  C   UNL     1      43.670   5.956  11.655  0.00  0.00    +0.000 C 
ATOM      2  C   UNL     1      42.649   5.160  12.502  0.00  0.00    +0.000 C 
ATOM      3  C   UNL     1      43.153   7.414  11.532  0.00  0.00    +0.000 C 
ENDROOT
BRANCH   1   7
ATOM      4  C   UNL     1      47.599   6.084  13.603  0.00  0.00    +0.000 A 
ATOM      5  C   UNL     1      46.822   4.938  13.679  0.00  0.00    +0.000 A 
ATOM      6  C   UNL     1      45.570   4.891  13.052  0.00  0.00    +0.000 A 
ATOM      7  C   UNL     1      45.050   5.990  12.349  0.00  0.00    +0.000 A 
ATOM      8  C   UNL     1      45.850   7.142  12.289  0.00  0.00    +0.000 A 
ATOM      9  C   UNL     1      47.107   7.188  12.909  0.00  0.00    +0.000 A 
BRANCH   4  10
ATOM     10  O   UNL     1      48.808   6.253  14.216  0.00  0.00    +0.000 OA
BRANCH  10  11
ATOM     11  C   UNL     1      48.778   6.725  15.560  0.00  0.00    +0.000 C 
BRANCH  11  13
ATOM     12  N   UNL     1      49.272   5.116  17.450  0.00  0.00    +0.000 N 
ATOM     13  C   UNL     1      49.777   5.958  16.447  0.00  0.00    +0.000 C 
ATOM     14  O   UNL     1      50.990   6.117  16.277  0.00  0.00    +0.000 OA
BRANCH  12  16
ATOM     15  C   UNL     1      50.560   2.959  17.489  0.00  0.00    +0.000 C 
ATOM     16  C   UNL     1      50.241   4.283  18.176  0.00  0.00    +0.000 C 
ENDBRANCH  12  16
BRANCH  12  17
ATOM     17  C   UNL     1      47.825   4.948  17.625  0.00  0.00    +0.000 C 
ATOM     18  C   UNL     1      47.139   3.694  17.113  0.00  0.00    +0.000 C 
ENDBRANCH  12  17
ENDBRANCH  11  13
ENDBRANCH  10  11
ENDBRANCH   4  10
ENDBRANCH   1   7
BRANCH   1  19
ATOM     19  C   UNL     1      43.677   5.366  10.206  0.00  0.00    +0.000 C 
BRANCH  19  20
ATOM     20  N   UNL     1      43.925   3.916  10.176  0.00  0.00    +0.000 N 
ATOM     21  C   UNL     1      44.874   3.515   9.229  0.00  0.00    +0.000 A 
ATOM     22  C   UNL     1      45.222   2.168   9.156  0.00  0.00    +0.000 A 
ATOM     23  C   UNL     1      46.158   1.752   8.207  0.00  0.00    +0.000 A 
ATOM     24  C   UNL     1      46.736   2.687   7.344  0.00  0.00    +0.000 A 
ATOM     25  C   UNL     1      46.352   4.009   7.516  0.00  0.00    +0.000 A 
ATOM     26  N   UNL     1      45.451   4.433   8.428  0.00  0.00    +0.000 NA
ATOM     27  H   UNL     1      43.082   3.363  10.057  0.00  0.00    +0.000 HD
BRANCH  24  28
ATOM     28  C   UNL     1      47.699   2.246   6.316  0.00  0.00    +0.000 C 
ATOM     29  N   UNL     1      47.866   3.010   5.191  0.00  0.00    +0.000 N 
ATOM     30  O   UNL     1      48.336   1.204   6.449  0.00  0.00    +0.000 OA
ATOM     31  H   UNL     1      47.397   3.878   4.980  0.00  0.00    +0.000 HD
ATOM     32  H   UNL     1      48.533   2.668   4.510  0.00  0.00    +0.000 HD
ENDBRANCH  24  28
ENDBRANCH  19  20
ENDBRANCH   1  19
TORSDOF 9
ENDMDL
MODEL 2
REMARK VINA RESULT:    -7.597      1.267      1.746
REMARK INTER + INTRA:         -12.680
REMARK INTER:                 -11.382
REMARK INTRA:                  -1.298
REMARK UNBOUND:                -1.086
REMARK  Name = 
REMARK  13 active torsions:
REMARK  status: ('A' for Active; 'I' for Inactive)
REMARK    1  A    between atoms: C_1  and  C_2
REMARK    2  A    between atoms: C_2  and  N_3
REMARK    3  A    between atoms: N_3  and  C_4
REMARK    4  A    between atoms: C_4  and  C_5
REMARK    5  A    between atoms: C_6  and  C_8
REMARK    6  A    between atoms: C_8  and  O_9
REMARK    7  A    between atoms: O_9  and  C_10
REMARK    8  A    between atoms: C_13  and  C_14
REMARK    9  A    between atoms: C_14  and  C_15
REMARK   10  A    between atoms: C_14  and  C_16
REMARK   11  A    between atoms: C_14  and  C_17
REMARK   12  A    between atoms: C_17  and  N_18
REMARK   13  A    between atoms: C_22  and  C_23
REMARK                            x       y       z     vdW  Elec       q    Type
REMARK                         _______ _______ _______ _____ _____    ______ ____
ROOT
ATOM      1  C   UNL     1      43.649   4.864  11.940  0.00  0.00    +0.000 C 
ATOM      2  C   UNL     1      43.441   3.574  12.769  0.00  0.00    +0.000 C 
ATOM      3  C   UNL     1      42.424   5.786  12.178  0.00  0.00    +0.000 C 
ENDROOT
BRANCH   1   7
ATOM      4  C   UNL     1      47.261   6.964  13.281  0.00  0.00    +0.000 A 
ATOM      5  C   UNL     1      46.135   7.684  12.910  0.00  0.00    +0.000 A 
ATOM      6  C   UNL     1      44.978   7.016  12.488  0.00  0.00    +0.000 A 
ATOM      7  C   UNL     1      44.916   5.615  12.406  0.00  0.00    +0.000 A 
ATOM      8  C   UNL     1      46.068   4.906  12.783  0.00  0.00    +0.000 A 
ATOM      9  C   UNL     1      47.225   5.572  13.213  0.00  0.00    +0.000 A 
BRANCH   4  10
ATOM     10  O   UNL     1      48.453   7.513  13.660  0.00  0.00    +0.000 OA
BRANCH  10  11
ATOM     11  C   UNL     1      49.146   6.858  14.719  0.00  0.00    +0.000 C 
BRANCH  11  13
ATOM     12  N   UNL     1      48.480   6.526  17.138  0.00  0.00    +0.000 N 
ATOM     13  C   UNL     1      48.739   7.425  16.091  0.00  0.00    +0.000 C 
ATOM     14  O   UNL     1      48.624   8.647  16.237  0.00  0.00    +0.000 OA
BRANCH  12  16
ATOM     15  C   UNL     1      48.336   6.087  19.607  0.00  0.00    +0.000 C 
ATOM     16  C   UNL     1      48.244   7.099  18.470  0.00  0.00    +0.000 C 
ENDBRANCH  12  16
BRANCH  12  17
ATOM     17  C   UNL     1      48.627   5.080  16.934  0.00  0.00    +0.000 C 
ATOM     18  C   UNL     1      47.414   4.234  16.593  0.00  0.00    +0.000 C 
ENDBRANCH  12  17
ENDBRANCH  11  13
ENDBRANCH  10  11
ENDBRANCH   4  10
ENDBRANCH   1   7
BRANCH   1  19
ATOM     19  C   UNL     1      43.630   4.485  10.422  0.00  0.00    +0.000 C 
BRANCH  19  20
ATOM     20  N   UNL     1      44.000   3.083  10.174  0.00  0.00    +0.000 N 
ATOM     21  C   UNL     1      44.946   2.910   9.157  0.00  0.00    +0.000 A 
ATOM     22  C   UNL     1      45.405   1.625   8.879  0.00  0.00    +0.000 A 
ATOM     23  C   UNL     1      46.338   1.436   7.857  0.00  0.00    +0.000 A 
ATOM     24  C   UNL     1      46.803   2.535   7.128  0.00  0.00    +0.000 A 
ATOM     25  C   UNL     1      46.312   3.778   7.501  0.00  0.00    +0.000 A 
ATOM     26  N   UNL     1      45.412   3.982   8.487  0.00  0.00    +0.000 NA
ATOM     27  H   UNL     1      43.204   2.479   9.995  0.00  0.00    +0.000 HD
BRANCH  24  28
ATOM     28  C   UNL     1      47.762   2.335   6.024  0.00  0.00    +0.000 C 
ATOM     29  N   UNL     1      47.713   3.174   4.942  0.00  0.00    +0.000 N 
ATOM     30  O   UNL     1      48.587   1.426   6.057  0.00  0.00    +0.000 OA
ATOM     31  H   UNL     1      47.080   3.949   4.811  0.00  0.00    +0.000 HD
ATOM     32  H   UNL     1      48.386   2.999   4.206  0.00  0.00    +0.000 HD
ENDBRANCH  24  28
ENDBRANCH  19  20
ENDBRANCH   1  19
TORSDOF 9
ENDMDL
MODEL 3
REMARK VINA RESULT:    -7.571      1.489      2.093
REMARK INTER + INTRA:         -12.640
REMARK INTER:                 -11.362
REMARK INTRA:                  -1.278
REMARK UNBOUND:                -1.086
REMARK  Name = 
REMARK  13 active torsions:
REMARK  status: ('A' for Active; 'I' for Inactive)
REMARK    1  A    between atoms: C_1  and  C_2
REMARK    2  A    between atoms: C_2  and  N_3
REMARK    3  A    between atoms: N_3  and  C_4
REMARK    4  A    between atoms: C_4  and  C_5
REMARK    5  A    between atoms: C_6  and  C_8
REMARK    6  A    between atoms: C_8  and  O_9
REMARK    7  A    between atoms: O_9  and  C_10
REMARK    8  A    between atoms: C_13  and  C_14
REMARK    9  A    between atoms: C_14  and  C_15
REMARK   10  A    between atoms: C_14  and  C_16
REMARK   11  A    between atoms: C_14  and  C_17
REMARK   12  A    between atoms: C_17  and  N_18
REMARK   13  A    between atoms: C_22  and  C_23
REMARK                            x       y       z     vdW  Elec       q    Type
REMARK                         _______ _______ _______ _____ _____    ______ ____
ROOT
ATOM      1  C   UNL     1      43.871   4.574  12.248  0.00  0.00    +0.000 C 
ATOM      2  C   UNL     1      44.071   3.085  12.616  0.00  0.00    +0.000 C 
ATOM      3  C   UNL     1      42.672   5.112  13.074  0.00  0.00    +0.000 C 
ENDROOT
BRANCH   1   7
ATOM      4  C   UNL     1      47.407   6.957  13.282  0.00  0.00    +0.000 A 
ATOM      5  C   UNL     1      47.484   5.572  13.260  0.00  0.00    +0.000 A 
ATOM      6  C   UNL     1      46.358   4.808  12.923  0.00  0.00    +0.000 A 
ATOM      7  C   UNL     1      45.122   5.402  12.618  0.00  0.00    +0.000 A 
ATOM      8  C   UNL     1      45.065   6.805  12.651  0.00  0.00    +0.000 A 
ATOM      9  C   UNL     1      46.193   7.571  12.980  0.00  0.00    +0.000 A 
BRANCH   4  10
ATOM     10  O   UNL     1      48.427   7.792  13.642  0.00  0.00    +0.000 OA
BRANCH  10  11
ATOM     11  C   UNL     1      49.375   7.273  14.570  0.00  0.00    +0.000 C 
BRANCH  11  13
ATOM     12  N   UNL     1      48.960   6.932  17.044  0.00  0.00    +0.000 N 
ATOM     13  C   UNL     1      49.142   7.836  15.984  0.00  0.00    +0.000 C 
ATOM     14  O   UNL     1      49.092   9.059  16.153  0.00  0.00    +0.000 OA
BRANCH  12  16
ATOM     15  C   UNL     1      47.474   7.717  18.910  0.00  0.00    +0.000 C 
ATOM     16  C   UNL     1      48.893   7.494  18.399  0.00  0.00    +0.000 C 
ENDBRANCH  12  16
BRANCH  12  17
ATOM     17  C   UNL     1      49.027   5.485  16.809  0.00  0.00    +0.000 C 
ATOM     18  C   UNL     1      47.757   4.653  16.834  0.00  0.00    +0.000 C 
ENDBRANCH  12  17
ENDBRANCH  11  13
ENDBRANCH  10  11
ENDBRANCH   4  10
ENDBRANCH   1   7
BRANCH   1  19
ATOM     19  C   UNL     1      43.447   4.660  10.745  0.00  0.00    +0.000 C 
BRANCH  19  20
ATOM     20  N   UNL     1      44.488   5.242   9.885  0.00  0.00    +0.000 N 
ATOM     21  C   UNL     1      45.175   4.308   9.100  0.00  0.00    +0.000 A 
ATOM     22  C   UNL     1      46.145   4.762   8.210  0.00  0.00    +0.000 A 
ATOM     23  C   UNL     1      46.847   3.840   7.431  0.00  0.00    +0.000 A 
ATOM     24  C   UNL     1      46.568   2.475   7.551  0.00  0.00    +0.000 A 
ATOM     25  C   UNL     1      45.563   2.123   8.439  0.00  0.00    +0.000 A 
ATOM     26  N   UNL     1      44.871   2.999   9.199  0.00  0.00    +0.000 NA
ATOM     27  H   UNL     1      45.161   5.811  10.390  0.00  0.00    +0.000 HD
BRANCH  24  28
ATOM     28  C   UNL     1      47.334   1.494   6.756  0.00  0.00    +0.000 C 
ATOM     29  N   UNL     1      48.326   1.943   5.925  0.00  0.00    +0.000 N 
ATOM     30  O   UNL     1      47.084   0.293   6.819  0.00  0.00    +0.000 OA
ATOM     31  H   UNL     1      48.613   2.902   5.795  0.00  0.00    +0.000 HD
ATOM     32  H   UNL     1      48.823   1.237   5.396  0.00  0.00    +0.000 HD
ENDBRANCH  24  28
ENDBRANCH  19  20
ENDBRANCH   1  19
TORSDOF 9
ENDMDL
MODEL 4
REMARK VINA RESULT:    -7.155      2.656      8.784
REMARK INTER + INTRA:         -12.005
REMARK INTER:                 -10.544
REMARK INTRA:                  -1.461
REMARK UNBOUND:                -1.086
REMARK  Name = 
REMARK  13 active torsions:
REMARK  status: ('A' for Active; 'I' for Inactive)
REMARK    1  A    between atoms: C_1  and  C_2
REMARK    2  A    between atoms: C_2  and  N_3
REMARK    3  A    between atoms: N_3  and  C_4
REMARK    4  A    between atoms: C_4  and  C_5
REMARK    5  A    between atoms: C_6  and  C_8
REMARK    6  A    between atoms: C_8  and  O_9
REMARK    7  A    between atoms: O_9  and  C_10
REMARK    8  A    between atoms: C_13  and  C_14
REMARK    9  A    between atoms: C_14  and  C_15
REMARK   10  A    between atoms: C_14  and  C_16
REMARK   11  A    between atoms: C_14  and  C_17
REMARK   12  A    between atoms: C_17  and  N_18
REMARK   13  A    between atoms: C_22  and  C_23
REMARK                            x       y       z     vdW  Elec       q    Type
REMARK                         _______ _______ _______ _____ _____    ______ ____
ROOT
ATOM      1  C   UNL     1      48.541   7.735  12.790  0.00  0.00    +0.000 C 
ATOM      2  C   UNL     1      49.305   7.402  11.486  0.00  0.00    +0.000 C 
ATOM      3  C   UNL     1      48.216   9.252  12.778  0.00  0.00    +0.000 C 
ENDROOT
BRANCH   1   7
ATOM      4  C   UNL     1      44.734   5.561  12.978  0.00  0.00    +0.000 A 
ATOM      5  C   UNL     1      45.917   4.923  13.319  0.00  0.00    +0.000 A 
ATOM      6  C   UNL     1      47.134   5.616  13.267  0.00  0.00    +0.000 A 
ATOM      7  C   UNL     1      47.207   6.957  12.855  0.00  0.00    +0.000 A 
ATOM      8  C   UNL     1      45.999   7.583  12.510  0.00  0.00    +0.000 A 
ATOM      9  C   UNL     1      44.779   6.892  12.569  0.00  0.00    +0.000 A 
BRANCH   4  10
ATOM     10  O   UNL     1      43.504   4.967  12.947  0.00  0.00    +0.000 OA
BRANCH  10  11
ATOM     11  C   UNL     1      42.944   4.733  11.657  0.00  0.00    +0.000 C 
BRANCH  11  13
ATOM     12  N   UNL     1      44.113   3.343   9.894  0.00  0.00    +0.000 N 
ATOM     13  C   UNL     1      43.385   3.369  11.095  0.00  0.00    +0.000 C 
ATOM     14  O   UNL     1      43.071   2.333  11.690  0.00  0.00    +0.000 OA
BRANCH  12  16
ATOM     15  C   UNL     1      45.743   2.144   8.406  0.00  0.00    +0.000 C 
ATOM     16  C   UNL     1      44.649   2.045   9.464  0.00  0.00    +0.000 C 
ENDBRANCH  12  16
BRANCH  12  17
ATOM     17  C   UNL     1      44.472   4.592   9.212  0.00  0.00    +0.000 C 
ATOM     18  C   UNL     1      45.796   5.269   9.516  0.00  0.00    +0.000 C 
ENDBRANCH  12  17
ENDBRANCH  11  13
ENDBRANCH  10  11
ENDBRANCH   4  10
ENDBRANCH   1   7
BRANCH   1  19
ATOM     19  C   UNL     1      49.502   7.497  14.001  0.00  0.00    +0.000 C 
BRANCH  19  20
ATOM     20  N   UNL     1      48.997   8.072  15.258  0.00  0.00    +0.000 N 
ATOM     21  C   UNL     1      49.051   7.201  16.352  0.00  0.00    +0.000 A 
ATOM     22  C   UNL     1      48.647   7.666  17.601  0.00  0.00    +0.000 A 
ATOM     23  C   UNL     1      48.682   6.802  18.698  0.00  0.00    +0.000 A 
ATOM     24  C   UNL     1      49.124   5.486  18.533  0.00  0.00    +0.000 A 
ATOM     25  C   UNL     1      49.537   5.126  17.259  0.00  0.00    +0.000 A 
ATOM     26  N   UNL     1      49.512   5.946  16.185  0.00  0.00    +0.000 NA
ATOM     27  H   UNL     1      48.059   8.454  15.182  0.00  0.00    +0.000 HD
BRANCH  24  28
ATOM     28  C   UNL     1      49.128   4.560  19.683  0.00  0.00    +0.000 C 
ATOM     29  N   UNL     1      48.354   3.432  19.629  0.00  0.00    +0.000 N 
ATOM     30  O   UNL     1      49.801   4.795  20.683  0.00  0.00    +0.000 OA
ATOM     31  H   UNL     1      47.765   3.143  18.862  0.00  0.00    +0.000 HD
ATOM     32  H   UNL     1      48.384   2.826  20.441  0.00  0.00    +0.000 HD
ENDBRANCH  24  28
ENDBRANCH  19  20
ENDBRANCH   1  19
TORSDOF 9
ENDMDL
MODEL 5
REMARK VINA RESULT:    -7.059      3.136      4.167
REMARK INTER + INTRA:         -11.859
REMARK INTER:                 -10.647
REMARK INTRA:                  -1.212
REMARK UNBOUND:                -1.086
REMARK  Name = 
REMARK  13 active torsions:
REMARK  status: ('A' for Active; 'I' for Inactive)
REMARK    1  A    between atoms: C_1  and  C_2
REMARK    2  A    between atoms: C_2  and  N_3
REMARK    3  A    between atoms: N_3  and  C_4
REMARK    4  A    between atoms: C_4  and  C_5
REMARK    5  A    between atoms: C_6  and  C_8
REMARK    6  A    between atoms: C_8  and  O_9
REMARK    7  A    between atoms: O_9  and  C_10
REMARK    8  A    between atoms: C_13  and  C_14
REMARK    9  A    between atoms: C_14  and  C_15
REMARK   10  A    between atoms: C_14  and  C_16
REMARK   11  A    between atoms: C_14  and  C_17
REMARK   12  A    between atoms: C_17  and  N_18
REMARK   13  A    between atoms: C_22  and  C_23
REMARK                            x       y       z     vdW  Elec       q    Type
REMARK                         _______ _______ _______ _____ _____    ______ ____
ROOT
ATOM      1  C   UNL     1      44.028   4.641  12.182  0.00  0.00    +0.000 C 
ATOM      2  C   UNL     1      44.042   3.324  12.994  0.00  0.00    +0.000 C 
ATOM      3  C   UNL     1      42.941   5.565  12.792  0.00  0.00    +0.000 C 
ENDROOT
BRANCH   1   7
ATOM      4  C   UNL     1      47.899   6.678  12.520  0.00  0.00    +0.000 A 
ATOM      5  C   UNL     1      46.989   7.070  11.550  0.00  0.00    +0.000 A 
ATOM      6  C   UNL     1      45.749   6.427  11.444  0.00  0.00    +0.000 A 
ATOM      7  C   UNL     1      45.390   5.363  12.288  0.00  0.00    +0.000 A 
ATOM      8  C   UNL     1      46.327   4.979  13.260  0.00  0.00    +0.000 A 
ATOM      9  C   UNL     1      47.566   5.627  13.373  0.00  0.00    +0.000 A 
BRANCH   4  10
ATOM     10  O   UNL     1      49.150   7.203  12.679  0.00  0.00    +0.000 OA
BRANCH  10  11
ATOM     11  C   UNL     1      49.607   8.077  11.651  0.00  0.00    +0.000 C 
BRANCH  11  13
ATOM     12  N   UNL     1      52.101   8.111  11.216  0.00  0.00    +0.000 N 
ATOM     13  C   UNL     1      51.018   8.613  11.957  0.00  0.00    +0.000 C 
ATOM     14  O   UNL     1      51.173   9.446  12.856  0.00  0.00    +0.000 OA
BRANCH  12  16
ATOM     15  C   UNL     1      54.457   7.831  12.041  0.00  0.00    +0.000 C 
ATOM     16  C   UNL     1      53.408   8.749  11.423  0.00  0.00    +0.000 C 
ENDBRANCH  12  16
BRANCH  12  17
ATOM     17  C   UNL     1      51.883   7.123  10.153  0.00  0.00    +0.000 C 
ATOM     18  C   UNL     1      52.530   7.316   8.793  0.00  0.00    +0.000 C 
ENDBRANCH  12  17
ENDBRANCH  11  13
ENDBRANCH  10  11
ENDBRANCH   4  10
ENDBRANCH   1   7
BRANCH   1  19
ATOM     19  C   UNL     1      43.566   4.318  10.722  0.00  0.00    +0.000 C 
BRANCH  19  20
ATOM     20  N   UNL     1      43.854   2.932  10.321  0.00  0.00    +0.000 N 
ATOM     21  C   UNL     1      44.799   2.815   9.295  0.00  0.00    +0.000 A 
ATOM     22  C   UNL     1      45.183   1.543   8.878  0.00  0.00    +0.000 A 
ATOM     23  C   UNL     1      46.115   1.412   7.847  0.00  0.00    +0.000 A 
ATOM     24  C   UNL     1      46.653   2.554   7.247  0.00  0.00    +0.000 A 
ATOM     25  C   UNL     1      46.235   3.776   7.753  0.00  0.00    +0.000 A 
ATOM     26  N   UNL     1      45.337   3.924   8.751  0.00  0.00    +0.000 NA
ATOM     27  H   UNL     1      43.025   2.402  10.072  0.00  0.00    +0.000 HD
BRANCH  24  28
ATOM     28  C   UNL     1      47.611   2.419   6.132  0.00  0.00    +0.000 C 
ATOM     29  N   UNL     1      47.479   3.237   5.041  0.00  0.00    +0.000 N 
ATOM     30  O   UNL     1      48.509   1.582   6.165  0.00  0.00    +0.000 OA
ATOM     31  H   UNL     1      46.782   3.955   4.909  0.00  0.00    +0.000 HD
ATOM     32  H   UNL     1      48.155   3.108   4.297  0.00  0.00    +0.000 HD
ENDBRANCH  24  28
ENDBRANCH  19  20
ENDBRANCH   1  19
TORSDOF 9
ENDMDL
MODEL 6
REMARK VINA RESULT:    -6.938      2.449      3.223
REMARK INTER + INTRA:         -11.675
REMARK INTER:                 -10.559
REMARK INTRA:                  -1.116
REMARK UNBOUND:                -1.086
REMARK  Name = 
REMARK  13 active torsions:
REMARK  status: ('A' for Active; 'I' for Inactive)
REMARK    1  A    between atoms: C_1  and  C_2
REMARK    2  A    between atoms: C_2  and  N_3
REMARK    3  A    between atoms: N_3  and  C_4
REMARK    4  A    between atoms: C_4  and  C_5
REMARK    5  A    between atoms: C_6  and  C_8
REMARK    6  A    between atoms: C_8  and  O_9
REMARK    7  A    between atoms: O_9  and  C_10
REMARK    8  A    between atoms: C_13  and  C_14
REMARK    9  A    between atoms: C_14  and  C_15
REMARK   10  A    between atoms: C_14  and  C_16
REMARK   11  A    between atoms: C_14  and  C_17
REMARK   12  A    between atoms: C_17  and  N_18
REMARK   13  A    between atoms: C_22  and  C_23
REMARK                            x       y       z     vdW  Elec       q    Type
REMARK                         _______ _______ _______ _____ _____    ______ ____
ROOT
ATOM      1  C   UNL     1      44.108   5.055  12.104  0.00  0.00    +0.000 C 
ATOM      2  C   UNL     1      44.674   3.790  12.792  0.00  0.00    +0.000 C 
ATOM      3  C   UNL     1      42.869   5.524  12.913  0.00  0.00    +0.000 C 
ENDROOT
BRANCH   1   7
ATOM      4  C   UNL     1      47.096   8.267  12.131  0.00  0.00    +0.000 A 
ATOM      5  C   UNL     1      45.785   8.534  12.494  0.00  0.00    +0.000 A 
ATOM      6  C   UNL     1      44.830   7.509  12.494  0.00  0.00    +0.000 A 
ATOM      7  C   UNL     1      45.150   6.196  12.113  0.00  0.00    +0.000 A 
ATOM      8  C   UNL     1      46.482   5.948  11.744  0.00  0.00    +0.000 A 
ATOM      9  C   UNL     1      47.441   6.971  11.751  0.00  0.00    +0.000 A 
BRANCH   4  10
ATOM     10  O   UNL     1      48.093   9.199  12.050  0.00  0.00    +0.000 OA
BRANCH  10  11
ATOM     11  C   UNL     1      48.475   9.827  13.271  0.00  0.00    +0.000 C 
BRANCH  11  13
ATOM     12  N   UNL     1      50.445   8.450  14.065  0.00  0.00    +0.000 N 
ATOM     13  C   UNL     1      49.101   8.815  14.249  0.00  0.00    +0.000 C 
ATOM     14  O   UNL     1      48.410   8.330  15.151  0.00  0.00    +0.000 OA
BRANCH  12  16
ATOM     15  C   UNL     1      52.569   7.759  15.214  0.00  0.00    +0.000 C 
ATOM     16  C   UNL     1      51.057   7.605  15.100  0.00  0.00    +0.000 C 
ENDBRANCH  12  16
BRANCH  12  17
ATOM     17  C   UNL     1      51.239   9.046  12.985  0.00  0.00    +0.000 C 
ATOM     18  C   UNL     1      51.434   8.293  11.682  0.00  0.00    +0.000 C 
ENDBRANCH  12  17
ENDBRANCH  11  13
ENDBRANCH  10  11
ENDBRANCH   4  10
ENDBRANCH   1   7
BRANCH   1  19
ATOM     19  C   UNL     1      43.583   4.654  10.685  0.00  0.00    +0.000 C 
BRANCH  19  20
ATOM     20  N   UNL     1      43.825   3.240  10.360  0.00  0.00    +0.000 N 
ATOM     21  C   UNL     1      44.768   3.037   9.345  0.00  0.00    +0.000 A 
ATOM     22  C   UNL     1      45.110   1.732   8.998  0.00  0.00    +0.000 A 
ATOM     23  C   UNL     1      46.038   1.515   7.978  0.00  0.00    +0.000 A 
ATOM     24  C   UNL     1      46.614   2.605   7.319  0.00  0.00    +0.000 A 
ATOM     25  C   UNL     1      46.236   3.865   7.757  0.00  0.00    +0.000 A 
ATOM     26  N   UNL     1      45.342   4.097   8.743  0.00  0.00    +0.000 NA
ATOM     27  H   UNL     1      42.980   2.725  10.137  0.00  0.00    +0.000 HD
BRANCH  24  28
ATOM     28  C   UNL     1      47.569   2.378   6.215  0.00  0.00    +0.000 C 
ATOM     29  N   UNL     1      47.352   2.999   5.013  0.00  0.00    +0.000 N 
ATOM     30  O   UNL     1      48.537   1.637   6.357  0.00  0.00    +0.000 OA
ATOM     31  H   UNL     1      46.593   3.625   4.788  0.00  0.00    +0.000 HD
ATOM     32  H   UNL     1      48.029   2.813   4.283  0.00  0.00    +0.000 HD
ENDBRANCH  24  28
ENDBRANCH  19  20
ENDBRANCH   1  19
TORSDOF 9
ENDMDL
MODEL 7
REMARK VINA RESULT:    -6.620      3.383      4.648
REMARK INTER + INTRA:         -11.189
REMARK INTER:                 -10.230
REMARK INTRA:                  -0.958
REMARK UNBOUND:                -1.086
REMARK  Name = 
REMARK  13 active torsions:
REMARK  status: ('A' for Active; 'I' for Inactive)
REMARK    1  A    between atoms: C_1  and  C_2
REMARK    2  A    between atoms: C_2  and  N_3
REMARK    3  A    between atoms: N_3  and  C_4
REMARK    4  A    between atoms: C_4  and  C_5
REMARK    5  A    between atoms: C_6  and  C_8
REMARK    6  A    between atoms: C_8  and  O_9
REMARK    7  A    between atoms: O_9  and  C_10
REMARK    8  A    between atoms: C_13  and  C_14
REMARK    9  A    between atoms: C_14  and  C_15
REMARK   10  A    between atoms: C_14  and  C_16
REMARK   11  A    between atoms: C_14  and  C_17
REMARK   12  A    between atoms: C_17  and  N_18
REMARK   13  A    between atoms: C_22  and  C_23
REMARK                            x       y       z     vdW  Elec       q    Type
REMARK                         _______ _______ _______ _____ _____    ______ ____
ROOT
ATOM      1  C   UNL     1      44.211   4.951  12.260  0.00  0.00    +0.000 C 
ATOM      2  C   UNL     1      45.102   3.797  12.778  0.00  0.00    +0.000 C 
ATOM      3  C   UNL     1      42.998   5.082  13.219  0.00  0.00    +0.000 C 
ENDROOT
BRANCH   1   7
ATOM      4  C   UNL     1      46.428   8.737  12.333  0.00  0.00    +0.000 A 
ATOM      5  C   UNL     1      45.211   8.656  11.673  0.00  0.00    +0.000 A 
ATOM      6  C   UNL     1      44.497   7.450  11.654  0.00  0.00    +0.000 A 
ATOM      7  C   UNL     1      44.984   6.288  12.275  0.00  0.00    +0.000 A 
ATOM      8  C   UNL     1      46.220   6.391  12.934  0.00  0.00    +0.000 A 
ATOM      9  C   UNL     1      46.932   7.599  12.960  0.00  0.00    +0.000 A 
BRANCH   4  10
ATOM     10  O   UNL     1      47.226   9.845  12.373  0.00  0.00    +0.000 OA
BRANCH  10  11
ATOM     11  C   UNL     1      48.608   9.622  12.636  0.00  0.00    +0.000 C 
BRANCH  11  13
ATOM     12  N   UNL     1      50.887  10.346  11.805  0.00  0.00    +0.000 N 
ATOM     13  C   UNL     1      49.498  10.332  11.599  0.00  0.00    +0.000 C 
ATOM     14  O   UNL     1      48.976  10.893  10.629  0.00  0.00    +0.000 OA
BRANCH  12  16
ATOM     15  C   UNL     1      52.221   9.850   9.736  0.00  0.00    +0.000 C 
ATOM     16  C   UNL     1      51.719  10.895  10.726  0.00  0.00    +0.000 C 
ENDBRANCH  12  16
BRANCH  12  17
ATOM     17  C   UNL     1      51.476   9.669  12.967  0.00  0.00    +0.000 C 
ATOM     18  C   UNL     1      52.929   9.912  13.331  0.00  0.00    +0.000 C 
ENDBRANCH  12  17
ENDBRANCH  11  13
ENDBRANCH  10  11
ENDBRANCH   4  10
ENDBRANCH   1   7
BRANCH   1  19
ATOM     19  C   UNL     1      43.631   4.541  10.866  0.00  0.00    +0.000 C 
BRANCH  19  20
ATOM     20  N   UNL     1      43.974   3.163  10.482  0.00  0.00    +0.000 N 
ATOM     21  C   UNL     1      44.859   3.070   9.402  0.00  0.00    +0.000 A 
ATOM     22  C   UNL     1      45.290   1.810   8.994  0.00  0.00    +0.000 A 
ATOM     23  C   UNL     1      46.163   1.702   7.909  0.00  0.00    +0.000 A 
ATOM     24  C   UNL     1      46.595   2.855   7.247  0.00  0.00    +0.000 A 
ATOM     25  C   UNL     1      46.138   4.065   7.748  0.00  0.00    +0.000 A 
ATOM     26  N   UNL     1      45.296   4.192   8.797  0.00  0.00    +0.000 NA
ATOM     27  H   UNL     1      43.164   2.579  10.300  0.00  0.00    +0.000 HD
BRANCH  24  28
ATOM     28  C   UNL     1      47.489   2.743   6.077  0.00  0.00    +0.000 C 
ATOM     29  N   UNL     1      48.789   2.358   6.270  0.00  0.00    +0.000 N 
ATOM     30  O   UNL     1      47.087   3.001   4.946  0.00  0.00    +0.000 OA
ATOM     31  H   UNL     1      49.222   2.123   7.151  0.00  0.00    +0.000 HD
ATOM     32  H   UNL     1      49.368   2.297   5.441  0.00  0.00    +0.000 HD
ENDBRANCH  24  28
ENDBRANCH  19  20
ENDBRANCH   1  19
TORSDOF 9
ENDMDL
MODEL 8
REMARK VINA RESULT:    -6.209      2.883      4.441
REMARK INTER + INTRA:         -10.562
REMARK INTER:                  -9.029
REMARK INTRA:                  -1.533
REMARK UNBOUND:                -1.086
REMARK  Name = 
REMARK  13 active torsions:
REMARK  status: ('A' for Active; 'I' for Inactive)
REMARK    1  A    between atoms: C_1  and  C_2
REMARK    2  A    between atoms: C_2  and  N_3
REMARK    3  A    between atoms: N_3  and  C_4
REMARK    4  A    between atoms: C_4  and  C_5
REMARK    5  A    between atoms: C_6  and  C_8
REMARK    6  A    between atoms: C_8  and  O_9
REMARK    7  A    between atoms: O_9  and  C_10
REMARK    8  A    between atoms: C_13  and  C_14
REMARK    9  A    between atoms: C_14  and  C_15
REMARK   10  A    between atoms: C_14  and  C_16
REMARK   11  A    between atoms: C_14  and  C_17
REMARK   12  A    between atoms: C_17  and  N_18
REMARK   13  A    between atoms: C_22  and  C_23
REMARK                            x       y       z     vdW  Elec       q    Type
REMARK                         _______ _______ _______ _____ _____    ______ ____
ROOT
ATOM      1  C   UNL     1      48.194   8.764  12.454  0.00  0.00    +0.000 C 
ATOM      2  C   UNL     1      48.585  10.231  12.157  0.00  0.00    +0.000 C 
ATOM      3  C   UNL     1      48.995   7.852  11.487  0.00  0.00    +0.000 C 
ENDROOT
BRANCH   1   7
ATOM      4  C   UNL     1      49.257   7.710  16.578  0.00  0.00    +0.000 A 
ATOM      5  C   UNL     1      49.614   6.872  15.533  0.00  0.00    +0.000 A 
ATOM      6  C   UNL     1      49.282   7.209  14.213  0.00  0.00    +0.000 A 
ATOM      7  C   UNL     1      48.570   8.379  13.903  0.00  0.00    +0.000 A 
ATOM      8  C   UNL     1      48.215   9.211  14.977  0.00  0.00    +0.000 A 
ATOM      9  C   UNL     1      48.553   8.879  16.297  0.00  0.00    +0.000 A 
BRANCH   4  10
ATOM     10  O   UNL     1      49.487   7.455  17.901  0.00  0.00    +0.000 OA
BRANCH  10  11
ATOM     11  C   UNL     1      48.544   6.613  18.558  0.00  0.00    +0.000 C 
BRANCH  11  13
ATOM     12  N   UNL     1      48.398   4.116  18.163  0.00  0.00    +0.000 N 
ATOM     13  C   UNL     1      49.098   5.188  18.743  0.00  0.00    +0.000 C 
ATOM     14  O   UNL     1      50.122   5.013  19.412  0.00  0.00    +0.000 OA
BRANCH  12  16
ATOM     15  C   UNL     1      50.001   2.512  17.083  0.00  0.00    +0.000 C 
ATOM     16  C   UNL     1      49.031   2.792  18.226  0.00  0.00    +0.000 C 
ENDBRANCH  12  16
BRANCH  12  17
ATOM     17  C   UNL     1      47.186   4.358  17.373  0.00  0.00    +0.000 C 
ATOM     18  C   UNL     1      47.239   4.276  15.858  0.00  0.00    +0.000 C 
ENDBRANCH  12  17
ENDBRANCH  11  13
ENDBRANCH  10  11
ENDBRANCH   4  10
ENDBRANCH   1   7
BRANCH   1  19
ATOM     19  C   UNL     1      46.683   8.572  12.094  0.00  0.00    +0.000 C 
BRANCH  19  20
ATOM     20  N   UNL     1      45.973   7.694  13.037  0.00  0.00    +0.000 N 
ATOM     21  C   UNL     1      45.521   6.494  12.476  0.00  0.00    +0.000 A 
ATOM     22  C   UNL     1      44.883   5.568  13.297  0.00  0.00    +0.000 A 
ATOM     23  C   UNL     1      44.414   4.372  12.748  0.00  0.00    +0.000 A 
ATOM     24  C   UNL     1      44.591   4.117  11.385  0.00  0.00    +0.000 A 
ATOM     25  C   UNL     1      45.267   5.085  10.656  0.00  0.00    +0.000 A 
ATOM     26  N   UNL     1      45.730   6.246  11.168  0.00  0.00    +0.000 NA
ATOM     27  H   UNL     1      45.202   8.150  13.513  0.00  0.00    +0.000 HD
BRANCH  24  28
ATOM     28  C   UNL     1      44.065   2.871  10.794  0.00  0.00    +0.000 C 
ATOM     29  N   UNL     1      44.749   2.286   9.761  0.00  0.00    +0.000 N 
ATOM     30  O   UNL     1      43.025   2.364  11.204  0.00  0.00    +0.000 OA
ATOM     31  H   UNL     1      45.609   2.615   9.347  0.00  0.00    +0.000 HD
ATOM     32  H   UNL     1      44.351   1.435   9.383  0.00  0.00    +0.000 HD
ENDBRANCH  24  28
ENDBRANCH  19  20
ENDBRANCH   1  19
TORSDOF 9
ENDMDL
MODEL 9
REMARK VINA RESULT:    -6.149      3.082      8.139
REMARK INTER + INTRA:         -10.470
REMARK INTER:                  -8.802
REMARK INTRA:                  -1.669
REMARK UNBOUND:                -1.086
REMARK  Name = 
REMARK  13 active torsions:
REMARK  status: ('A' for Active; 'I' for Inactive)
REMARK    1  A    between atoms: C_1  and  C_2
REMARK    2  A    between atoms: C_2  and  N_3
REMARK    3  A    between atoms: N_3  and  C_4
REMARK    4  A    between atoms: C_4  and  C_5
REMARK    5  A    between atoms: C_6  and  C_8
REMARK    6  A    between atoms: C_8  and  O_9
REMARK    7  A    between atoms: O_9  and  C_10
REMARK    8  A    between atoms: C_13  and  C_14
REMARK    9  A    between atoms: C_14  and  C_15
REMARK   10  A    between atoms: C_14  and  C_16
REMARK   11  A    between atoms: C_14  and  C_17
REMARK   12  A    between atoms: C_17  and  N_18
REMARK   13  A    between atoms: C_22  and  C_23
REMARK                            x       y       z     vdW  Elec       q    Type
REMARK                         _______ _______ _______ _____ _____    ______ ____
ROOT
ATOM      1  C   UNL     1      49.584   9.316  16.275  0.00  0.00    +0.000 C 
ATOM      2  C   UNL     1      51.116   9.511  16.181  0.00  0.00    +0.000 C 
ATOM      3  C   UNL     1      48.933  10.719  16.410  0.00  0.00    +0.000 C 
ENDROOT
BRANCH   1   7
ATOM      4  C   UNL     1      47.994   7.440  12.641  0.00  0.00    +0.000 A 
ATOM      5  C   UNL     1      49.280   7.149  13.068  0.00  0.00    +0.000 A 
ATOM      6  C   UNL     1      49.789   7.741  14.232  0.00  0.00    +0.000 A 
ATOM      7  C   UNL     1      49.037   8.653  14.991  0.00  0.00    +0.000 A 
ATOM      8  C   UNL     1      47.738   8.937  14.539  0.00  0.00    +0.000 A 
ATOM      9  C   UNL     1      47.225   8.339  13.378  0.00  0.00    +0.000 A 
BRANCH   4  10
ATOM     10  O   UNL     1      47.419   6.958  11.500  0.00  0.00    +0.000 OA
BRANCH  10  11
ATOM     11  C   UNL     1      45.998   6.846  11.503  0.00  0.00    +0.000 C 
BRANCH  11  13
ATOM     12  N   UNL     1      45.413   4.413  11.886  0.00  0.00    +0.000 N 
ATOM     13  C   UNL     1      45.543   5.473  10.974  0.00  0.00    +0.000 C 
ATOM     14  O   UNL     1      45.330   5.324   9.765  0.00  0.00    +0.000 OA
BRANCH  12  16
ATOM     15  C   UNL     1      43.480   2.812  11.990  0.00  0.00    +0.000 C 
ATOM     16  C   UNL     1      44.833   3.162  11.380  0.00  0.00    +0.000 C 
ENDBRANCH  12  16
BRANCH  12  17
ATOM     17  C   UNL     1      45.672   4.622  13.315  0.00  0.00    +0.000 C 
ATOM     18  C   UNL     1      46.932   4.059  13.948  0.00  0.00    +0.000 C 
ENDBRANCH  12  17
ENDBRANCH  11  13
ENDBRANCH  10  11
ENDBRANCH   4  10
ENDBRANCH   1   7
BRANCH   1  19
ATOM     19  C   UNL     1      49.262   8.549  17.600  0.00  0.00    +0.000 C 
BRANCH  19  20
ATOM     20  N   UNL     1      48.311   7.444  17.409  0.00  0.00    +0.000 N 
ATOM     21  C   UNL     1      48.900   6.174  17.399  0.00  0.00    +0.000 A 
ATOM     22  C   UNL     1      48.080   5.055  17.279  0.00  0.00    +0.000 A 
ATOM     23  C   UNL     1      48.656   3.783  17.254  0.00  0.00    +0.000 A 
ATOM     24  C   UNL     1      50.044   3.646  17.352  0.00  0.00    +0.000 A 
ATOM     25  C   UNL     1      50.773   4.816  17.502  0.00  0.00    +0.000 A 
ATOM     26  N   UNL     1      50.236   6.055  17.531  0.00  0.00    +0.000 NA
ATOM     27  H   UNL     1      47.729   7.547  16.584  0.00  0.00    +0.000 HD
BRANCH  24  28
ATOM     28  C   UNL     1      50.658   2.305  17.289  0.00  0.00    +0.000 C 
ATOM     29  N   UNL     1      51.651   1.987  18.179  0.00  0.00    +0.000 N 
ATOM     30  O   UNL     1      50.303   1.483  16.449  0.00  0.00    +0.000 OA
ATOM     31  H   UNL     1      52.018   2.582  18.907  0.00  0.00    +0.000 HD
ATOM     32  H   UNL     1      52.047   1.059  18.098  0.00  0.00    +0.000 HD
ENDBRANCH  24  28
ENDBRANCH  19  20
ENDBRANCH   1  19
TORSDOF 9
ENDMDL
