MODEL 1
REMARK VINA RESULT:    -8.920      0.000      0.000
REMARK INTER + INTRA:         -12.791
REMARK INTER:                 -12.049
REMARK INTRA:                  -0.742
REMARK UNBOUND:                -0.742
REMARK  Name = 
REMARK  8 active torsions:
REMARK  status: ('A' for Active; 'I' for Inactive)
REMARK    1  A    between atoms: C_1  and  C_2
REMARK    2  A    between atoms: C_2  and  C_3
REMARK    3  A    between atoms: N_6  and  C_7
REMARK    4  A    between atoms: C_11  and  C_12
REMARK    5  A    between atoms: C_12  and  C_13
REMARK    6  A    between atoms: C_13  and  N_14
REMARK    7  A    between atoms: N_14  and  C_15
REMARK    8  A    between atoms: C_18  and  C_19
REMARK                            x       y       z     vdW  Elec       q    Type
REMARK                         _______ _______ _______ _____ _____    ______ ____
ROOT
ATOM      1  C   UNL     1      43.290   5.407  12.252  0.00  0.00    +0.000 C 
ENDROOT
BRANCH   1   6
ATOM      2  C   UNL     1      46.629   4.460  13.901  0.00  0.00    +0.000 A 
ATOM      3  C   UNL     1      47.417   5.564  13.564  0.00  0.00    +0.000 A 
ATOM      4  C   UNL     1      46.886   6.631  12.856  0.00  0.00    +0.000 A 
ATOM      5  C   UNL     1      45.556   6.601  12.451  0.00  0.00    +0.000 A 
ATOM      6  C   UNL     1      44.739   5.490  12.723  0.00  0.00    +0.000 A 
ATOM      7  C   UNL     1      45.296   4.423  13.456  0.00  0.00    +0.000 A 
BRANCH   2  13
ATOM      8  C   UNL     1      48.317   3.210  18.838  0.00  0.00    +0.000 C 
ATOM      9  C   UNL     1      48.867   3.808  17.550  0.00  0.00    +0.000 C 
ATOM     10  C   UNL     1      50.278   4.357  17.696  0.00  0.00    +0.000 C 
ATOM     11  C   UNL     1      47.897   4.704  16.781  0.00  0.00    +0.000 C 
ATOM     12  C   UNL     1      47.899   3.558  15.795  0.00  0.00    +0.000 C 
ATOM     13  N   UNL     1      47.133   3.415  14.694  0.00  0.00    +0.000 N 
ATOM     14  N   UNL     1      48.752   2.843  16.430  0.00  0.00    +0.000 NA
ATOM     15  H   UNL     1      47.198   2.519  14.223  0.00  0.00    +0.000 HD
ENDBRANCH   2  13
ENDBRANCH   1   6
BRANCH   1  16
ATOM     16  C   UNL     1      43.089   4.455  11.065  0.00  0.00    +0.000 C 
BRANCH  16  17
ATOM     17  N   UNL     1      43.676   4.925   9.806  0.00  0.00    +0.000 N 
ATOM     18  H   UNL     1      44.131   5.831   9.904  0.00  0.00    +0.000 HD
BRANCH  17  19
ATOM     19  C   UNL     1      44.524   3.990   9.168  0.00  0.00    +0.000 A 
ATOM     20  C   UNL     1      45.537   4.364   8.273  0.00  0.00    +0.000 A 
ATOM     21  C   UNL     1      46.376   3.410   7.698  0.00  0.00    +0.000 A 
ATOM     22  C   UNL     1      46.211   2.088   8.064  0.00  0.00    +0.000 A 
ATOM     23  N   UNL     1      45.285   1.665   8.968  0.00  0.00    +0.000 NA
ATOM     24  C   UNL     1      44.489   2.630   9.503  0.00  0.00    +0.000 A 
BRANCH  22  25
ATOM     25  C   UNL     1      47.101   1.052   7.451  0.00  0.00    +0.000 C 
ATOM     26  N   UNL     1      46.738  -0.246   7.687  0.00  0.00    +0.000 N 
ATOM     27  O   UNL     1      48.086   1.334   6.783  0.00  0.00    +0.000 OA
ATOM     28  H   UNL     1      45.924  -0.443   8.259  0.00  0.00    +0.000 HD
ATOM     29  H   UNL     1      47.305  -0.997   7.315  0.00  0.00    +0.000 HD
ENDBRANCH  22  25
ENDBRANCH  17  19
ENDBRANCH  16  17
ENDBRANCH   1  16
TORSDOF 6
ENDMDL
MODEL 2
REMARK VINA RESULT:    -8.381      2.359      3.915
REMARK INTER + INTRA:         -12.063
REMARK INTER:                 -10.896
REMARK INTRA:                  -1.167
REMARK UNBOUND:                -0.742
REMARK  Name = 
REMARK  8 active torsions:
REMARK  status: ('A' for Active; 'I' for Inactive)
REMARK    1  A    between atoms: C_1  and  C_2
REMARK    2  A    between atoms: C_2  and  C_3
REMARK    3  A    between atoms: N_6  and  C_7
REMARK    4  A    between atoms: C_11  and  C_12
REMARK    5  A    between atoms: C_12  and  C_13
REMARK    6  A    between atoms: C_13  and  N_14
REMARK    7  A    between atoms: N_14  and  C_15
REMARK    8  A    between atoms: C_18  and  C_19
REMARK                            x       y       z     vdW  Elec       q    Type
REMARK                         _______ _______ _______ _____ _____    ______ ____
ROOT
ATOM      1  C   UNL     1      43.281   5.263  12.272  0.00  0.00    +0.000 C 
ENDROOT
BRANCH   1   6
ATOM      2  C   UNL     1      46.803   6.015  13.612  0.00  0.00    +0.000 A 
ATOM      3  C   UNL     1      47.312   4.722  13.768  0.00  0.00    +0.000 A 
ATOM      4  C   UNL     1      46.564   3.612  13.408  0.00  0.00    +0.000 A 
ATOM      5  C   UNL     1      45.279   3.776  12.905  0.00  0.00    +0.000 A 
ATOM      6  C   UNL     1      44.706   5.054  12.777  0.00  0.00    +0.000 A 
ATOM      7  C   UNL     1      45.490   6.168  13.136  0.00  0.00    +0.000 A 
BRANCH   2  13
ATOM      8  C   UNL     1      49.524  10.047  11.349  0.00  0.00    +0.000 C 
ATOM      9  C   UNL     1      49.739   8.594  11.746  0.00  0.00    +0.000 C 
ATOM     10  C   UNL     1      51.061   8.025  11.253  0.00  0.00    +0.000 C 
ATOM     11  C   UNL     1      48.528   7.681  11.559  0.00  0.00    +0.000 C 
ATOM     12  C   UNL     1      48.512   7.688  13.071  0.00  0.00    +0.000 C 
ATOM     13  N   UNL     1      47.586   7.148  13.889  0.00  0.00    +0.000 N 
ATOM     14  N   UNL     1      49.559   8.414  13.207  0.00  0.00    +0.000 NA
ATOM     15  H   UNL     1      47.691   7.359  14.876  0.00  0.00    +0.000 HD
ENDBRANCH   2  13
ENDBRANCH   1   6
BRANCH   1  16
ATOM     16  C   UNL     1      43.015   4.607  10.910  0.00  0.00    +0.000 C 
BRANCH  16  17
ATOM     17  N   UNL     1      43.905   5.061   9.836  0.00  0.00    +0.000 N 
ATOM     18  H   UNL     1      44.470   5.861  10.112  0.00  0.00    +0.000 HD
BRANCH  17  19
ATOM     19  C   UNL     1      44.700   4.042   9.262  0.00  0.00    +0.000 A 
ATOM     20  C   UNL     1      44.497   2.678   9.519  0.00  0.00    +0.000 A 
ATOM     21  C   UNL     1      45.281   1.705   8.901  0.00  0.00    +0.000 A 
ATOM     22  C   UNL     1      46.239   2.117   7.995  0.00  0.00    +0.000 A 
ATOM     23  N   UNL     1      46.451   3.419   7.659  0.00  0.00    +0.000 NA
ATOM     24  C   UNL     1      45.663   4.333   8.287  0.00  0.00    +0.000 A 
BRANCH  22  25
ATOM     25  C   UNL     1      47.093   1.084   7.326  0.00  0.00    +0.000 C 
ATOM     26  N   UNL     1      46.790  -0.215   7.634  0.00  0.00    +0.000 N 
ATOM     27  O   UNL     1      48.000   1.370   6.557  0.00  0.00    +0.000 OA
ATOM     28  H   UNL     1      46.042  -0.413   8.288  0.00  0.00    +0.000 HD
ATOM     29  H   UNL     1      47.338  -0.962   7.228  0.00  0.00    +0.000 HD
ENDBRANCH  22  25
ENDBRANCH  17  19
ENDBRANCH  16  17
ENDBRANCH   1  16
TORSDOF 6
ENDMDL
MODEL 3
REMARK VINA RESULT:    -8.186      3.321      5.713
REMARK INTER + INTRA:         -11.799
REMARK INTER:                 -10.874
REMARK INTRA:                  -0.925
REMARK UNBOUND:                -0.742
REMARK  Name = 
REMARK  8 active torsions:
REMARK  status: ('A' for Active; 'I' for Inactive)
REMARK    1  A    between atoms: C_1  and  C_2
REMARK    2  A    between atoms: C_2  and  C_3
REMARK    3  A    between atoms: N_6  and  C_7
REMARK    4  A    between atoms: C_11  and  C_12
REMARK    5  A    between atoms: C_12  and  C_13
REMARK    6  A    between atoms: C_13  and  N_14
REMARK    7  A    between atoms: N_14  and  C_15
REMARK    8  A    between atoms: C_18  and  C_19
REMARK                            x       y       z     vdW  Elec       q    Type
REMARK                         _______ _______ _______ _____ _____    ______ ____
ROOT
ATOM      1  C   UNL     1      44.080   4.427  12.867  0.00  0.00    +0.000 C 
ENDROOT
BRANCH   1   6
ATOM      2  C   UNL     1      45.627   7.944  12.831  0.00  0.00    +0.000 A 
ATOM      3  C   UNL     1      46.972   7.642  12.596  0.00  0.00    +0.000 A 
ATOM      4  C   UNL     1      47.388   6.334  12.403  0.00  0.00    +0.000 A 
ATOM      5  C   UNL     1      46.463   5.298  12.465  0.00  0.00    +0.000 A 
ATOM      6  C   UNL     1      45.109   5.547  12.748  0.00  0.00    +0.000 A 
ATOM      7  C   UNL     1      44.707   6.886  12.927  0.00  0.00    +0.000 A 
BRANCH   2  13
ATOM      8  C   UNL     1      42.151  11.513  10.842  0.00  0.00    +0.000 C 
ATOM      9  C   UNL     1      43.542  10.973  10.545  0.00  0.00    +0.000 C 
ATOM     10  C   UNL     1      44.106  11.460   9.219  0.00  0.00    +0.000 C 
ATOM     11  C   UNL     1      43.737   9.483  10.826  0.00  0.00    +0.000 C 
ATOM     12  C   UNL     1      44.598   9.992  11.960  0.00  0.00    +0.000 C 
ATOM     13  N   UNL     1      45.183   9.272  12.939  0.00  0.00    +0.000 N 
ATOM     14  N   UNL     1      44.463  11.234  11.677  0.00  0.00    +0.000 NA
ATOM     15  H   UNL     1      45.626   9.809  13.678  0.00  0.00    +0.000 HD
ENDBRANCH   2  13
ENDBRANCH   1   6
BRANCH   1  16
ATOM     16  C   UNL     1      44.274   3.309  11.834  0.00  0.00    +0.000 C 
BRANCH  16  17
ATOM     17  N   UNL     1      43.792   3.638  10.488  0.00  0.00    +0.000 N 
ATOM     18  H   UNL     1      43.447   4.594  10.423  0.00  0.00    +0.000 HD
BRANCH  17  19
ATOM     19  C   UNL     1      44.707   3.349   9.450  0.00  0.00    +0.000 A 
ATOM     20  C   UNL     1      45.360   4.344   8.708  0.00  0.00    +0.000 A 
ATOM     21  C   UNL     1      46.286   4.013   7.719  0.00  0.00    +0.000 A 
ATOM     22  C   UNL     1      46.575   2.678   7.515  0.00  0.00    +0.000 A 
ATOM     23  N   UNL     1      46.019   1.666   8.236  0.00  0.00    +0.000 NA
ATOM     24  C   UNL     1      45.122   2.036   9.190  0.00  0.00    +0.000 A 
BRANCH  22  25
ATOM     25  C   UNL     1      47.563   2.306   6.452  0.00  0.00    +0.000 C 
ATOM     26  N   UNL     1      47.454   3.005   5.281  0.00  0.00    +0.000 N 
ATOM     27  O   UNL     1      48.413   1.441   6.610  0.00  0.00    +0.000 OA
ATOM     28  H   UNL     1      46.726   3.704   5.181  0.00  0.00    +0.000 HD
ATOM     29  H   UNL     1      48.080   2.794   4.516  0.00  0.00    +0.000 HD
ENDBRANCH  22  25
ENDBRANCH  17  19
ENDBRANCH  16  17
ENDBRANCH   1  16
TORSDOF 6
ENDMDL
MODEL 4
REMARK VINA RESULT:    -7.886      1.734      2.139
REMARK INTER + INTRA:         -11.394
REMARK INTER:                 -10.798
REMARK INTRA:                  -0.596
REMARK UNBOUND:                -0.742
REMARK  Name = 
REMARK  8 active torsions:
REMARK  status: ('A' for Active; 'I' for Inactive)
REMARK    1  A    between atoms: C_1  and  C_2
REMARK    2  A    between atoms: C_2  and  C_3
REMARK    3  A    between atoms: N_6  and  C_7
REMARK    4  A    between atoms: C_11  and  C_12
REMARK    5  A    between atoms: C_12  and  C_13
REMARK    6  A    between atoms: C_13  and  N_14
REMARK    7  A    between atoms: N_14  and  C_15
REMARK    8  A    between atoms: C_18  and  C_19
REMARK                            x       y       z     vdW  Elec       q    Type
REMARK                         _______ _______ _______ _____ _____    ______ ____
ROOT
ATOM      1  C   UNL     1      45.246   4.602  11.910  0.00  0.00    +0.000 C 
ENDROOT
BRANCH   1   6
ATOM      2  C   UNL     1      47.699   7.140  13.428  0.00  0.00    +0.000 A 
ATOM      3  C   UNL     1      46.941   8.314  13.368  0.00  0.00    +0.000 A 
ATOM      4  C   UNL     1      45.640   8.300  12.892  0.00  0.00    +0.000 A 
ATOM      5  C   UNL     1      45.079   7.109  12.444  0.00  0.00    +0.000 A 
ATOM      6  C   UNL     1      45.818   5.914  12.438  0.00  0.00    +0.000 A 
ATOM      7  C   UNL     1      47.135   5.949  12.940  0.00  0.00    +0.000 A 
BRANCH   2  13
ATOM      8  C   UNL     1      50.656   5.087  17.406  0.00  0.00    +0.000 C 
ATOM      9  C   UNL     1      49.713   6.255  17.158  0.00  0.00    +0.000 C 
ATOM     10  C   UNL     1      49.364   7.025  18.423  0.00  0.00    +0.000 C 
ATOM     11  C   UNL     1      48.534   5.956  16.232  0.00  0.00    +0.000 C 
ATOM     12  C   UNL     1      49.283   6.861  15.280  0.00  0.00    +0.000 C 
ATOM     13  N   UNL     1      48.986   7.128  13.991  0.00  0.00    +0.000 N 
ATOM     14  N   UNL     1      50.236   7.138  16.089  0.00  0.00    +0.000 NA
ATOM     15  H   UNL     1      49.677   7.669  13.482  0.00  0.00    +0.000 HD
ENDBRANCH   2  13
ENDBRANCH   1   6
BRANCH   1  16
ATOM     16  C   UNL     1      43.822   4.738  11.354  0.00  0.00    +0.000 C 
BRANCH  16  17
ATOM     17  N   UNL     1      43.751   4.836   9.892  0.00  0.00    +0.000 N 
ATOM     18  H   UNL     1      43.902   5.787   9.558  0.00  0.00    +0.000 HD
BRANCH  17  19
ATOM     19  C   UNL     1      44.570   3.913   9.201  0.00  0.00    +0.000 A 
ATOM     20  C   UNL     1      45.616   4.305   8.353  0.00  0.00    +0.000 A 
ATOM     21  C   UNL     1      46.424   3.359   7.723  0.00  0.00    +0.000 A 
ATOM     22  C   UNL     1      46.193   2.022   7.987  0.00  0.00    +0.000 A 
ATOM     23  N   UNL     1      45.231   1.577   8.841  0.00  0.00    +0.000 NA
ATOM     24  C   UNL     1      44.467   2.535   9.433  0.00  0.00    +0.000 A 
BRANCH  22  25
ATOM     25  C   UNL     1      47.048   0.994   7.313  0.00  0.00    +0.000 C 
ATOM     26  N   UNL     1      46.801  -0.302   7.676  0.00  0.00    +0.000 N 
ATOM     27  O   UNL     1      47.910   1.282   6.495  0.00  0.00    +0.000 OA
ATOM     28  H   UNL     1      46.090  -0.501   8.370  0.00  0.00    +0.000 HD
ATOM     29  H   UNL     1      47.354  -1.045   7.270  0.00  0.00    +0.000 HD
ENDBRANCH  22  25
ENDBRANCH  17  19
ENDBRANCH  16  17
ENDBRANCH   1  16
TORSDOF 6
ENDMDL
MODEL 5
REMARK VINA RESULT:    -7.058      3.439      9.030
REMARK INTER + INTRA:         -10.276
REMARK INTER:                  -9.688
REMARK INTRA:                  -0.588
REMARK UNBOUND:                -0.742
REMARK  Name = 
REMARK  8 active torsions:
REMARK  status: ('A' for Active; 'I' for Inactive)
REMARK    1  A    between atoms: C_1  and  C_2
REMARK    2  A    between atoms: C_2  and  C_3
REMARK    3  A    between atoms: N_6  and  C_7
REMARK    4  A    between atoms: C_11  and  C_12
REMARK    5  A    between atoms: C_12  and  C_13
REMARK    6  A    between atoms: C_13  and  N_14
REMARK    7  A    between atoms: N_14  and  C_15
REMARK    8  A    between atoms: C_18  and  C_19
REMARK                            x       y       z     vdW  Elec       q    Type
REMARK                         _______ _______ _______ _____ _____    ______ ____
ROOT
ATOM      1  C   UNL     1      45.727   5.385  13.632  0.00  0.00    +0.000 C 
ENDROOT
BRANCH   1   6
ATOM      2  C   UNL     1      44.652   4.224  10.131  0.00  0.00    +0.000 A 
ATOM      3  C   UNL     1      43.704   3.247  10.452  0.00  0.00    +0.000 A 
ATOM      4  C   UNL     1      43.368   2.985  11.771  0.00  0.00    +0.000 A 
ATOM      5  C   UNL     1      43.994   3.682  12.797  0.00  0.00    +0.000 A 
ATOM      6  C   UNL     1      44.989   4.637  12.526  0.00  0.00    +0.000 A 
ATOM      7  C   UNL     1      45.305   4.898  11.177  0.00  0.00    +0.000 A 
BRANCH   2  13
ATOM      8  C   UNL     1      46.200   2.213   5.404  0.00  0.00    +0.000 C 
ATOM      9  C   UNL     1      46.821   2.736   6.691  0.00  0.00    +0.000 C 
ATOM     10  C   UNL     1      48.325   2.519   6.764  0.00  0.00    +0.000 C 
ATOM     11  C   UNL     1      46.053   2.400   7.969  0.00  0.00    +0.000 C 
ATOM     12  C   UNL     1      45.755   3.882   7.967  0.00  0.00    +0.000 C 
ATOM     13  N   UNL     1      44.934   4.559   8.797  0.00  0.00    +0.000 N 
ATOM     14  N   UNL     1      46.445   4.151   6.922  0.00  0.00    +0.000 NA
ATOM     15  H   UNL     1      44.774   5.533   8.561  0.00  0.00    +0.000 HD
ENDBRANCH   2  13
ENDBRANCH   1   6
BRANCH   1  16
ATOM     16  C   UNL     1      47.107   4.793  13.953  0.00  0.00    +0.000 C 
BRANCH  16  17
ATOM     17  N   UNL     1      47.082   3.691  14.921  0.00  0.00    +0.000 N 
ATOM     18  H   UNL     1      47.517   2.845  14.557  0.00  0.00    +0.000 HD
BRANCH  17  19
ATOM     19  C   UNL     1      47.590   4.022  16.199  0.00  0.00    +0.000 A 
ATOM     20  C   UNL     1      47.660   3.101  17.255  0.00  0.00    +0.000 A 
ATOM     21  C   UNL     1      48.205   3.460  18.487  0.00  0.00    +0.000 A 
ATOM     22  C   UNL     1      48.713   4.737  18.630  0.00  0.00    +0.000 A 
ATOM     23  N   UNL     1      48.727   5.661  17.629  0.00  0.00    +0.000 NA
ATOM     24  C   UNL     1      48.185   5.266  16.445  0.00  0.00    +0.000 A 
BRANCH  22  25
ATOM     25  C   UNL     1      49.298   5.139  19.949  0.00  0.00    +0.000 C 
ATOM     26  N   UNL     1      50.292   4.327  20.421  0.00  0.00    +0.000 N 
ATOM     27  O   UNL     1      48.920   6.124  20.569  0.00  0.00    +0.000 OA
ATOM     28  H   UNL     1      50.568   3.511  19.887  0.00  0.00    +0.000 HD
ATOM     29  H   UNL     1      50.720   4.532  21.314  0.00  0.00    +0.000 HD
ENDBRANCH  22  25
ENDBRANCH  17  19
ENDBRANCH  16  17
ENDBRANCH   1  16
TORSDOF 6
ENDMDL
MODEL 6
REMARK VINA RESULT:    -6.765      3.209      3.868
REMARK INTER + INTRA:          -9.880
REMARK INTER:                  -9.170
REMARK INTRA:                  -0.710
REMARK UNBOUND:                -0.742
REMARK  Name = 
REMARK  8 active torsions:
REMARK  status: ('A' for Active; 'I' for Inactive)
REMARK    1  A    between atoms: C_1  and  C_2
REMARK    2  A    between atoms: C_2  and  C_3
REMARK    3  A    between atoms: N_6  and  C_7
REMARK    4  A    between atoms: C_11  and  C_12
REMARK    5  A    between atoms: C_12  and  C_13
REMARK    6  A    between atoms: C_13  and  N_14
REMARK    7  A    between atoms: N_14  and  C_15
REMARK    8  A    between atoms: C_18  and  C_19
REMARK                            x       y       z     vdW  Elec       q    Type
REMARK                         _______ _______ _______ _____ _____    ______ ____
ROOT
ATOM      1  C   UNL     1      45.614   5.572  12.315  0.00  0.00    +0.000 C 
ENDROOT
BRANCH   1   6
ATOM      2  C   UNL     1      48.549   8.052  12.256  0.00  0.00    +0.000 A 
ATOM      3  C   UNL     1      47.869   9.268  12.148  0.00  0.00    +0.000 A 
ATOM      4  C   UNL     1      46.483   9.314  12.140  0.00  0.00    +0.000 A 
ATOM      5  C   UNL     1      45.751   8.135  12.217  0.00  0.00    +0.000 A 
ATOM      6  C   UNL     1      46.390   6.885  12.277  0.00  0.00    +0.000 A 
ATOM      7  C   UNL     1      47.799   6.863  12.298  0.00  0.00    +0.000 A 
BRANCH   2  13
ATOM      8  C   UNL     1      52.613   7.210  15.655  0.00  0.00    +0.000 C 
ATOM      9  C   UNL     1      51.709   8.347  15.202  0.00  0.00    +0.000 C 
ATOM     10  C   UNL     1      51.877   9.614  16.027  0.00  0.00    +0.000 C 
ATOM     11  C   UNL     1      50.263   7.951  14.905  0.00  0.00    +0.000 C 
ATOM     12  C   UNL     1      50.671   8.220  13.474  0.00  0.00    +0.000 C 
ATOM     13  N   UNL     1      49.949   8.002  12.355  0.00  0.00    +0.000 N 
ATOM     14  N   UNL     1      51.864   8.597  13.749  0.00  0.00    +0.000 NA
ATOM     15  H   UNL     1      50.441   8.137  11.479  0.00  0.00    +0.000 HD
ENDBRANCH   2  13
ENDBRANCH   1   6
BRANCH   1  16
ATOM     16  C   UNL     1      44.492   5.496  11.271  0.00  0.00    +0.000 C 
BRANCH  16  17
ATOM     17  N   UNL     1      44.219   4.144  10.772  0.00  0.00    +0.000 N 
ATOM     18  H   UNL     1      43.228   3.988  10.596  0.00  0.00    +0.000 HD
BRANCH  17  19
ATOM     19  C   UNL     1      45.005   3.759   9.662  0.00  0.00    +0.000 A 
ATOM     20  C   UNL     1      45.162   2.423   9.264  0.00  0.00    +0.000 A 
ATOM     21  C   UNL     1      45.916   2.091   8.138  0.00  0.00    +0.000 A 
ATOM     22  C   UNL     1      46.472   3.118   7.399  0.00  0.00    +0.000 A 
ATOM     23  N   UNL     1      46.313   4.436   7.698  0.00  0.00    +0.000 NA
ATOM     24  C   UNL     1      45.571   4.712   8.804  0.00  0.00    +0.000 A 
BRANCH  22  25
ATOM     25  C   UNL     1      47.289   2.777   6.190  0.00  0.00    +0.000 C 
ATOM     26  N   UNL     1      48.597   2.460   6.437  0.00  0.00    +0.000 N 
ATOM     27  O   UNL     1      46.828   2.779   5.057  0.00  0.00    +0.000 OA
ATOM     28  H   UNL     1      48.947   2.485   7.388  0.00  0.00    +0.000 HD
ATOM     29  H   UNL     1      49.208   2.235   5.664  0.00  0.00    +0.000 HD
ENDBRANCH  22  25
ENDBRANCH  17  19
ENDBRANCH  16  17
ENDBRANCH   1  16
TORSDOF 6
ENDMDL
MODEL 7
REMARK VINA RESULT:    -6.548      3.521      7.808
REMARK INTER + INTRA:          -9.586
REMARK INTER:                  -8.472
REMARK INTRA:                  -1.114
REMARK UNBOUND:                -0.742
REMARK  Name = 
REMARK  8 active torsions:
REMARK  status: ('A' for Active; 'I' for Inactive)
REMARK    1  A    between atoms: C_1  and  C_2
REMARK    2  A    between atoms: C_2  and  C_3
REMARK    3  A    between atoms: N_6  and  C_7
REMARK    4  A    between atoms: C_11  and  C_12
REMARK    5  A    between atoms: C_12  and  C_13
REMARK    6  A    between atoms: C_13  and  N_14
REMARK    7  A    between atoms: N_14  and  C_15
REMARK    8  A    between atoms: C_18  and  C_19
REMARK                            x       y       z     vdW  Elec       q    Type
REMARK                         _______ _______ _______ _____ _____    ______ ____
ROOT
ATOM      1  C   UNL     1      48.123   9.212  16.280  0.00  0.00    +0.000 C 
ENDROOT
BRANCH   1   6
ATOM      2  C   UNL     1      47.614   7.716  12.778  0.00  0.00    +0.000 A 
ATOM      3  C   UNL     1      48.936   7.459  12.402  0.00  0.00    +0.000 A 
ATOM      4  C   UNL     1      49.987   7.713  13.269  0.00  0.00    +0.000 A 
ATOM      5  C   UNL     1      49.735   8.253  14.524  0.00  0.00    +0.000 A 
ATOM      6  C   UNL     1      48.427   8.575  14.928  0.00  0.00    +0.000 A 
ATOM      7  C   UNL     1      47.373   8.295  14.035  0.00  0.00    +0.000 A 
BRANCH   2  13
ATOM      8  C   UNL     1      43.067   4.881  12.521  0.00  0.00    +0.000 C 
ATOM      9  C   UNL     1      44.561   4.681  12.312  0.00  0.00    +0.000 C 
ATOM     10  C   UNL     1      44.949   3.226  12.096  0.00  0.00    +0.000 C 
ATOM     11  C   UNL     1      45.463   5.459  13.269  0.00  0.00    +0.000 C 
ATOM     12  C   UNL     1      45.789   6.259  12.029  0.00  0.00    +0.000 C 
ATOM     13  N   UNL     1      46.537   7.378  11.942  0.00  0.00    +0.000 N 
ATOM     14  N   UNL     1      45.066   5.563  11.233  0.00  0.00    +0.000 NA
ATOM     15  H   UNL     1      46.543   7.836  11.037  0.00  0.00    +0.000 HD
ENDBRANCH   2  13
ENDBRANCH   1   6
BRANCH   1  16
ATOM     16  C   UNL     1      48.753   8.462  17.462  0.00  0.00    +0.000 C 
BRANCH  16  17
ATOM     17  N   UNL     1      47.912   7.400  18.024  0.00  0.00    +0.000 N 
ATOM     18  H   UNL     1      46.934   7.496  17.754  0.00  0.00    +0.000 HD
BRANCH  17  19
ATOM     19  C   UNL     1      48.385   6.089  17.786  0.00  0.00    +0.000 A 
ATOM     20  C   UNL     1      47.537   4.975  17.699  0.00  0.00    +0.000 A 
ATOM     21  C   UNL     1      48.044   3.705  17.424  0.00  0.00    +0.000 A 
ATOM     22  C   UNL     1      49.401   3.578  17.198  0.00  0.00    +0.000 A 
ATOM     23  N   UNL     1      50.270   4.625  17.213  0.00  0.00    +0.000 NA
ATOM     24  C   UNL     1      49.732   5.844  17.486  0.00  0.00    +0.000 A 
BRANCH  22  25
ATOM     25  C   UNL     1      49.961   2.220  16.906  0.00  0.00    +0.000 C 
ATOM     26  N   UNL     1      50.902   1.771  17.793  0.00  0.00    +0.000 N 
ATOM     27  O   UNL     1      49.609   1.550  15.946  0.00  0.00    +0.000 OA
ATOM     28  H   UNL     1      51.180   2.361  18.569  0.00  0.00    +0.000 HD
ATOM     29  H   UNL     1      51.332   0.868  17.647  0.00  0.00    +0.000 HD
ENDBRANCH  22  25
ENDBRANCH  17  19
ENDBRANCH  16  17
ENDBRANCH   1  16
TORSDOF 6
ENDMDL
MODEL 8
REMARK VINA RESULT:    -6.534      3.914      5.254
REMARK INTER + INTRA:          -9.568
REMARK INTER:                  -9.202
REMARK INTRA:                  -0.365
REMARK UNBOUND:                -0.742
REMARK  Name = 
REMARK  8 active torsions:
REMARK  status: ('A' for Active; 'I' for Inactive)
REMARK    1  A    between atoms: C_1  and  C_2
REMARK    2  A    between atoms: C_2  and  C_3
REMARK    3  A    between atoms: N_6  and  C_7
REMARK    4  A    between atoms: C_11  and  C_12
REMARK    5  A    between atoms: C_12  and  C_13
REMARK    6  A    between atoms: C_13  and  N_14
REMARK    7  A    between atoms: N_14  and  C_15
REMARK    8  A    between atoms: C_18  and  C_19
REMARK                            x       y       z     vdW  Elec       q    Type
REMARK                         _______ _______ _______ _____ _____    ______ ____
ROOT
ATOM      1  C   UNL     1      45.818   5.675  12.340  0.00  0.00    +0.000 C 
ENDROOT
BRANCH   1   6
ATOM      2  C   UNL     1      48.999   7.829  12.260  0.00  0.00    +0.000 A 
ATOM      3  C   UNL     1      48.451   9.114  12.208  0.00  0.00    +0.000 A 
ATOM      4  C   UNL     1      47.078   9.307  12.245  0.00  0.00    +0.000 A 
ATOM      5  C   UNL     1      46.226   8.211  12.311  0.00  0.00    +0.000 A 
ATOM      6  C   UNL     1      46.729   6.898  12.315  0.00  0.00    +0.000 A 
ATOM      7  C   UNL     1      48.127   6.726  12.291  0.00  0.00    +0.000 A 
BRANCH   2  13
ATOM      8  C   UNL     1      53.732   9.975  10.929  0.00  0.00    +0.000 C 
ATOM      9  C   UNL     1      52.645   9.109  10.308  0.00  0.00    +0.000 C 
ATOM     10  C   UNL     1      52.850   8.863   8.821  0.00  0.00    +0.000 C 
ATOM     11  C   UNL     1      51.216   9.462  10.718  0.00  0.00    +0.000 C 
ATOM     12  C   UNL     1      51.296   8.149  11.464  0.00  0.00    +0.000 C 
ATOM     13  N   UNL     1      50.388   7.627  12.314  0.00  0.00    +0.000 N 
ATOM     14  N   UNL     1      52.477   7.848  11.069  0.00  0.00    +0.000 NA
ATOM     15  H   UNL     1      50.676   6.789  12.807  0.00  0.00    +0.000 HD
ENDBRANCH   2  13
ENDBRANCH   1   6
BRANCH   1  16
ATOM     16  C   UNL     1      44.737   5.697  11.250  0.00  0.00    +0.000 C 
BRANCH  16  17
ATOM     17  N   UNL     1      44.353   4.372  10.752  0.00  0.00    +0.000 N 
ATOM     18  H   UNL     1      43.352   4.299  10.576  0.00  0.00    +0.000 HD
BRANCH  17  19
ATOM     19  C   UNL     1      45.104   3.921   9.642  0.00  0.00    +0.000 A 
ATOM     20  C   UNL     1      45.206   2.568   9.287  0.00  0.00    +0.000 A 
ATOM     21  C   UNL     1      45.926   2.172   8.161  0.00  0.00    +0.000 A 
ATOM     22  C   UNL     1      46.505   3.152   7.378  0.00  0.00    +0.000 A 
ATOM     23  N   UNL     1      46.399   4.485   7.635  0.00  0.00    +0.000 NA
ATOM     24  C   UNL     1      45.687   4.824   8.743  0.00  0.00    +0.000 A 
BRANCH  22  25
ATOM     25  C   UNL     1      47.286   2.743   6.167  0.00  0.00    +0.000 C 
ATOM     26  N   UNL     1      48.592   2.404   6.400  0.00  0.00    +0.000 N 
ATOM     27  O   UNL     1      46.801   2.709   5.045  0.00  0.00    +0.000 OA
ATOM     28  H   UNL     1      48.963   2.459   7.341  0.00  0.00    +0.000 HD
ATOM     29  H   UNL     1      49.180   2.132   5.624  0.00  0.00    +0.000 HD
ENDBRANCH  22  25
ENDBRANCH  17  19
ENDBRANCH  16  17
ENDBRANCH   1  16
TORSDOF 6
ENDMDL
MODEL 9
REMARK VINA RESULT:    -6.336      3.473      7.824
REMARK INTER + INTRA:          -9.301
REMARK INTER:                  -8.212
REMARK INTRA:                  -1.088
REMARK UNBOUND:                -0.742
REMARK  Name = 
REMARK  8 active torsions:
REMARK  status: ('A' for Active; 'I' for Inactive)
REMARK    1  A    between atoms: C_1  and  C_2
REMARK    2  A    between atoms: C_2  and  C_3
REMARK    3  A    between atoms: N_6  and  C_7
REMARK    4  A    between atoms: C_11  and  C_12
REMARK    5  A    between atoms: C_12  and  C_13
REMARK    6  A    between atoms: C_13  and  N_14
REMARK    7  A    between atoms: N_14  and  C_15
REMARK    8  A    between atoms: C_18  and  C_19
REMARK                            x       y       z     vdW  Elec       q    Type
REMARK                         _______ _______ _______ _____ _____    ______ ____
ROOT
ATOM      1  C   UNL     1      48.862   9.813  13.471  0.00  0.00    +0.000 C 
ENDROOT
BRANCH   1   6
ATOM      2  C   UNL     1      45.343   8.652  12.458  0.00  0.00    +0.000 A 
ATOM      3  C   UNL     1      44.924   9.726  11.666  0.00  0.00    +0.000 A 
ATOM      4  C   UNL     1      45.766  10.797  11.412  0.00  0.00    +0.000 A 
ATOM      5  C   UNL     1      47.040  10.823  11.968  0.00  0.00    +0.000 A 
ATOM      6  C   UNL     1      47.488   9.790  12.810  0.00  0.00    +0.000 A 
ATOM      7  C   UNL     1      46.620   8.705  13.043  0.00  0.00    +0.000 A 
BRANCH   2  13
ATOM      8  C   UNL     1      45.138   3.325  11.849  0.00  0.00    +0.000 C 
ATOM      9  C   UNL     1      44.878   4.587  11.039  0.00  0.00    +0.000 C 
ATOM     10  C   UNL     1      44.605   4.312   9.568  0.00  0.00    +0.000 C 
ATOM     11  C   UNL     1      45.830   5.749  11.318  0.00  0.00    +0.000 C 
ATOM     12  C   UNL     1      44.605   6.368  11.952  0.00  0.00    +0.000 C 
ATOM     13  N   UNL     1      44.530   7.522  12.647  0.00  0.00    +0.000 N 
ATOM     14  N   UNL     1      43.811   5.405  11.665  0.00  0.00    +0.000 NA
ATOM     15  H   UNL     1      43.640   7.710  13.095  0.00  0.00    +0.000 HD
ENDBRANCH   2  13
ENDBRANCH   1   6
BRANCH   1  16
ATOM     16  C   UNL     1      48.908   9.061  14.809  0.00  0.00    +0.000 C 
BRANCH  16  17
ATOM     17  N   UNL     1      49.681   7.816  14.777  0.00  0.00    +0.000 N 
ATOM     18  H   UNL     1      50.654   7.955  15.047  0.00  0.00    +0.000 HD
BRANCH  17  19
ATOM     19  C   UNL     1      49.098   6.744  15.493  0.00  0.00    +0.000 A 
ATOM     20  C   UNL     1      48.092   5.927  14.958  0.00  0.00    +0.000 A 
ATOM     21  C   UNL     1      47.573   4.856  15.685  0.00  0.00    +0.000 A 
ATOM     22  C   UNL     1      48.105   4.595  16.934  0.00  0.00    +0.000 A 
ATOM     23  N   UNL     1      49.119   5.314  17.488  0.00  0.00    +0.000 NA
ATOM     24  C   UNL     1      49.594   6.349  16.742  0.00  0.00    +0.000 A 
BRANCH  22  25
ATOM     25  C   UNL     1      47.555   3.451  17.729  0.00  0.00    +0.000 C 
ATOM     26  N   UNL     1      48.304   3.077  18.812  0.00  0.00    +0.000 N 
ATOM     27  O   UNL     1      46.510   2.885  17.441  0.00  0.00    +0.000 OA
ATOM     28  H   UNL     1      49.173   3.559  19.010  0.00  0.00    +0.000 HD
ATOM     29  H   UNL     1      47.997   2.301  19.383  0.00  0.00    +0.000 HD
ENDBRANCH  22  25
ENDBRANCH  17  19
ENDBRANCH  16  17
ENDBRANCH   1  16
TORSDOF 6
ENDMDL
