MODEL 1
REMARK VINA RESULT:    -7.513      0.000      0.000
REMARK INTER + INTRA:          -9.482
REMARK INTER:                  -8.830
REMARK INTRA:                  -0.652
REMARK UNBOUND:                -0.652
REMARK  Name = 
REMARK  6 active torsions:
REMARK  status: ('A' for Active; 'I' for Inactive)
REMARK    1  A    between atoms: C_1  and  C_2
REMARK    2  A    between atoms: C_2  and  C_3
REMARK    3  A    between atoms: C_2  and  C_4
REMARK    4  A    between atoms: C_2  and  C_5
REMARK    5  A    between atoms: N_7  and  C_8
REMARK    6  A    between atoms: C_8  and  C_9
REMARK                            x       y       z     vdW  Elec       q    Type
REMARK                         _______ _______ _______ _____ _____    ______ ____
ROOT
ATOM      1  C   UNL     1      46.013   5.799  11.242  0.00  0.00    +0.000 A 
ATOM      2  C   UNL     1      46.008   5.649   9.866  0.00  0.00    +0.000 A 
ATOM      3  N   UNL     1      45.169   4.622   9.522  0.00  0.00    +0.000 N 
ATOM      4  C   UNL     1      44.595   4.083  10.652  0.00  0.00    +0.000 A 
ATOM      5  C   UNL     1      43.668   3.037  10.801  0.00  0.00    +0.000 A 
ATOM      6  C   UNL     1      43.262   2.687  12.090  0.00  0.00    +0.000 A 
ATOM      7  C   UNL     1      43.765   3.356  13.196  0.00  0.00    +0.000 A 
ATOM      8  C   UNL     1      44.684   4.402  13.038  0.00  0.00    +0.000 A 
ATOM      9  C   UNL     1      45.112   4.789  11.747  0.00  0.00    +0.000 A 
ENDROOT
BRANCH   1  11
ATOM     10  C   UNL     1      47.473   6.196  13.291  0.00  0.00    +0.000 C 
ATOM     11  C   UNL     1      46.830   6.827  12.030  0.00  0.00    +0.000 C 
ATOM     12  C   UNL     1      45.928   7.981  12.509  0.00  0.00    +0.000 C 
ATOM     13  C   UNL     1      47.982   7.394  11.176  0.00  0.00    +0.000 C 
ENDBRANCH   1  11
BRANCH   3  14
ATOM     14  C   UNL     1      44.979   4.154   8.154  0.00  0.00    +0.000 C 
BRANCH  14  15
ATOM     15  C   UNL     1      46.020   3.139   7.760  0.00  0.00    +0.000 A 
ATOM     16  C   UNL     1      47.126   3.501   6.981  0.00  0.00    +0.000 A 
ATOM     17  C   UNL     1      48.041   2.525   6.622  0.00  0.00    +0.000 A 
ATOM     18  N   UNL     1      47.942   1.232   6.999  0.00  0.00    +0.000 NA
ATOM     19  C   UNL     1      46.879   0.905   7.759  0.00  0.00    +0.000 A 
ATOM     20  C   UNL     1      45.906   1.807   8.163  0.00  0.00    +0.000 A 
ENDBRANCH  14  15
ENDBRANCH   3  14
TORSDOF 3
ENDMDL
MODEL 2
REMARK VINA RESULT:    -6.339      1.456      2.512
REMARK INTER + INTRA:          -8.102
REMARK INTER:                  -7.552
REMARK INTRA:                  -0.551
REMARK UNBOUND:                -0.652
REMARK  Name = 
REMARK  6 active torsions:
REMARK  status: ('A' for Active; 'I' for Inactive)
REMARK    1  A    between atoms: C_1  and  C_2
REMARK    2  A    between atoms: C_2  and  C_3
REMARK    3  A    between atoms: C_2  and  C_4
REMARK    4  A    between atoms: C_2  and  C_5
REMARK    5  A    between atoms: N_7  and  C_8
REMARK    6  A    between atoms: C_8  and  C_9
REMARK                            x       y       z     vdW  Elec       q    Type
REMARK                         _______ _______ _______ _____ _____    ______ ____
ROOT
ATOM      1  C   UNL     1      46.105   7.117  12.065  0.00  0.00    +0.000 A 
ATOM      2  C   UNL     1      45.217   6.750  11.069  0.00  0.00    +0.000 A 
ATOM      3  N   UNL     1      44.985   5.402  11.138  0.00  0.00    +0.000 N 
ATOM      4  C   UNL     1      45.697   4.853  12.181  0.00  0.00    +0.000 A 
ATOM      5  C   UNL     1      45.766   3.529  12.649  0.00  0.00    +0.000 A 
ATOM      6  C   UNL     1      46.596   3.252  13.736  0.00  0.00    +0.000 A 
ATOM      7  C   UNL     1      47.335   4.260  14.338  0.00  0.00    +0.000 A 
ATOM      8  C   UNL     1      47.255   5.578  13.869  0.00  0.00    +0.000 A 
ATOM      9  C   UNL     1      46.419   5.897  12.774  0.00  0.00    +0.000 A 
ENDROOT
BRANCH   1  11
ATOM     10  C   UNL     1      46.775   8.818  13.838  0.00  0.00    +0.000 C 
ATOM     11  C   UNL     1      46.633   8.531  12.322  0.00  0.00    +0.000 C 
ATOM     12  C   UNL     1      45.663   9.582  11.749  0.00  0.00    +0.000 C 
ATOM     13  C   UNL     1      48.030   8.724  11.698  0.00  0.00    +0.000 C 
ENDBRANCH   1  11
BRANCH   3  14
ATOM     14  C   UNL     1      44.145   4.674  10.193  0.00  0.00    +0.000 C 
BRANCH  14  15
ATOM     15  C   UNL     1      44.964   3.828   9.253  0.00  0.00    +0.000 A 
ATOM     16  C   UNL     1      44.973   2.432   9.357  0.00  0.00    +0.000 A 
ATOM     17  C   UNL     1      45.764   1.701   8.486  0.00  0.00    +0.000 A 
ATOM     18  N   UNL     1      46.521   2.257   7.517  0.00  0.00    +0.000 NA
ATOM     19  C   UNL     1      46.489   3.601   7.423  0.00  0.00    +0.000 A 
ATOM     20  C   UNL     1      45.737   4.419   8.252  0.00  0.00    +0.000 A 
ENDBRANCH  14  15
ENDBRANCH   3  14
TORSDOF 3
ENDMDL
MODEL 3
REMARK VINA RESULT:    -5.730      1.818      3.850
REMARK INTER + INTRA:          -7.387
REMARK INTER:                  -6.976
REMARK INTRA:                  -0.411
REMARK UNBOUND:                -0.652
REMARK  Name = 
REMARK  6 active torsions:
REMARK  status: ('A' for Active; 'I' for Inactive)
REMARK    1  A    between atoms: C_1  and  C_2
REMARK    2  A    between atoms: C_2  and  C_3
REMARK    3  A    between atoms: C_2  and  C_4
REMARK    4  A    between atoms: C_2  and  C_5
REMARK    5  A    between atoms: N_7  and  C_8
REMARK    6  A    between atoms: C_8  and  C_9
REMARK                            x       y       z     vdW  Elec       q    Type
REMARK                         _______ _______ _______ _____ _____    ______ ____
ROOT
ATOM      1  C   UNL     1      46.647   6.957  12.759  0.00  0.00    +0.000 A 
ATOM      2  C   UNL     1      45.990   5.806  12.361  0.00  0.00    +0.000 A 
ATOM      3  N   UNL     1      44.866   6.142  11.654  0.00  0.00    +0.000 N 
ATOM      4  C   UNL     1      44.761   7.512  11.558  0.00  0.00    +0.000 A 
ATOM      5  C   UNL     1      43.799   8.316  10.923  0.00  0.00    +0.000 A 
ATOM      6  C   UNL     1      43.938   9.703  10.999  0.00  0.00    +0.000 A 
ATOM      7  C   UNL     1      45.001  10.271  11.688  0.00  0.00    +0.000 A 
ATOM      8  C   UNL     1      45.958   9.461  12.313  0.00  0.00    +0.000 A 
ATOM      9  C   UNL     1      45.854   8.053  12.249  0.00  0.00    +0.000 A 
ENDROOT
BRANCH   1  11
ATOM     10  C   UNL     1      48.017   8.316  14.420  0.00  0.00    +0.000 C 
ATOM     11  C   UNL     1      47.938   7.017  13.579  0.00  0.00    +0.000 C 
ATOM     12  C   UNL     1      49.169   6.999  12.653  0.00  0.00    +0.000 C 
ATOM     13  C   UNL     1      48.021   5.838  14.570  0.00  0.00    +0.000 C 
ENDBRANCH   1  11
BRANCH   3  14
ATOM     14  C   UNL     1      43.908   5.168  11.142  0.00  0.00    +0.000 C 
BRANCH  14  15
ATOM     15  C   UNL     1      44.528   4.265  10.108  0.00  0.00    +0.000 A 
ATOM     16  C   UNL     1      45.319   4.782   9.075  0.00  0.00    +0.000 A 
ATOM     17  C   UNL     1      45.843   3.912   8.133  0.00  0.00    +0.000 A 
ATOM     18  N   UNL     1      45.653   2.576   8.161  0.00  0.00    +0.000 NA
ATOM     19  C   UNL     1      44.901   2.094   9.170  0.00  0.00    +0.000 A 
ATOM     20  C   UNL     1      44.327   2.884  10.155  0.00  0.00    +0.000 A 
ENDBRANCH  14  15
ENDBRANCH   3  14
TORSDOF 3
ENDMDL
MODEL 4
REMARK VINA RESULT:    -5.667      3.255      5.304
REMARK INTER + INTRA:          -7.313
REMARK INTER:                  -6.625
REMARK INTRA:                  -0.688
REMARK UNBOUND:                -0.652
REMARK  Name = 
REMARK  6 active torsions:
REMARK  status: ('A' for Active; 'I' for Inactive)
REMARK    1  A    between atoms: C_1  and  C_2
REMARK    2  A    between atoms: C_2  and  C_3
REMARK    3  A    between atoms: C_2  and  C_4
REMARK    4  A    between atoms: C_2  and  C_5
REMARK    5  A    between atoms: N_7  and  C_8
REMARK    6  A    between atoms: C_8  and  C_9
REMARK                            x       y       z     vdW  Elec       q    Type
REMARK                         _______ _______ _______ _____ _____    ______ ____
ROOT
ATOM      1  C   UNL     1      48.174   6.689  13.793  0.00  0.00    +0.000 A 
ATOM      2  C   UNL     1      47.421   5.871  12.967  0.00  0.00    +0.000 A 
ATOM      3  N   UNL     1      46.959   4.799  13.684  0.00  0.00    +0.000 N 
ATOM      4  C   UNL     1      47.380   4.889  14.992  0.00  0.00    +0.000 A 
ATOM      5  C   UNL     1      47.146   4.045  16.091  0.00  0.00    +0.000 A 
ATOM      6  C   UNL     1      47.719   4.381  17.320  0.00  0.00    +0.000 A 
ATOM      7  C   UNL     1      48.501   5.520  17.449  0.00  0.00    +0.000 A 
ATOM      8  C   UNL     1      48.724   6.358  16.348  0.00  0.00    +0.000 A 
ATOM      9  C   UNL     1      48.153   6.054  15.091  0.00  0.00    +0.000 A 
ENDROOT
BRANCH   1  11
ATOM     10  C   UNL     1      48.294   9.211  14.118  0.00  0.00    +0.000 C 
ATOM     11  C   UNL     1      48.877   7.983  13.376  0.00  0.00    +0.000 C 
ATOM     12  C   UNL     1      48.696   8.235  11.867  0.00  0.00    +0.000 C 
ATOM     13  C   UNL     1      50.382   7.930  13.712  0.00  0.00    +0.000 C 
ENDBRANCH   1  11
BRANCH   3  14
ATOM     14  C   UNL     1      46.185   3.708  13.103  0.00  0.00    +0.000 C 
BRANCH  14  15
ATOM     15  C   UNL     1      44.956   4.211  12.392  0.00  0.00    +0.000 A 
ATOM     16  C   UNL     1      44.854   4.161  10.997  0.00  0.00    +0.000 A 
ATOM     17  C   UNL     1      43.714   4.662  10.389  0.00  0.00    +0.000 A 
ATOM     18  N   UNL     1      42.671   5.183  11.070  0.00  0.00    +0.000 NA
ATOM     19  C   UNL     1      42.780   5.210  12.413  0.00  0.00    +0.000 A 
ATOM     20  C   UNL     1      43.883   4.741  13.111  0.00  0.00    +0.000 A 
ENDBRANCH  14  15
ENDBRANCH   3  14
TORSDOF 3
ENDMDL
MODEL 5
REMARK VINA RESULT:    -5.432      3.313      5.984
REMARK INTER + INTRA:          -7.037
REMARK INTER:                  -6.403
REMARK INTRA:                  -0.634
REMARK UNBOUND:                -0.652
REMARK  Name = 
REMARK  6 active torsions:
REMARK  status: ('A' for Active; 'I' for Inactive)
REMARK    1  A    between atoms: C_1  and  C_2
REMARK    2  A    between atoms: C_2  and  C_3
REMARK    3  A    between atoms: C_2  and  C_4
REMARK    4  A    between atoms: C_2  and  C_5
REMARK    5  A    between atoms: N_7  and  C_8
REMARK    6  A    between atoms: C_8  and  C_9
REMARK                            x       y       z     vdW  Elec       q    Type
REMARK                         _______ _______ _______ _____ _____    ______ ____
ROOT
ATOM      1  C   UNL     1      47.786   4.718  15.759  0.00  0.00    +0.000 A 
ATOM      2  C   UNL     1      47.113   3.745  15.039  0.00  0.00    +0.000 A 
ATOM      3  N   UNL     1      46.887   4.194  13.765  0.00  0.00    +0.000 N 
ATOM      4  C   UNL     1      47.412   5.458  13.610  0.00  0.00    +0.000 A 
ATOM      5  C   UNL     1      47.440   6.309  12.492  0.00  0.00    +0.000 A 
ATOM      6  C   UNL     1      48.037   7.564  12.627  0.00  0.00    +0.000 A 
ATOM      7  C   UNL     1      48.587   7.960  13.838  0.00  0.00    +0.000 A 
ATOM      8  C   UNL     1      48.559   7.102  14.945  0.00  0.00    +0.000 A 
ATOM      9  C   UNL     1      47.970   5.821  14.843  0.00  0.00    +0.000 A 
ENDROOT
BRANCH   1  11
ATOM     10  C   UNL     1      49.741   4.830  17.386  0.00  0.00    +0.000 C 
ATOM     11  C   UNL     1      48.215   4.615  17.224  0.00  0.00    +0.000 C 
ATOM     12  C   UNL     1      47.891   3.218  17.786  0.00  0.00    +0.000 C 
ATOM     13  C   UNL     1      47.519   5.690  18.085  0.00  0.00    +0.000 C 
ENDBRANCH   1  11
BRANCH   3  14
ATOM     14  C   UNL     1      46.144   3.442  12.760  0.00  0.00    +0.000 C 
BRANCH  14  15
ATOM     15  C   UNL     1      44.887   4.158  12.342  0.00  0.00    +0.000 A 
ATOM     16  C   UNL     1      43.937   4.566  13.287  0.00  0.00    +0.000 A 
ATOM     17  C   UNL     1      42.784   5.197  12.849  0.00  0.00    +0.000 A 
ATOM     18  N   UNL     1      42.524   5.464  11.551  0.00  0.00    +0.000 NA
ATOM     19  C   UNL     1      43.455   5.076  10.658  0.00  0.00    +0.000 A 
ATOM     20  C   UNL     1      44.636   4.433  10.996  0.00  0.00    +0.000 A 
ENDBRANCH  14  15
ENDBRANCH   3  14
TORSDOF 3
ENDMDL
MODEL 6
REMARK VINA RESULT:    -5.168      3.475      7.240
REMARK INTER + INTRA:          -6.726
REMARK INTER:                  -5.994
REMARK INTRA:                  -0.732
REMARK UNBOUND:                -0.652
REMARK  Name = 
REMARK  6 active torsions:
REMARK  status: ('A' for Active; 'I' for Inactive)
REMARK    1  A    between atoms: C_1  and  C_2
REMARK    2  A    between atoms: C_2  and  C_3
REMARK    3  A    between atoms: C_2  and  C_4
REMARK    4  A    between atoms: C_2  and  C_5
REMARK    5  A    between atoms: N_7  and  C_8
REMARK    6  A    between atoms: C_8  and  C_9
REMARK                            x       y       z     vdW  Elec       q    Type
REMARK                         _______ _______ _______ _____ _____    ______ ____
ROOT
ATOM      1  C   UNL     1      45.485   5.779  12.316  0.00  0.00    +0.000 A 
ATOM      2  C   UNL     1      46.718   5.597  12.918  0.00  0.00    +0.000 A 
ATOM      3  N   UNL     1      47.353   6.806  13.032  0.00  0.00    +0.000 N 
ATOM      4  C   UNL     1      46.555   7.808  12.525  0.00  0.00    +0.000 A 
ATOM      5  C   UNL     1      46.767   9.194  12.438  0.00  0.00    +0.000 A 
ATOM      6  C   UNL     1      45.775   9.983  11.852  0.00  0.00    +0.000 A 
ATOM      7  C   UNL     1      44.610   9.408  11.366  0.00  0.00    +0.000 A 
ATOM      8  C   UNL     1      44.405   8.025  11.462  0.00  0.00    +0.000 A 
ATOM      9  C   UNL     1      45.384   7.197  12.057  0.00  0.00    +0.000 A 
ENDROOT
BRANCH   1  11
ATOM     10  C   UNL     1      44.036   4.721  10.509  0.00  0.00    +0.000 C 
ATOM     11  C   UNL     1      44.472   4.677  11.995  0.00  0.00    +0.000 C 
ATOM     12  C   UNL     1      43.200   4.848  12.847  0.00  0.00    +0.000 C 
ATOM     13  C   UNL     1      45.074   3.279  12.244  0.00  0.00    +0.000 C 
ENDBRANCH   1  11
BRANCH   3  14
ATOM     14  C   UNL     1      48.701   6.967  13.565  0.00  0.00    +0.000 C 
BRANCH  14  15
ATOM     15  C   UNL     1      48.689   7.216  15.051  0.00  0.00    +0.000 A 
ATOM     16  C   UNL     1      48.652   8.516  15.568  0.00  0.00    +0.000 A 
ATOM     17  C   UNL     1      48.671   8.692  16.942  0.00  0.00    +0.000 A 
ATOM     18  N   UNL     1      48.702   7.673  17.826  0.00  0.00    +0.000 NA
ATOM     19  C   UNL     1      48.723   6.428  17.311  0.00  0.00    +0.000 A 
ATOM     20  C   UNL     1      48.715   6.150  15.953  0.00  0.00    +0.000 A 
ENDBRANCH  14  15
ENDBRANCH   3  14
TORSDOF 3
ENDMDL
MODEL 7
REMARK VINA RESULT:    -5.056      3.916      6.535
REMARK INTER + INTRA:          -6.595
REMARK INTER:                  -6.313
REMARK INTRA:                  -0.282
REMARK UNBOUND:                -0.652
REMARK  Name = 
REMARK  6 active torsions:
REMARK  status: ('A' for Active; 'I' for Inactive)
REMARK    1  A    between atoms: C_1  and  C_2
REMARK    2  A    between atoms: C_2  and  C_3
REMARK    3  A    between atoms: C_2  and  C_4
REMARK    4  A    between atoms: C_2  and  C_5
REMARK    5  A    between atoms: N_7  and  C_8
REMARK    6  A    between atoms: C_8  and  C_9
REMARK                            x       y       z     vdW  Elec       q    Type
REMARK                         _______ _______ _______ _____ _____    ______ ____
ROOT
ATOM      1  C   UNL     1      48.113   6.789  13.466  0.00  0.00    +0.000 A 
ATOM      2  C   UNL     1      48.184   6.149  14.692  0.00  0.00    +0.000 A 
ATOM      3  N   UNL     1      47.241   5.156  14.745  0.00  0.00    +0.000 N 
ATOM      4  C   UNL     1      46.540   5.108  13.560  0.00  0.00    +0.000 A 
ATOM      5  C   UNL     1      45.502   4.258  13.142  0.00  0.00    +0.000 A 
ATOM      6  C   UNL     1      44.958   4.448  11.871  0.00  0.00    +0.000 A 
ATOM      7  C   UNL     1      45.433   5.455  11.042  0.00  0.00    +0.000 A 
ATOM      8  C   UNL     1      46.472   6.294  11.465  0.00  0.00    +0.000 A 
ATOM      9  C   UNL     1      47.052   6.125  12.743  0.00  0.00    +0.000 A 
ENDROOT
BRANCH   1  11
ATOM     10  C   UNL     1      50.044   8.329  14.084  0.00  0.00    +0.000 C 
ATOM     11  C   UNL     1      48.985   7.962  13.014  0.00  0.00    +0.000 C 
ATOM     12  C   UNL     1      48.124   9.217  12.777  0.00  0.00    +0.000 C 
ATOM     13  C   UNL     1      49.756   7.615  11.723  0.00  0.00    +0.000 C 
ENDBRANCH   1  11
BRANCH   3  14
ATOM     14  C   UNL     1      47.002   4.327  15.920  0.00  0.00    +0.000 C 
BRANCH  14  15
ATOM     15  C   UNL     1      48.288   3.828  16.525  0.00  0.00    +0.000 A 
ATOM     16  C   UNL     1      48.712   2.507  16.339  0.00  0.00    +0.000 A 
ATOM     17  C   UNL     1      49.888   2.090  16.939  0.00  0.00    +0.000 A 
ATOM     18  N   UNL     1      50.674   2.895  17.685  0.00  0.00    +0.000 NA
ATOM     19  C   UNL     1      50.258   4.167  17.842  0.00  0.00    +0.000 A 
ATOM     20  C   UNL     1      49.093   4.676  17.289  0.00  0.00    +0.000 A 
ENDBRANCH  14  15
ENDBRANCH   3  14
TORSDOF 3
ENDMDL
MODEL 8
REMARK VINA RESULT:    -4.934      3.864      6.852
REMARK INTER + INTRA:          -6.452
REMARK INTER:                  -6.064
REMARK INTRA:                  -0.388
REMARK UNBOUND:                -0.652
REMARK  Name = 
REMARK  6 active torsions:
REMARK  status: ('A' for Active; 'I' for Inactive)
REMARK    1  A    between atoms: C_1  and  C_2
REMARK    2  A    between atoms: C_2  and  C_3
REMARK    3  A    between atoms: C_2  and  C_4
REMARK    4  A    between atoms: C_2  and  C_5
REMARK    5  A    between atoms: N_7  and  C_8
REMARK    6  A    between atoms: C_8  and  C_9
REMARK                            x       y       z     vdW  Elec       q    Type
REMARK                         _______ _______ _______ _____ _____    ______ ____
ROOT
ATOM      1  C   UNL     1      47.648   6.657  13.413  0.00  0.00    +0.000 A 
ATOM      2  C   UNL     1      47.882   5.884  14.538  0.00  0.00    +0.000 A 
ATOM      3  N   UNL     1      47.153   4.727  14.457  0.00  0.00    +0.000 N 
ATOM      4  C   UNL     1      46.437   4.702  13.281  0.00  0.00    +0.000 A 
ATOM      5  C   UNL     1      45.570   3.728  12.756  0.00  0.00    +0.000 A 
ATOM      6  C   UNL     1      44.959   3.978  11.526  0.00  0.00    +0.000 A 
ATOM      7  C   UNL     1      45.201   5.160  10.842  0.00  0.00    +0.000 A 
ATOM      8  C   UNL     1      46.071   6.123  11.371  0.00  0.00    +0.000 A 
ATOM      9  C   UNL     1      46.714   5.901  12.610  0.00  0.00    +0.000 A 
ENDROOT
BRANCH   1  11
ATOM     10  C   UNL     1      49.072   8.022  11.802  0.00  0.00    +0.000 C 
ATOM     11  C   UNL     1      48.261   8.029  13.122  0.00  0.00    +0.000 C 
ATOM     12  C   UNL     1      49.230   8.438  14.248  0.00  0.00    +0.000 C 
ATOM     13  C   UNL     1      47.166   9.105  12.969  0.00  0.00    +0.000 C 
ENDBRANCH   1  11
BRANCH   3  14
ATOM     14  C   UNL     1      47.118   3.716  15.508  0.00  0.00    +0.000 C 
BRANCH  14  15
ATOM     15  C   UNL     1      47.816   4.184  16.758  0.00  0.00    +0.000 A 
ATOM     16  C   UNL     1      49.161   3.879  16.994  0.00  0.00    +0.000 A 
ATOM     17  C   UNL     1      49.750   4.309  18.172  0.00  0.00    +0.000 A 
ATOM     18  N   UNL     1      49.103   5.032  19.111  0.00  0.00    +0.000 NA
ATOM     19  C   UNL     1      47.812   5.328  18.861  0.00  0.00    +0.000 A 
ATOM     20  C   UNL     1      47.134   4.936  17.717  0.00  0.00    +0.000 A 
ENDBRANCH  14  15
ENDBRANCH   3  14
TORSDOF 3
ENDMDL
MODEL 9
REMARK VINA RESULT:    -4.853      3.542      6.361
REMARK INTER + INTRA:          -6.356
REMARK INTER:                  -5.731
REMARK INTRA:                  -0.625
REMARK UNBOUND:                -0.652
REMARK  Name = 
REMARK  6 active torsions:
REMARK  status: ('A' for Active; 'I' for Inactive)
REMARK    1  A    between atoms: C_1  and  C_2
REMARK    2  A    between atoms: C_2  and  C_3
REMARK    3  A    between atoms: C_2  and  C_4
REMARK    4  A    between atoms: C_2  and  C_5
REMARK    5  A    between atoms: N_7  and  C_8
REMARK    6  A    between atoms: C_8  and  C_9
REMARK                            x       y       z     vdW  Elec       q    Type
REMARK                         _______ _______ _______ _____ _____    ______ ____
ROOT
ATOM      1  C   UNL     1      46.279   5.642  12.869  0.00  0.00    +0.000 A 
ATOM      2  C   UNL     1      46.776   6.829  12.356  0.00  0.00    +0.000 A 
ATOM      3  N   UNL     1      47.722   7.334  13.209  0.00  0.00    +0.000 N 
ATOM      4  C   UNL     1      47.881   6.494  14.289  0.00  0.00    +0.000 A 
ATOM      5  C   UNL     1      48.735   6.581  15.401  0.00  0.00    +0.000 A 
ATOM      6  C   UNL     1      48.673   5.575  16.367  0.00  0.00    +0.000 A 
ATOM      7  C   UNL     1      47.786   4.517  16.231  0.00  0.00    +0.000 A 
ATOM      8  C   UNL     1      46.942   4.435  15.115  0.00  0.00    +0.000 A 
ATOM      9  C   UNL     1      46.983   5.432  14.113  0.00  0.00    +0.000 A 
ENDROOT
BRANCH   1  11
ATOM     10  C   UNL     1      45.543   3.263  12.338  0.00  0.00    +0.000 C 
ATOM     11  C   UNL     1      45.198   4.769  12.226  0.00  0.00    +0.000 C 
ATOM     12  C   UNL     1      45.062   5.094  10.727  0.00  0.00    +0.000 C 
ATOM     13  C   UNL     1      43.837   4.970  12.923  0.00  0.00    +0.000 C 
ENDBRANCH   1  11
BRANCH   3  14
ATOM     14  C   UNL     1      48.401   8.608  13.003  0.00  0.00    +0.000 C 
BRANCH  14  15
ATOM     15  C   UNL     1      49.811   8.417  12.509  0.00  0.00    +0.000 A 
ATOM     16  C   UNL     1      50.909   8.828  13.275  0.00  0.00    +0.000 A 
ATOM     17  C   UNL     1      52.185   8.654  12.763  0.00  0.00    +0.000 A 
ATOM     18  N   UNL     1      52.440   8.088  11.565  0.00  0.00    +0.000 NA
ATOM     19  C   UNL     1      51.372   7.686  10.848  0.00  0.00    +0.000 A 
ATOM     20  C   UNL     1      50.058   7.823  11.270  0.00  0.00    +0.000 A 
ENDBRANCH  14  15
ENDBRANCH   3  14
TORSDOF 3
ENDMDL
