MODEL 1
REMARK VINA RESULT:    -8.371      0.000      0.000
REMARK INTER + INTRA:         -12.445
REMARK INTER:                 -11.307
REMARK INTRA:                  -1.138
REMARK UNBOUND:                -1.138
REMARK  Name = 
REMARK  8 active torsions:
REMARK  status: ('A' for Active; 'I' for Inactive)
REMARK    1  A    between atoms: C_1  and  C_2
REMARK    2  A    between atoms: C_5  and  C_6
REMARK    3  A    between atoms: C_10  and  C_11
REMARK    4  A    between atoms: C_11  and  C_12
REMARK    5  A    between atoms: C_11  and  C_13
REMARK    6  A    between atoms: C_13  and  N_14
REMARK    7  A    between atoms: N_14  and  C_15
REMARK    8  A    between atoms: C_18  and  C_19
REMARK                            x       y       z     vdW  Elec       q    Type
REMARK                         _______ _______ _______ _____ _____    ______ ____
ROOT
ATOM      1  C   UNL     1      43.561   5.522  12.114  0.00  0.00    +0.000 C 
ATOM      2  C   UNL     1      43.064   4.445  13.084  0.00  0.00    +0.000 C 
ENDROOT
BRANCH   1   7
ATOM      3  C   UNL     1      47.007   5.785  13.847  0.00  0.00    +0.000 A 
ATOM      4  C   UNL     1      47.718   6.468  12.846  0.00  0.00    +0.000 A 
ATOM      5  C   UNL     1      47.103   6.861  11.656  0.00  0.00    +0.000 A 
ATOM      6  C   UNL     1      45.758   6.573  11.434  0.00  0.00    +0.000 A 
ATOM      7  C   UNL     1      45.008   5.901  12.406  0.00  0.00    +0.000 A 
ATOM      8  C   UNL     1      45.638   5.544  13.615  0.00  0.00    +0.000 A 
BRANCH   3  13
ATOM      9  C   UNL     1      49.908   3.936  18.469  0.00  0.00    +0.000 C 
ATOM     10  C   UNL     1      49.107   4.377  17.284  0.00  0.00    +0.000 A 
ATOM     11  C   UNL     1      48.030   3.633  16.819  0.00  0.00    +0.000 A 
ATOM     12  C   UNL     1      47.317   4.092  15.706  0.00  0.00    +0.000 A 
ATOM     13  C   UNL     1      47.686   5.278  15.060  0.00  0.00    +0.000 A 
ATOM     14  C   UNL     1      48.785   5.941  15.613  0.00  0.00    +0.000 A 
ATOM     15  N   UNL     1      49.491   5.531  16.697  0.00  0.00    +0.000 NA
ENDBRANCH   3  13
ENDBRANCH   1   7
BRANCH   1  16
ATOM     16  C   UNL     1      43.394   5.086  10.638  0.00  0.00    +0.000 C 
BRANCH  16  17
ATOM     17  N   UNL     1      43.805   3.692  10.441  0.00  0.00    +0.000 N 
ATOM     18  H   UNL     1      43.014   3.050  10.444  0.00  0.00    +0.000 HD
BRANCH  17  19
ATOM     19  C   UNL     1      44.703   3.403   9.404  0.00  0.00    +0.000 A 
ATOM     20  C   UNL     1      45.322   4.380   8.621  0.00  0.00    +0.000 A 
ATOM     21  C   UNL     1      46.263   4.028   7.652  0.00  0.00    +0.000 A 
ATOM     22  C   UNL     1      46.587   2.688   7.504  0.00  0.00    +0.000 A 
ATOM     23  N   UNL     1      46.052   1.696   8.264  0.00  0.00    +0.000 NA
ATOM     24  C   UNL     1      45.149   2.090   9.198  0.00  0.00    +0.000 A 
BRANCH  22  25
ATOM     25  C   UNL     1      47.584   2.281   6.463  0.00  0.00    +0.000 C 
ATOM     26  N   UNL     1      47.483   2.938   5.266  0.00  0.00    +0.000 N 
ATOM     27  O   UNL     1      48.435   1.424   6.657  0.00  0.00    +0.000 OA
ATOM     28  H   UNL     1      46.760   3.637   5.143  0.00  0.00    +0.000 HD
ATOM     29  H   UNL     1      48.121   2.713   4.519  0.00  0.00    +0.000 HD
ENDBRANCH  22  25
ENDBRANCH  17  19
ENDBRANCH  16  17
ENDBRANCH   1  16
TORSDOF 6
ENDMDL
MODEL 2
REMARK VINA RESULT:    -7.747      2.439      7.584
REMARK INTER + INTRA:         -11.603
REMARK INTER:                 -10.589
REMARK INTRA:                  -1.014
REMARK UNBOUND:                -1.138
REMARK  Name = 
REMARK  8 active torsions:
REMARK  status: ('A' for Active; 'I' for Inactive)
REMARK    1  A    between atoms: C_1  and  C_2
REMARK    2  A    between atoms: C_5  and  C_6
REMARK    3  A    between atoms: C_10  and  C_11
REMARK    4  A    between atoms: C_11  and  C_12
REMARK    5  A    between atoms: C_11  and  C_13
REMARK    6  A    between atoms: C_13  and  N_14
REMARK    7  A    between atoms: N_14  and  C_15
REMARK    8  A    between atoms: C_18  and  C_19
REMARK                            x       y       z     vdW  Elec       q    Type
REMARK                         _______ _______ _______ _____ _____    ______ ____
ROOT
ATOM      1  C   UNL     1      45.466   7.834  12.396  0.00  0.00    +0.000 C 
ATOM      2  C   UNL     1      45.043   9.150  11.735  0.00  0.00    +0.000 C 
ENDROOT
BRANCH   1   7
ATOM      3  C   UNL     1      44.606   4.707  10.292  0.00  0.00    +0.000 A 
ATOM      4  C   UNL     1      43.359   4.385  10.853  0.00  0.00    +0.000 A 
ATOM      5  C   UNL     1      42.792   5.167  11.862  0.00  0.00    +0.000 A 
ATOM      6  C   UNL     1      43.465   6.289  12.340  0.00  0.00    +0.000 A 
ATOM      7  C   UNL     1      44.706   6.652  11.806  0.00  0.00    +0.000 A 
ATOM      8  C   UNL     1      45.245   5.870  10.764  0.00  0.00    +0.000 A 
BRANCH   3  13
ATOM      9  C   UNL     1      47.172   1.052   6.651  0.00  0.00    +0.000 C 
ATOM     10  C   UNL     1      46.509   2.046   7.553  0.00  0.00    +0.000 A 
ATOM     11  C   UNL     1      46.569   3.410   7.296  0.00  0.00    +0.000 A 
ATOM     12  C   UNL     1      45.932   4.295   8.173  0.00  0.00    +0.000 A 
ATOM     13  C   UNL     1      45.252   3.819   9.300  0.00  0.00    +0.000 A 
ATOM     14  C   UNL     1      45.259   2.430   9.458  0.00  0.00    +0.000 A 
ATOM     15  N   UNL     1      45.856   1.544   8.622  0.00  0.00    +0.000 NA
ENDBRANCH   3  13
ENDBRANCH   1   7
BRANCH   1  16
ATOM     16  C   UNL     1      46.994   7.609  12.302  0.00  0.00    +0.000 C 
BRANCH  16  17
ATOM     17  N   UNL     1      47.619   7.616  13.629  0.00  0.00    +0.000 N 
ATOM     18  H   UNL     1      47.306   8.400  14.201  0.00  0.00    +0.000 HD
BRANCH  17  19
ATOM     19  C   UNL     1      47.644   6.420  14.360  0.00  0.00    +0.000 A 
ATOM     20  C   UNL     1      46.960   5.264  13.977  0.00  0.00    +0.000 A 
ATOM     21  C   UNL     1      47.087   4.083  14.711  0.00  0.00    +0.000 A 
ATOM     22  C   UNL     1      47.928   4.079  15.812  0.00  0.00    +0.000 A 
ATOM     23  N   UNL     1      48.653   5.158  16.209  0.00  0.00    +0.000 NA
ATOM     24  C   UNL     1      48.503   6.280  15.459  0.00  0.00    +0.000 A 
BRANCH  22  25
ATOM     25  C   UNL     1      48.073   2.830  16.625  0.00  0.00    +0.000 C 
ATOM     26  N   UNL     1      47.141   2.663  17.616  0.00  0.00    +0.000 N 
ATOM     27  O   UNL     1      48.956   2.007  16.427  0.00  0.00    +0.000 OA
ATOM     28  H   UNL     1      46.430   3.371  17.751  0.00  0.00    +0.000 HD
ATOM     29  H   UNL     1      47.180   1.845  18.202  0.00  0.00    +0.000 HD
ENDBRANCH  22  25
ENDBRANCH  17  19
ENDBRANCH  16  17
ENDBRANCH   1  16
TORSDOF 6
ENDMDL
MODEL 3
REMARK VINA RESULT:    -7.731      2.364      4.078
REMARK INTER + INTRA:         -11.581
REMARK INTER:                 -10.658
REMARK INTRA:                  -0.923
REMARK UNBOUND:                -1.138
REMARK  Name = 
REMARK  8 active torsions:
REMARK  status: ('A' for Active; 'I' for Inactive)
REMARK    1  A    between atoms: C_1  and  C_2
REMARK    2  A    between atoms: C_5  and  C_6
REMARK    3  A    between atoms: C_10  and  C_11
REMARK    4  A    between atoms: C_11  and  C_12
REMARK    5  A    between atoms: C_11  and  C_13
REMARK    6  A    between atoms: C_13  and  N_14
REMARK    7  A    between atoms: N_14  and  C_15
REMARK    8  A    between atoms: C_18  and  C_19
REMARK                            x       y       z     vdW  Elec       q    Type
REMARK                         _______ _______ _______ _____ _____    ______ ____
ROOT
ATOM      1  C   UNL     1      44.223   4.989  12.576  0.00  0.00    +0.000 C 
ATOM      2  C   UNL     1      43.940   3.498  12.791  0.00  0.00    +0.000 C 
ENDROOT
BRANCH   1   7
ATOM      3  C   UNL     1      47.603   6.822  12.975  0.00  0.00    +0.000 A 
ATOM      4  C   UNL     1      48.111   6.133  14.089  0.00  0.00    +0.000 A 
ATOM      5  C   UNL     1      47.401   5.087  14.682  0.00  0.00    +0.000 A 
ATOM      6  C   UNL     1      46.159   4.708  14.178  0.00  0.00    +0.000 A 
ATOM      7  C   UNL     1      45.618   5.361  13.065  0.00  0.00    +0.000 A 
ATOM      8  C   UNL     1      46.365   6.391  12.458  0.00  0.00    +0.000 A 
BRANCH   3  13
ATOM      9  C   UNL     1      50.078  11.500  10.695  0.00  0.00    +0.000 C 
ATOM     10  C   UNL     1      49.492  10.258  11.293  0.00  0.00    +0.000 A 
ATOM     11  C   UNL     1      50.219   9.078  11.369  0.00  0.00    +0.000 A 
ATOM     12  C   UNL     1      49.622   7.947  11.937  0.00  0.00    +0.000 A 
ATOM     13  C   UNL     1      48.307   7.997  12.414  0.00  0.00    +0.000 A 
ATOM     14  C   UNL     1      47.672   9.235  12.285  0.00  0.00    +0.000 A 
ATOM     15  N   UNL     1      48.225  10.353  11.750  0.00  0.00    +0.000 NA
ENDBRANCH   3  13
ENDBRANCH   1   7
BRANCH   1  16
ATOM     16  C   UNL     1      44.029   5.403  11.097  0.00  0.00    +0.000 C 
BRANCH  16  17
ATOM     17  N   UNL     1      43.684   4.249  10.260  0.00  0.00    +0.000 N 
ATOM     18  H   UNL     1      42.800   4.376   9.768  0.00  0.00    +0.000 HD
BRANCH  17  19
ATOM     19  C   UNL     1      44.673   3.717   9.418  0.00  0.00    +0.000 A 
ATOM     20  C   UNL     1      44.926   2.350   9.289  0.00  0.00    +0.000 A 
ATOM     21  C   UNL     1      45.876   1.883   8.378  0.00  0.00    +0.000 A 
ATOM     22  C   UNL     1      46.539   2.808   7.587  0.00  0.00    +0.000 A 
ATOM     23  N   UNL     1      46.306   4.146   7.635  0.00  0.00    +0.000 NA
ATOM     24  C   UNL     1      45.368   4.549   8.531  0.00  0.00    +0.000 A 
BRANCH  22  25
ATOM     25  C   UNL     1      47.572   2.336   6.610  0.00  0.00    +0.000 C 
ATOM     26  N   UNL     1      47.541   2.946   5.383  0.00  0.00    +0.000 N 
ATOM     27  O   UNL     1      48.392   1.468   6.877  0.00  0.00    +0.000 OA
ATOM     28  H   UNL     1      46.841   3.655   5.200  0.00  0.00    +0.000 HD
ATOM     29  H   UNL     1      48.206   2.676   4.677  0.00  0.00    +0.000 HD
ENDBRANCH  22  25
ENDBRANCH  17  19
ENDBRANCH  16  17
ENDBRANCH   1  16
TORSDOF 6
ENDMDL
MODEL 4
REMARK VINA RESULT:    -7.538      3.188      8.855
REMARK INTER + INTRA:         -11.320
REMARK INTER:                 -10.552
REMARK INTRA:                  -0.768
REMARK UNBOUND:                -1.138
REMARK  Name = 
REMARK  8 active torsions:
REMARK  status: ('A' for Active; 'I' for Inactive)
REMARK    1  A    between atoms: C_1  and  C_2
REMARK    2  A    between atoms: C_5  and  C_6
REMARK    3  A    between atoms: C_10  and  C_11
REMARK    4  A    between atoms: C_11  and  C_12
REMARK    5  A    between atoms: C_11  and  C_13
REMARK    6  A    between atoms: C_13  and  N_14
REMARK    7  A    between atoms: N_14  and  C_15
REMARK    8  A    between atoms: C_18  and  C_19
REMARK                            x       y       z     vdW  Elec       q    Type
REMARK                         _______ _______ _______ _____ _____    ______ ____
ROOT
ATOM      1  C   UNL     1      45.530   5.402  13.357  0.00  0.00    +0.000 C 
ATOM      2  C   UNL     1      45.453   6.860  12.892  0.00  0.00    +0.000 C 
ENDROOT
BRANCH   1   7
ATOM      3  C   UNL     1      44.968   3.331  10.142  0.00  0.00    +0.000 A 
ATOM      4  C   UNL     1      43.830   2.605  10.530  0.00  0.00    +0.000 A 
ATOM      5  C   UNL     1      43.238   2.794  11.781  0.00  0.00    +0.000 A 
ATOM      6  C   UNL     1      43.777   3.711  12.680  0.00  0.00    +0.000 A 
ATOM      7  C   UNL     1      44.906   4.463  12.333  0.00  0.00    +0.000 A 
ATOM      8  C   UNL     1      45.467   4.283  11.053  0.00  0.00    +0.000 A 
BRANCH   3  13
ATOM      9  C   UNL     1      47.490   2.484   5.031  0.00  0.00    +0.000 C 
ATOM     10  C   UNL     1      46.855   2.647   6.377  0.00  0.00    +0.000 A 
ATOM     11  C   UNL     1      46.643   1.560   7.215  0.00  0.00    +0.000 A 
ATOM     12  C   UNL     1      46.044   1.770   8.462  0.00  0.00    +0.000 A 
ATOM     13  C   UNL     1      45.654   3.054   8.861  0.00  0.00    +0.000 A 
ATOM     14  C   UNL     1      45.916   4.070   7.938  0.00  0.00    +0.000 A 
ATOM     15  N   UNL     1      46.504   3.903   6.726  0.00  0.00    +0.000 NA
ENDBRANCH   3  13
ENDBRANCH   1   7
BRANCH   1  16
ATOM     16  C   UNL     1      46.984   4.979  13.679  0.00  0.00    +0.000 C 
BRANCH  16  17
ATOM     17  N   UNL     1      47.017   3.800  14.551  0.00  0.00    +0.000 N 
ATOM     18  H   UNL     1      47.441   2.992  14.095  0.00  0.00    +0.000 HD
BRANCH  17  19
ATOM     19  C   UNL     1      47.483   3.956  15.865  0.00  0.00    +0.000 A 
ATOM     20  C   UNL     1      47.668   2.893  16.752  0.00  0.00    +0.000 A 
ATOM     21  C   UNL     1      48.204   3.110  18.023  0.00  0.00    +0.000 A 
ATOM     22  C   UNL     1      48.573   4.400  18.371  0.00  0.00    +0.000 A 
ATOM     23  N   UNL     1      48.458   5.467  17.537  0.00  0.00    +0.000 NA
ATOM     24  C   UNL     1      47.939   5.204  16.310  0.00  0.00    +0.000 A 
BRANCH  22  25
ATOM     25  C   UNL     1      49.139   4.663  19.733  0.00  0.00    +0.000 C 
ATOM     26  N   UNL     1      48.312   4.354  20.781  0.00  0.00    +0.000 N 
ATOM     27  O   UNL     1      50.260   5.119  19.909  0.00  0.00    +0.000 OA
ATOM     28  H   UNL     1      47.388   3.984  20.592  0.00  0.00    +0.000 HD
ATOM     29  H   UNL     1      48.628   4.507  21.725  0.00  0.00    +0.000 HD
ENDBRANCH  22  25
ENDBRANCH  17  19
ENDBRANCH  16  17
ENDBRANCH   1  16
TORSDOF 6
ENDMDL
MODEL 5
REMARK VINA RESULT:    -6.963      2.973      7.928
REMARK INTER + INTRA:         -10.544
REMARK INTER:                  -9.240
REMARK INTRA:                  -1.304
REMARK UNBOUND:                -1.138
REMARK  Name = 
REMARK  8 active torsions:
REMARK  status: ('A' for Active; 'I' for Inactive)
REMARK    1  A    between atoms: C_1  and  C_2
REMARK    2  A    between atoms: C_5  and  C_6
REMARK    3  A    between atoms: C_10  and  C_11
REMARK    4  A    between atoms: C_11  and  C_12
REMARK    5  A    between atoms: C_11  and  C_13
REMARK    6  A    between atoms: C_13  and  N_14
REMARK    7  A    between atoms: N_14  and  C_15
REMARK    8  A    between atoms: C_18  and  C_19
REMARK                            x       y       z     vdW  Elec       q    Type
REMARK                         _______ _______ _______ _____ _____    ______ ____
ROOT
ATOM      1  C   UNL     1      49.018   8.578  12.418  0.00  0.00    +0.000 C 
ATOM      2  C   UNL     1      49.970   7.560  11.782  0.00  0.00    +0.000 C 
ENDROOT
BRANCH   1   7
ATOM      3  C   UNL     1      45.875   6.620  11.308  0.00  0.00    +0.000 A 
ATOM      4  C   UNL     1      44.886   7.393  11.940  0.00  0.00    +0.000 A 
ATOM      5  C   UNL     1      45.214   8.530  12.681  0.00  0.00    +0.000 A 
ATOM      6  C   UNL     1      46.545   8.919  12.814  0.00  0.00    +0.000 A 
ATOM      7  C   UNL     1      47.563   8.185  12.196  0.00  0.00    +0.000 A 
ATOM      8  C   UNL     1      47.208   7.061  11.423  0.00  0.00    +0.000 A 
BRANCH   3  13
ATOM      9  C   UNL     1      44.624   1.559   8.854  0.00  0.00    +0.000 C 
ATOM     10  C   UNL     1      44.948   2.901   9.435  0.00  0.00    +0.000 A 
ATOM     11  C   UNL     1      45.402   3.945   8.639  0.00  0.00    +0.000 A 
ATOM     12  C   UNL     1      45.690   5.178   9.234  0.00  0.00    +0.000 A 
ATOM     13  C   UNL     1      45.535   5.359  10.613  0.00  0.00    +0.000 A 
ATOM     14  C   UNL     1      45.074   4.241  11.314  0.00  0.00    +0.000 A 
ATOM     15  N   UNL     1      44.774   3.035  10.767  0.00  0.00    +0.000 NA
ENDBRANCH   3  13
ENDBRANCH   1   7
BRANCH   1  16
ATOM     16  C   UNL     1      49.312   8.773  13.926  0.00  0.00    +0.000 C 
BRANCH  16  17
ATOM     17  N   UNL     1      50.047   7.632  14.480  0.00  0.00    +0.000 N 
ATOM     18  H   UNL     1      50.909   7.914  14.945  0.00  0.00    +0.000 HD
BRANCH  17  19
ATOM     19  C   UNL     1      49.338   6.686  15.235  0.00  0.00    +0.000 A 
ATOM     20  C   UNL     1      48.215   6.003  14.762  0.00  0.00    +0.000 A 
ATOM     21  C   UNL     1      47.599   5.019  15.538  0.00  0.00    +0.000 A 
ATOM     22  C   UNL     1      48.144   4.720  16.777  0.00  0.00    +0.000 A 
ATOM     23  N   UNL     1      49.259   5.319  17.273  0.00  0.00    +0.000 NA
ATOM     24  C   UNL     1      49.826   6.261  16.478  0.00  0.00    +0.000 A 
BRANCH  22  25
ATOM     25  C   UNL     1      47.495   3.678  17.636  0.00  0.00    +0.000 C 
ATOM     26  N   UNL     1      48.127   3.423  18.825  0.00  0.00    +0.000 N 
ATOM     27  O   UNL     1      46.473   3.091  17.310  0.00  0.00    +0.000 OA
ATOM     28  H   UNL     1      48.976   3.926  19.054  0.00  0.00    +0.000 HD
ATOM     29  H   UNL     1      47.746   2.732  19.451  0.00  0.00    +0.000 HD
ENDBRANCH  22  25
ENDBRANCH  17  19
ENDBRANCH  16  17
ENDBRANCH   1  16
TORSDOF 6
ENDMDL
MODEL 6
REMARK VINA RESULT:    -6.326      3.788      7.911
REMARK INTER + INTRA:          -9.683
REMARK INTER:                  -8.239
REMARK INTRA:                  -1.443
REMARK UNBOUND:                -1.138
REMARK  Name = 
REMARK  8 active torsions:
REMARK  status: ('A' for Active; 'I' for Inactive)
REMARK    1  A    between atoms: C_1  and  C_2
REMARK    2  A    between atoms: C_5  and  C_6
REMARK    3  A    between atoms: C_10  and  C_11
REMARK    4  A    between atoms: C_11  and  C_12
REMARK    5  A    between atoms: C_11  and  C_13
REMARK    6  A    between atoms: C_13  and  N_14
REMARK    7  A    between atoms: N_14  and  C_15
REMARK    8  A    between atoms: C_18  and  C_19
REMARK                            x       y       z     vdW  Elec       q    Type
REMARK                         _______ _______ _______ _____ _____    ______ ____
ROOT
ATOM      1  C   UNL     1      49.132   9.329  15.574  0.00  0.00    +0.000 C 
ATOM      2  C   UNL     1      49.027  10.847  15.391  0.00  0.00    +0.000 C 
ENDROOT
BRANCH   1   7
ATOM      3  C   UNL     1      47.790   6.967  12.823  0.00  0.00    +0.000 A 
ATOM      4  C   UNL     1      48.583   7.394  11.745  0.00  0.00    +0.000 A 
ATOM      5  C   UNL     1      49.545   8.394  11.900  0.00  0.00    +0.000 A 
ATOM      6  C   UNL     1      49.732   9.000  13.140  0.00  0.00    +0.000 A 
ATOM      7  C   UNL     1      48.971   8.601  14.245  0.00  0.00    +0.000 A 
ATOM      8  C   UNL     1      48.030   7.566  14.076  0.00  0.00    +0.000 A 
BRANCH   3  13
ATOM      9  C   UNL     1      43.716   2.935  12.235  0.00  0.00    +0.000 C 
ATOM     10  C   UNL     1      44.746   4.017  12.343  0.00  0.00    +0.000 A 
ATOM     11  C   UNL     1      44.888   4.983  11.356  0.00  0.00    +0.000 A 
ATOM     12  C   UNL     1      45.868   5.971  11.508  0.00  0.00    +0.000 A 
ATOM     13  C   UNL     1      46.702   5.983  12.633  0.00  0.00    +0.000 A 
ATOM     14  C   UNL     1      46.469   4.963  13.559  0.00  0.00    +0.000 A 
ATOM     15  N   UNL     1      45.521   3.998  13.448  0.00  0.00    +0.000 NA
ENDBRANCH   3  13
ENDBRANCH   1   7
BRANCH   1  16
ATOM     16  C   UNL     1      50.455   8.925  16.267  0.00  0.00    +0.000 C 
BRANCH  16  17
ATOM     17  N   UNL     1      50.205   8.245  17.542  0.00  0.00    +0.000 N 
ATOM     18  H   UNL     1      49.789   8.863  18.237  0.00  0.00    +0.000 HD
BRANCH  17  19
ATOM     19  C   UNL     1      49.572   6.994  17.516  0.00  0.00    +0.000 A 
ATOM     20  C   UNL     1      48.341   6.737  18.125  0.00  0.00    +0.000 A 
ATOM     21  C   UNL     1      47.730   5.488  17.999  0.00  0.00    +0.000 A 
ATOM     22  C   UNL     1      48.361   4.520  17.234  0.00  0.00    +0.000 A 
ATOM     23  N   UNL     1      49.537   4.723  16.583  0.00  0.00    +0.000 NA
ATOM     24  C   UNL     1      50.087   5.955  16.729  0.00  0.00    +0.000 A 
BRANCH  22  25
ATOM     25  C   UNL     1      47.734   3.167  17.093  0.00  0.00    +0.000 C 
ATOM     26  N   UNL     1      48.545   2.197  16.564  0.00  0.00    +0.000 N 
ATOM     27  O   UNL     1      46.581   2.931  17.424  0.00  0.00    +0.000 OA
ATOM     28  H   UNL     1      49.492   2.435  16.296  0.00  0.00    +0.000 HD
ATOM     29  H   UNL     1      48.187   1.263  16.439  0.00  0.00    +0.000 HD
ENDBRANCH  22  25
ENDBRANCH  17  19
ENDBRANCH  16  17
ENDBRANCH   1  16
TORSDOF 6
ENDMDL
MODEL 7
REMARK VINA RESULT:    -5.571      3.810      8.795
REMARK INTER + INTRA:          -8.663
REMARK INTER:                  -7.905
REMARK INTRA:                  -0.758
REMARK UNBOUND:                -1.138
REMARK  Name = 
REMARK  8 active torsions:
REMARK  status: ('A' for Active; 'I' for Inactive)
REMARK    1  A    between atoms: C_1  and  C_2
REMARK    2  A    between atoms: C_5  and  C_6
REMARK    3  A    between atoms: C_10  and  C_11
REMARK    4  A    between atoms: C_11  and  C_12
REMARK    5  A    between atoms: C_11  and  C_13
REMARK    6  A    between atoms: C_13  and  N_14
REMARK    7  A    between atoms: N_14  and  C_15
REMARK    8  A    between atoms: C_18  and  C_19
REMARK                            x       y       z     vdW  Elec       q    Type
REMARK                         _______ _______ _______ _____ _____    ______ ____
ROOT
ATOM      1  C   UNL     1      49.200   6.737  17.208  0.00  0.00    +0.000 C 
ATOM      2  C   UNL     1      48.673   8.060  17.772  0.00  0.00    +0.000 C 
ENDROOT
BRANCH   1   7
ATOM      3  C   UNL     1      47.749   5.915  13.720  0.00  0.00    +0.000 A 
ATOM      4  C   UNL     1      48.603   6.697  12.924  0.00  0.00    +0.000 A 
ATOM      5  C   UNL     1      49.637   7.449  13.487  0.00  0.00    +0.000 A 
ATOM      6  C   UNL     1      49.838   7.441  14.865  0.00  0.00    +0.000 A 
ATOM      7  C   UNL     1      49.018   6.670  15.697  0.00  0.00    +0.000 A 
ATOM      8  C   UNL     1      48.002   5.891  15.106  0.00  0.00    +0.000 A 
BRANCH   3  13
ATOM      9  C   UNL     1      43.413   2.903  11.413  0.00  0.00    +0.000 C 
ATOM     10  C   UNL     1      44.507   3.739  12.002  0.00  0.00    +0.000 A 
ATOM     11  C   UNL     1      44.566   5.110  11.790  0.00  0.00    +0.000 A 
ATOM     12  C   UNL     1      45.611   5.842  12.364  0.00  0.00    +0.000 A 
ATOM     13  C   UNL     1      46.591   5.205  13.134  0.00  0.00    +0.000 A 
ATOM     14  C   UNL     1      46.431   3.824  13.279  0.00  0.00    +0.000 A 
ATOM     15  N   UNL     1      45.425   3.086  12.746  0.00  0.00    +0.000 NA
ENDBRANCH   3  13
ENDBRANCH   1   7
BRANCH   1  16
ATOM     16  C   UNL     1      50.679   6.495  17.596  0.00  0.00    +0.000 C 
BRANCH  16  17
ATOM     17  N   UNL     1      50.795   5.507  18.674  0.00  0.00    +0.000 N 
ATOM     18  H   UNL     1      49.910   5.352  19.154  0.00  0.00    +0.000 HD
BRANCH  17  19
ATOM     19  C   UNL     1      51.457   4.301  18.402  0.00  0.00    +0.000 A 
ATOM     20  C   UNL     1      52.702   3.963  18.939  0.00  0.00    +0.000 A 
ATOM     21  C   UNL     1      53.272   2.714  18.687  0.00  0.00    +0.000 A 
ATOM     22  C   UNL     1      52.560   1.809  17.915  0.00  0.00    +0.000 A 
ATOM     23  N   UNL     1      51.328   2.062  17.401  0.00  0.00    +0.000 NA
ATOM     24  C   UNL     1      50.812   3.287  17.681  0.00  0.00    +0.000 A 
BRANCH  22  25
ATOM     25  C   UNL     1      53.154   0.466  17.618  0.00  0.00    +0.000 C 
ATOM     26  N   UNL     1      52.823  -0.529  18.500  0.00  0.00    +0.000 N 
ATOM     27  O   UNL     1      53.884   0.259  16.659  0.00  0.00    +0.000 OA
ATOM     28  H   UNL     1      52.220  -0.315  19.286  0.00  0.00    +0.000 HD
ATOM     29  H   UNL     1      53.188  -1.458  18.362  0.00  0.00    +0.000 HD
ENDBRANCH  22  25
ENDBRANCH  17  19
ENDBRANCH  16  17
ENDBRANCH   1  16
TORSDOF 6
ENDMDL
