MODEL 1
REMARK VINA RESULT:    -8.847      0.000      0.000
REMARK INTER + INTRA:         -13.496
REMARK INTER:                 -12.468
REMARK INTRA:                  -1.028
REMARK UNBOUND:                -1.028
REMARK  Name = 
REMARK  8 active torsions:
REMARK  status: ('A' for Active; 'I' for Inactive)
REMARK    1  A    between atoms: C_1  and  C_2
REMARK    2  A    between atoms: C_2  and  N_3
REMARK    3  A    between atoms: C_2  and  C_25
REMARK    4  A    between atoms: N_3  and  C_4
REMARK    5  A    between atoms: C_4  and  C_5
REMARK    6  A    between atoms: C_8  and  C_9
REMARK    7  A    between atoms: C_9  and  N_10
REMARK    8  A    between atoms: C_11  and  C_13
REMARK                            x       y       z     vdW  Elec       q    Type
REMARK                         _______ _______ _______ _____ _____    ______ ____
ROOT
ATOM      1  C   UNL     1      45.200   6.165  11.079  0.00  0.00    +0.000 C 
ATOM      2  C   UNL     1      44.222   5.633  12.138  0.00  0.00    +0.000 C 
ATOM      3  C   UNL     1      44.877   4.626  13.080  0.00  0.00    +0.000 C 
ATOM      4  C   UNL     1      46.133   5.197  13.762  0.00  0.00    +0.000 C 
ATOM      5  C   UNL     1      47.103   5.821  12.745  0.00  0.00    +0.000 C 
ATOM      6  C   UNL     1      46.405   6.795  11.797  0.00  0.00    +0.000 C 
ENDROOT
BRANCH   1   7
ATOM      7  C   UNL     1      45.648   5.094  10.054  0.00  0.00    +0.000 C 
BRANCH   7   8
ATOM      8  N   UNL     1      44.564   4.762   9.129  0.00  0.00    +0.000 NA
ATOM      9  H   UNL     1      43.685   5.131   9.496  0.00  0.00    +0.000 HD
BRANCH   8  11
ATOM     10  C   UNL     1      44.263   2.550  10.284  0.00  0.00    +0.000 C 
ATOM     11  C   UNL     1      44.353   3.309   8.955  0.00  0.00    +0.000 C 
BRANCH  11  12
ATOM     12  C   UNL     1      45.475   2.709   8.106  0.00  0.00    +0.000 A 
ATOM     13  C   UNL     1      46.001   3.420   7.025  0.00  0.00    +0.000 A 
ATOM     14  C   UNL     1      47.060   2.877   6.304  0.00  0.00    +0.000 A 
ATOM     15  C   UNL     1      47.556   1.633   6.664  0.00  0.00    +0.000 A 
ATOM     16  C   UNL     1      46.962   0.975   7.729  0.00  0.00    +0.000 A 
ATOM     17  N   UNL     1      45.938   1.480   8.454  0.00  0.00    +0.000 NA
ENDBRANCH  11  12
ENDBRANCH   8  11
ENDBRANCH   7   8
ENDBRANCH   1   7
BRANCH   4  18
ATOM     18  C   UNL     1      46.875   4.132  14.588  0.00  0.00    +0.000 C 
BRANCH  18  19
ATOM     19  N   UNL     1      47.481   4.691  15.775  0.00  0.00    +0.000 N 
ATOM     20  C   UNL     1      47.203   4.219  17.032  0.00  0.00    +0.000 C 
ATOM     21  O   UNL     1      46.474   3.248  17.228  0.00  0.00    +0.000 OA
ATOM     22  H   UNL     1      47.833   5.641  15.703  0.00  0.00    +0.000 HD
BRANCH  20  23
ATOM     23  C   UNL     1      47.893   4.889  18.138  0.00  0.00    +0.000 A 
ATOM     24  C   UNL     1      47.177   5.722  18.987  0.00  0.00    +0.000 A 
ATOM     25  S   UNL     1      48.114   6.376  20.251  0.00  0.00    +0.000 S 
ATOM     26  C   UNL     1      49.522   5.611  19.678  0.00  0.00    +0.000 A 
ATOM     27  N   UNL     1      50.715   5.779  20.308  0.00  0.00    +0.000 NA
ATOM     28  C   UNL     1      51.705   5.172  19.746  0.00  0.00    +0.000 A 
ATOM     29  N   UNL     1      51.611   4.402  18.615  0.00  0.00    +0.000 N 
ATOM     30  C   UNL     1      50.419   4.168  17.969  0.00  0.00    +0.000 A 
ATOM     31  O   UNL     1      50.352   3.422  16.996  0.00  0.00    +0.000 OA
ATOM     32  C   UNL     1      49.276   4.849  18.550  0.00  0.00    +0.000 A 
ATOM     33  H   UNL     1      52.424   3.945  18.233  0.00  0.00    +0.000 HD
ENDBRANCH  20  23
ENDBRANCH  18  19
ENDBRANCH   4  18
TORSDOF 7
ENDMDL
MODEL 2
REMARK VINA RESULT:    -8.333      1.630      1.811
REMARK INTER + INTRA:         -12.772
REMARK INTER:                 -11.515
REMARK INTRA:                  -1.257
REMARK UNBOUND:                -1.028
REMARK  Name = 
REMARK  8 active torsions:
REMARK  status: ('A' for Active; 'I' for Inactive)
REMARK    1  A    between atoms: C_1  and  C_2
REMARK    2  A    between atoms: C_2  and  N_3
REMARK    3  A    between atoms: C_2  and  C_25
REMARK    4  A    between atoms: N_3  and  C_4
REMARK    5  A    between atoms: C_4  and  C_5
REMARK    6  A    between atoms: C_8  and  C_9
REMARK    7  A    between atoms: C_9  and  N_10
REMARK    8  A    between atoms: C_11  and  C_13
REMARK                            x       y       z     vdW  Elec       q    Type
REMARK                         _______ _______ _______ _____ _____    ______ ____
ROOT
ATOM      1  C   UNL     1      45.025   6.146  10.926  0.00  0.00    +0.000 C 
ATOM      2  C   UNL     1      44.011   5.520  11.896  0.00  0.00    +0.000 C 
ATOM      3  C   UNL     1      44.661   4.526  12.854  0.00  0.00    +0.000 C 
ATOM      4  C   UNL     1      45.826   5.150  13.642  0.00  0.00    +0.000 C 
ATOM      5  C   UNL     1      46.823   5.866  12.716  0.00  0.00    +0.000 C 
ATOM      6  C   UNL     1      46.134   6.826  11.747  0.00  0.00    +0.000 C 
ENDROOT
BRANCH   1   7
ATOM      7  C   UNL     1      45.613   5.139   9.907  0.00  0.00    +0.000 C 
BRANCH   7   8
ATOM      8  N   UNL     1      44.636   4.808   8.868  0.00  0.00    +0.000 NA
ATOM      9  H   UNL     1      43.708   5.103   9.175  0.00  0.00    +0.000 HD
BRANCH   8  11
ATOM     10  C   UNL     1      44.448   2.506   9.858  0.00  0.00    +0.000 C 
ATOM     11  C   UNL     1      44.530   3.361   8.589  0.00  0.00    +0.000 C 
BRANCH  11  12
ATOM     12  C   UNL     1      45.718   2.896   7.743  0.00  0.00    +0.000 A 
ATOM     13  C   UNL     1      46.359   1.688   8.027  0.00  0.00    +0.000 A 
ATOM     14  C   UNL     1      47.398   1.260   7.208  0.00  0.00    +0.000 A 
ATOM     15  C   UNL     1      47.788   2.054   6.140  0.00  0.00    +0.000 A 
ATOM     16  C   UNL     1      47.125   3.253   5.940  0.00  0.00    +0.000 A 
ATOM     17  N   UNL     1      46.106   3.692   6.713  0.00  0.00    +0.000 NA
ENDBRANCH  11  12
ENDBRANCH   8  11
ENDBRANCH   7   8
ENDBRANCH   1   7
BRANCH   4  18
ATOM     18  C   UNL     1      46.574   4.107  14.489  0.00  0.00    +0.000 C 
BRANCH  18  19
ATOM     19  N   UNL     1      47.259   4.709  15.611  0.00  0.00    +0.000 N 
ATOM     20  C   UNL     1      48.098   3.994  16.426  0.00  0.00    +0.000 C 
ATOM     21  O   UNL     1      48.377   2.815  16.219  0.00  0.00    +0.000 OA
ATOM     22  H   UNL     1      46.850   5.556  15.993  0.00  0.00    +0.000 HD
BRANCH  20  23
ATOM     23  C   UNL     1      48.718   4.742  17.525  0.00  0.00    +0.000 A 
ATOM     24  C   UNL     1      48.543   4.308  18.832  0.00  0.00    +0.000 A 
ATOM     25  S   UNL     1      49.374   5.253  19.982  0.00  0.00    +0.000 S 
ATOM     26  C   UNL     1      49.954   6.306  18.778  0.00  0.00    +0.000 A 
ATOM     27  N   UNL     1      50.730   7.376  19.100  0.00  0.00    +0.000 NA
ATOM     28  C   UNL     1      51.069   8.110  18.094  0.00  0.00    +0.000 A 
ATOM     29  N   UNL     1      50.710   7.869  16.792  0.00  0.00    +0.000 N 
ATOM     30  C   UNL     1      49.964   6.777  16.414  0.00  0.00    +0.000 A 
ATOM     31  O   UNL     1      49.712   6.549  15.235  0.00  0.00    +0.000 OA
ATOM     32  C   UNL     1      49.537   5.930  17.513  0.00  0.00    +0.000 A 
ATOM     33  H   UNL     1      51.019   8.478  16.051  0.00  0.00    +0.000 HD
ENDBRANCH  20  23
ENDBRANCH  18  19
ENDBRANCH   4  18
TORSDOF 7
ENDMDL
MODEL 3
REMARK VINA RESULT:    -8.004      1.799      2.459
REMARK INTER + INTRA:         -12.308
REMARK INTER:                 -11.155
REMARK INTRA:                  -1.153
REMARK UNBOUND:                -1.028
REMARK  Name = 
REMARK  8 active torsions:
REMARK  status: ('A' for Active; 'I' for Inactive)
REMARK    1  A    between atoms: C_1  and  C_2
REMARK    2  A    between atoms: C_2  and  N_3
REMARK    3  A    between atoms: C_2  and  C_25
REMARK    4  A    between atoms: N_3  and  C_4
REMARK    5  A    between atoms: C_4  and  C_5
REMARK    6  A    between atoms: C_8  and  C_9
REMARK    7  A    between atoms: C_9  and  N_10
REMARK    8  A    between atoms: C_11  and  C_13
REMARK                            x       y       z     vdW  Elec       q    Type
REMARK                         _______ _______ _______ _____ _____    ______ ____
ROOT
ATOM      1  C   UNL     1      44.261   6.011  11.255  0.00  0.00    +0.000 C 
ATOM      2  C   UNL     1      44.444   5.560  12.712  0.00  0.00    +0.000 C 
ATOM      3  C   UNL     1      45.822   5.918  13.263  0.00  0.00    +0.000 C 
ATOM      4  C   UNL     1      46.129   7.420  13.134  0.00  0.00    +0.000 C 
ATOM      5  C   UNL     1      45.874   7.936  11.708  0.00  0.00    +0.000 C 
ATOM      6  C   UNL     1      44.501   7.529  11.178  0.00  0.00    +0.000 C 
ENDROOT
BRANCH   1   7
ATOM      7  C   UNL     1      45.156   5.245  10.250  0.00  0.00    +0.000 C 
BRANCH   7   8
ATOM      8  N   UNL     1      44.352   4.605   9.208  0.00  0.00    +0.000 NA
ATOM      9  H   UNL     1      43.368   4.834   9.357  0.00  0.00    +0.000 HD
BRANCH   8  11
ATOM     10  C   UNL     1      44.711   2.548  10.608  0.00  0.00    +0.000 C 
ATOM     11  C   UNL     1      44.430   3.129   9.217  0.00  0.00    +0.000 C 
BRANCH  11  12
ATOM     12  C   UNL     1      45.509   2.649   8.243  0.00  0.00    +0.000 A 
ATOM     13  C   UNL     1      45.948   3.481   7.210  0.00  0.00    +0.000 A 
ATOM     14  C   UNL     1      46.970   3.045   6.374  0.00  0.00    +0.000 A 
ATOM     15  C   UNL     1      47.516   1.785   6.573  0.00  0.00    +0.000 A 
ATOM     16  C   UNL     1      47.006   1.006   7.598  0.00  0.00    +0.000 A 
ATOM     17  N   UNL     1      46.020   1.405   8.434  0.00  0.00    +0.000 NA
ENDBRANCH  11  12
ENDBRANCH   8  11
ENDBRANCH   7   8
ENDBRANCH   1   7
BRANCH   4  18
ATOM     18  C   UNL     1      47.574   7.750  13.546  0.00  0.00    +0.000 C 
BRANCH  18  19
ATOM     19  N   UNL     1      47.898   7.229  14.855  0.00  0.00    +0.000 N 
ATOM     20  C   UNL     1      49.185   6.942  15.230  0.00  0.00    +0.000 C 
ATOM     21  O   UNL     1      50.153   7.170  14.507  0.00  0.00    +0.000 OA
ATOM     22  H   UNL     1      47.152   6.756  15.354  0.00  0.00    +0.000 HD
BRANCH  20  23
ATOM     23  C   UNL     1      49.356   6.416  16.589  0.00  0.00    +0.000 A 
ATOM     24  C   UNL     1      50.087   7.145  17.517  0.00  0.00    +0.000 A 
ATOM     25  S   UNL     1      50.143   6.424  19.060  0.00  0.00    +0.000 S 
ATOM     26  C   UNL     1      49.237   5.086  18.528  0.00  0.00    +0.000 A 
ATOM     27  N   UNL     1      48.942   4.061  19.372  0.00  0.00    +0.000 NA
ATOM     28  C   UNL     1      48.281   3.096  18.828  0.00  0.00    +0.000 A 
ATOM     29  N   UNL     1      47.879   3.064  17.517  0.00  0.00    +0.000 N 
ATOM     30  C   UNL     1      48.116   4.096  16.638  0.00  0.00    +0.000 A 
ATOM     31  O   UNL     1      47.689   4.070  15.488  0.00  0.00    +0.000 OA
ATOM     32  C   UNL     1      48.878   5.198  17.197  0.00  0.00    +0.000 A 
ATOM     33  H   UNL     1      47.355   2.282  17.157  0.00  0.00    +0.000 HD
ENDBRANCH  20  23
ENDBRANCH  18  19
ENDBRANCH   4  18
TORSDOF 7
ENDMDL
MODEL 4
REMARK VINA RESULT:    -7.859      2.219      3.272
REMARK INTER + INTRA:         -12.103
REMARK INTER:                 -10.711
REMARK INTRA:                  -1.393
REMARK UNBOUND:                -1.028
REMARK  Name = 
REMARK  8 active torsions:
REMARK  status: ('A' for Active; 'I' for Inactive)
REMARK    1  A    between atoms: C_1  and  C_2
REMARK    2  A    between atoms: C_2  and  N_3
REMARK    3  A    between atoms: C_2  and  C_25
REMARK    4  A    between atoms: N_3  and  C_4
REMARK    5  A    between atoms: C_4  and  C_5
REMARK    6  A    between atoms: C_8  and  C_9
REMARK    7  A    between atoms: C_9  and  N_10
REMARK    8  A    between atoms: C_11  and  C_13
REMARK                            x       y       z     vdW  Elec       q    Type
REMARK                         _______ _______ _______ _____ _____    ______ ____
ROOT
ATOM      1  C   UNL     1      45.416   6.659  11.704  0.00  0.00    +0.000 C 
ATOM      2  C   UNL     1      45.048   8.085  12.142  0.00  0.00    +0.000 C 
ATOM      3  C   UNL     1      45.975   8.614  13.233  0.00  0.00    +0.000 C 
ATOM      4  C   UNL     1      47.456   8.557  12.819  0.00  0.00    +0.000 C 
ATOM      5  C   UNL     1      47.848   7.168  12.288  0.00  0.00    +0.000 C 
ATOM      6  C   UNL     1      46.878   6.655  11.225  0.00  0.00    +0.000 C 
ENDROOT
BRANCH   1   7
ATOM      7  C   UNL     1      45.176   5.591  12.799  0.00  0.00    +0.000 C 
BRANCH   7   8
ATOM      8  N   UNL     1      45.326   4.238  12.259  0.00  0.00    +0.000 NA
ATOM      9  H   UNL     1      46.212   4.176  11.755  0.00  0.00    +0.000 HD
BRANCH   8  11
ATOM     10  C   UNL     1      43.377   2.727  11.776  0.00  0.00    +0.000 C 
ATOM     11  C   UNL     1      44.279   3.865  11.285  0.00  0.00    +0.000 C 
BRANCH  11  12
ATOM     12  C   UNL     1      44.914   3.467   9.951  0.00  0.00    +0.000 A 
ATOM     13  C   UNL     1      45.283   4.444   9.023  0.00  0.00    +0.000 A 
ATOM     14  C   UNL     1      45.912   4.060   7.844  0.00  0.00    +0.000 A 
ATOM     15  C   UNL     1      46.139   2.712   7.607  0.00  0.00    +0.000 A 
ATOM     16  C   UNL     1      45.718   1.800   8.560  0.00  0.00    +0.000 A 
ATOM     17  N   UNL     1      45.113   2.143   9.720  0.00  0.00    +0.000 NA
ENDBRANCH  11  12
ENDBRANCH   8  11
ENDBRANCH   7   8
ENDBRANCH   1   7
BRANCH   4  18
ATOM     18  C   UNL     1      48.393   8.945  13.975  0.00  0.00    +0.000 C 
BRANCH  18  19
ATOM     19  N   UNL     1      48.327   8.001  15.068  0.00  0.00    +0.000 N 
ATOM     20  C   UNL     1      49.445   7.393  15.579  0.00  0.00    +0.000 C 
ATOM     21  O   UNL     1      50.581   7.659  15.190  0.00  0.00    +0.000 OA
ATOM     22  H   UNL     1      47.437   7.536  15.214  0.00  0.00    +0.000 HD
BRANCH  20  23
ATOM     23  C   UNL     1      49.219   6.457  16.685  0.00  0.00    +0.000 A 
ATOM     24  C   UNL     1      49.803   6.702  17.920  0.00  0.00    +0.000 A 
ATOM     25  S   UNL     1      49.396   5.552  19.109  0.00  0.00    +0.000 S 
ATOM     26  C   UNL     1      48.466   4.655  18.002  0.00  0.00    +0.000 A 
ATOM     27  N   UNL     1      47.843   3.507  18.380  0.00  0.00    +0.000 NA
ATOM     28  C   UNL     1      47.204   2.910  17.431  0.00  0.00    +0.000 A 
ATOM     29  N   UNL     1      47.120   3.361  16.138  0.00  0.00    +0.000 N 
ATOM     30  C   UNL     1      47.696   4.539  15.720  0.00  0.00    +0.000 A 
ATOM     31  O   UNL     1      47.552   4.952  14.574  0.00  0.00    +0.000 OA
ATOM     32  C   UNL     1      48.449   5.238  16.746  0.00  0.00    +0.000 A 
ATOM     33  H   UNL     1      46.593   2.851  15.447  0.00  0.00    +0.000 HD
ENDBRANCH  20  23
ENDBRANCH  18  19
ENDBRANCH   4  18
TORSDOF 7
ENDMDL
MODEL 5
REMARK VINA RESULT:    -7.544      3.662      9.683
REMARK INTER + INTRA:         -11.660
REMARK INTER:                 -10.263
REMARK INTRA:                  -1.397
REMARK UNBOUND:                -1.028
REMARK  Name = 
REMARK  8 active torsions:
REMARK  status: ('A' for Active; 'I' for Inactive)
REMARK    1  A    between atoms: C_1  and  C_2
REMARK    2  A    between atoms: C_2  and  N_3
REMARK    3  A    between atoms: C_2  and  C_25
REMARK    4  A    between atoms: N_3  and  C_4
REMARK    5  A    between atoms: C_4  and  C_5
REMARK    6  A    between atoms: C_8  and  C_9
REMARK    7  A    between atoms: C_9  and  N_10
REMARK    8  A    between atoms: C_11  and  C_13
REMARK                            x       y       z     vdW  Elec       q    Type
REMARK                         _______ _______ _______ _____ _____    ______ ____
ROOT
ATOM      1  C   UNL     1      49.380   2.883  18.206  0.00  0.00    +0.000 C 
ATOM      2  C   UNL     1      49.916   4.250  18.659  0.00  0.00    +0.000 C 
ATOM      3  C   UNL     1      49.950   5.266  17.520  0.00  0.00    +0.000 C 
ATOM      4  C   UNL     1      48.577   5.436  16.847  0.00  0.00    +0.000 C 
ATOM      5  C   UNL     1      47.961   4.082  16.456  0.00  0.00    +0.000 C 
ATOM      6  C   UNL     1      47.976   3.080  17.609  0.00  0.00    +0.000 C 
ENDROOT
BRANCH   1   7
ATOM      7  C   UNL     1      50.316   2.144  17.219  0.00  0.00    +0.000 C 
BRANCH   7   8
ATOM      8  N   UNL     1      51.311   1.343  17.933  0.00  0.00    +0.000 NA
ATOM      9  H   UNL     1      51.283   1.582  18.926  0.00  0.00    +0.000 HD
BRANCH   8  11
ATOM     10  C   UNL     1      53.566   0.324  17.495  0.00  0.00    +0.000 C 
ATOM     11  C   UNL     1      52.701   1.589  17.496  0.00  0.00    +0.000 C 
BRANCH  11  12
ATOM     12  C   UNL     1      53.356   2.649  18.386  0.00  0.00    +0.000 A 
ATOM     13  C   UNL     1      53.426   3.979  17.967  0.00  0.00    +0.000 A 
ATOM     14  C   UNL     1      53.974   4.933  18.819  0.00  0.00    +0.000 A 
ATOM     15  C   UNL     1      54.456   4.536  20.057  0.00  0.00    +0.000 A 
ATOM     16  C   UNL     1      54.380   3.194  20.389  0.00  0.00    +0.000 A 
ATOM     17  N   UNL     1      53.845   2.245  19.587  0.00  0.00    +0.000 NA
ENDBRANCH  11  12
ENDBRANCH   8  11
ENDBRANCH   7   8
ENDBRANCH   1   7
BRANCH   4  18
ATOM     18  C   UNL     1      48.650   6.341  15.606  0.00  0.00    +0.000 C 
BRANCH  18  19
ATOM     19  N   UNL     1      47.475   6.217  14.774  0.00  0.00    +0.000 N 
ATOM     20  C   UNL     1      47.551   6.126  13.408  0.00  0.00    +0.000 C 
ATOM     21  O   UNL     1      48.621   6.076  12.805  0.00  0.00    +0.000 OA
ATOM     22  H   UNL     1      46.600   6.546  15.170  0.00  0.00    +0.000 HD
BRANCH  20  23
ATOM     23  C   UNL     1      46.272   6.008  12.699  0.00  0.00    +0.000 A 
ATOM     24  C   UNL     1      45.669   7.146  12.181  0.00  0.00    +0.000 A 
ATOM     25  S   UNL     1      44.221   6.829  11.340  0.00  0.00    +0.000 S 
ATOM     26  C   UNL     1      44.321   5.166  11.685  0.00  0.00    +0.000 A 
ATOM     27  N   UNL     1      43.356   4.305  11.262  0.00  0.00    +0.000 NA
ATOM     28  C   UNL     1      43.539   3.080  11.624  0.00  0.00    +0.000 A 
ATOM     29  N   UNL     1      44.604   2.633  12.364  0.00  0.00    +0.000 N 
ATOM     30  C   UNL     1      45.625   3.458  12.776  0.00  0.00    +0.000 A 
ATOM     31  O   UNL     1      46.599   3.020  13.380  0.00  0.00    +0.000 OA
ATOM     32  C   UNL     1      45.455   4.853  12.413  0.00  0.00    +0.000 A 
ATOM     33  H   UNL     1      44.693   1.658  12.604  0.00  0.00    +0.000 HD
ENDBRANCH  20  23
ENDBRANCH  18  19
ENDBRANCH   4  18
TORSDOF 7
ENDMDL
MODEL 6
REMARK VINA RESULT:    -7.113      3.781      9.830
REMARK INTER + INTRA:         -11.052
REMARK INTER:                  -9.424
REMARK INTRA:                  -1.629
REMARK UNBOUND:                -1.028
REMARK  Name = 
REMARK  8 active torsions:
REMARK  status: ('A' for Active; 'I' for Inactive)
REMARK    1  A    between atoms: C_1  and  C_2
REMARK    2  A    between atoms: C_2  and  N_3
REMARK    3  A    between atoms: C_2  and  C_25
REMARK    4  A    between atoms: N_3  and  C_4
REMARK    5  A    between atoms: C_4  and  C_5
REMARK    6  A    between atoms: C_8  and  C_9
REMARK    7  A    between atoms: C_9  and  N_10
REMARK    8  A    between atoms: C_11  and  C_13
REMARK                            x       y       z     vdW  Elec       q    Type
REMARK                         _______ _______ _______ _____ _____    ______ ____
ROOT
ATOM      1  C   UNL     1      51.402   4.437  18.327  0.00  0.00    +0.000 C 
ATOM      2  C   UNL     1      51.150   3.035  17.752  0.00  0.00    +0.000 C 
ATOM      3  C   UNL     1      49.665   2.753  17.540  0.00  0.00    +0.000 C 
ATOM      4  C   UNL     1      48.990   3.815  16.654  0.00  0.00    +0.000 C 
ATOM      5  C   UNL     1      49.290   5.242  17.142  0.00  0.00    +0.000 C 
ATOM      6  C   UNL     1      50.781   5.476  17.377  0.00  0.00    +0.000 C 
ENDROOT
BRANCH   1   7
ATOM      7  C   UNL     1      50.888   4.617  19.777  0.00  0.00    +0.000 C 
BRANCH   7   8
ATOM      8  N   UNL     1      50.984   6.014  20.202  0.00  0.00    +0.000 NA
ATOM      9  H   UNL     1      51.711   6.098  20.914  0.00  0.00    +0.000 HD
BRANCH   8  11
ATOM     10  C   UNL     1      48.706   5.445  21.098  0.00  0.00    +0.000 C 
ATOM     11  C   UNL     1      49.747   6.535  20.822  0.00  0.00    +0.000 C 
BRANCH  11  12
ATOM     12  C   UNL     1      49.124   7.615  19.933  0.00  0.00    +0.000 A 
ATOM     13  C   UNL     1      47.736   7.726  19.823  0.00  0.00    +0.000 A 
ATOM     14  C   UNL     1      47.195   8.752  19.056  0.00  0.00    +0.000 A 
ATOM     15  C   UNL     1      48.046   9.628  18.400  0.00  0.00    +0.000 A 
ATOM     16  C   UNL     1      49.411   9.435  18.533  0.00  0.00    +0.000 A 
ATOM     17  N   UNL     1      49.969   8.454  19.278  0.00  0.00    +0.000 NA
ENDBRANCH  11  12
ENDBRANCH   8  11
ENDBRANCH   7   8
ENDBRANCH   1   7
BRANCH   4  18
ATOM     18  C   UNL     1      47.467   3.614  16.570  0.00  0.00    +0.000 C 
BRANCH  18  19
ATOM     19  N   UNL     1      46.849   4.530  15.640  0.00  0.00    +0.000 N 
ATOM     20  C   UNL     1      46.760   4.263  14.298  0.00  0.00    +0.000 C 
ATOM     21  O   UNL     1      47.137   3.201  13.807  0.00  0.00    +0.000 OA
ATOM     22  H   UNL     1      46.799   5.504  15.924  0.00  0.00    +0.000 HD
BRANCH  20  23
ATOM     23  C   UNL     1      46.107   5.290  13.479  0.00  0.00    +0.000 A 
ATOM     24  C   UNL     1      46.752   6.499  13.257  0.00  0.00    +0.000 A 
ATOM     25  S   UNL     1      45.885   7.559  12.242  0.00  0.00    +0.000 S 
ATOM     26  C   UNL     1      44.593   6.459  12.106  0.00  0.00    +0.000 A 
ATOM     27  N   UNL     1      43.488   6.767  11.376  0.00  0.00    +0.000 NA
ATOM     28  C   UNL     1      42.571   5.858  11.389  0.00  0.00    +0.000 A 
ATOM     29  N   UNL     1      42.661   4.664  12.058  0.00  0.00    +0.000 N 
ATOM     30  C   UNL     1      43.777   4.292  12.772  0.00  0.00    +0.000 A 
ATOM     31  O   UNL     1      43.857   3.191  13.308  0.00  0.00    +0.000 OA
ATOM     32  C   UNL     1      44.829   5.291  12.808  0.00  0.00    +0.000 A 
ATOM     33  H   UNL     1      41.912   3.992  12.017  0.00  0.00    +0.000 HD
ENDBRANCH  20  23
ENDBRANCH  18  19
ENDBRANCH   4  18
TORSDOF 7
ENDMDL
MODEL 7
REMARK VINA RESULT:    -7.092      3.552      9.143
REMARK INTER + INTRA:         -11.022
REMARK INTER:                  -9.516
REMARK INTRA:                  -1.506
REMARK UNBOUND:                -1.028
REMARK  Name = 
REMARK  8 active torsions:
REMARK  status: ('A' for Active; 'I' for Inactive)
REMARK    1  A    between atoms: C_1  and  C_2
REMARK    2  A    between atoms: C_2  and  N_3
REMARK    3  A    between atoms: C_2  and  C_25
REMARK    4  A    between atoms: N_3  and  C_4
REMARK    5  A    between atoms: C_4  and  C_5
REMARK    6  A    between atoms: C_8  and  C_9
REMARK    7  A    between atoms: C_9  and  N_10
REMARK    8  A    between atoms: C_11  and  C_13
REMARK                            x       y       z     vdW  Elec       q    Type
REMARK                         _______ _______ _______ _____ _____    ______ ____
ROOT
ATOM      1  C   UNL     1      49.608   7.922  16.355  0.00  0.00    +0.000 C 
ATOM      2  C   UNL     1      49.455   6.648  15.508  0.00  0.00    +0.000 C 
ATOM      3  C   UNL     1      48.233   6.702  14.595  0.00  0.00    +0.000 C 
ATOM      4  C   UNL     1      48.239   7.942  13.683  0.00  0.00    +0.000 C 
ATOM      5  C   UNL     1      48.479   9.235  14.480  0.00  0.00    +0.000 C 
ATOM      6  C   UNL     1      49.687   9.132  15.409  0.00  0.00    +0.000 C 
ENDROOT
BRANCH   1   7
ATOM      7  C   UNL     1      48.492   8.103  17.413  0.00  0.00    +0.000 C 
BRANCH   7   8
ATOM      8  N   UNL     1      48.829   7.414  18.659  0.00  0.00    +0.000 NA
ATOM      9  H   UNL     1      49.720   6.927  18.542  0.00  0.00    +0.000 HD
BRANCH   8  11
ATOM     10  C   UNL     1      47.793   6.147  20.566  0.00  0.00    +0.000 C 
ATOM     11  C   UNL     1      47.850   6.379  19.052  0.00  0.00    +0.000 C 
BRANCH  11  12
ATOM     12  C   UNL     1      48.168   5.056  18.351  0.00  0.00    +0.000 A 
ATOM     13  C   UNL     1      47.200   4.417  17.573  0.00  0.00    +0.000 A 
ATOM     14  C   UNL     1      47.532   3.247  16.899  0.00  0.00    +0.000 A 
ATOM     15  C   UNL     1      48.812   2.730  17.031  0.00  0.00    +0.000 A 
ATOM     16  C   UNL     1      49.708   3.403  17.845  0.00  0.00    +0.000 A 
ATOM     17  N   UNL     1      49.419   4.547  18.506  0.00  0.00    +0.000 NA
ENDBRANCH  11  12
ENDBRANCH   8  11
ENDBRANCH   7   8
ENDBRANCH   1   7
BRANCH   4  18
ATOM     18  C   UNL     1      46.935   8.072  12.878  0.00  0.00    +0.000 C 
BRANCH  18  19
ATOM     19  N   UNL     1      46.344   6.785  12.590  0.00  0.00    +0.000 N 
ATOM     20  C   UNL     1      45.204   6.654  11.841  0.00  0.00    +0.000 C 
ATOM     21  O   UNL     1      44.647   7.612  11.308  0.00  0.00    +0.000 OA
ATOM     22  H   UNL     1      46.572   6.027  13.226  0.00  0.00    +0.000 HD
BRANCH  20  23
ATOM     23  C   UNL     1      44.722   5.284  11.636  0.00  0.00    +0.000 A 
ATOM     24  C   UNL     1      44.036   4.641  12.657  0.00  0.00    +0.000 A 
ATOM     25  S   UNL     1      43.497   3.079  12.239  0.00  0.00    +0.000 S 
ATOM     26  C   UNL     1      44.208   3.187  10.697  0.00  0.00    +0.000 A 
ATOM     27  N   UNL     1      44.134   2.150   9.819  0.00  0.00    +0.000 NA
ATOM     28  C   UNL     1      44.748   2.354   8.702  0.00  0.00    +0.000 A 
ATOM     29  N   UNL     1      45.422   3.503   8.377  0.00  0.00    +0.000 N 
ATOM     30  C   UNL     1      45.485   4.593   9.214  0.00  0.00    +0.000 A 
ATOM     31  O   UNL     1      46.039   5.633   8.872  0.00  0.00    +0.000 OA
ATOM     32  C   UNL     1      44.829   4.406  10.496  0.00  0.00    +0.000 A 
ATOM     33  H   UNL     1      45.871   3.602   7.480  0.00  0.00    +0.000 HD
ENDBRANCH  20  23
ENDBRANCH  18  19
ENDBRANCH   4  18
TORSDOF 7
ENDMDL
MODEL 8
REMARK VINA RESULT:    -6.968      3.648      9.013
REMARK INTER + INTRA:         -10.848
REMARK INTER:                  -9.736
REMARK INTRA:                  -1.113
REMARK UNBOUND:                -1.028
REMARK  Name = 
REMARK  8 active torsions:
REMARK  status: ('A' for Active; 'I' for Inactive)
REMARK    1  A    between atoms: C_1  and  C_2
REMARK    2  A    between atoms: C_2  and  N_3
REMARK    3  A    between atoms: C_2  and  C_25
REMARK    4  A    between atoms: N_3  and  C_4
REMARK    5  A    between atoms: C_4  and  C_5
REMARK    6  A    between atoms: C_8  and  C_9
REMARK    7  A    between atoms: C_9  and  N_10
REMARK    8  A    between atoms: C_11  and  C_13
REMARK                            x       y       z     vdW  Elec       q    Type
REMARK                         _______ _______ _______ _____ _____    ______ ____
ROOT
ATOM      1  C   UNL     1      49.124   7.935  13.952  0.00  0.00    +0.000 C 
ATOM      2  C   UNL     1      49.182   7.613  12.451  0.00  0.00    +0.000 C 
ATOM      3  C   UNL     1      47.802   7.334  11.863  0.00  0.00    +0.000 C 
ATOM      4  C   UNL     1      46.815   8.487  12.115  0.00  0.00    +0.000 C 
ATOM      5  C   UNL     1      46.790   8.904  13.595  0.00  0.00    +0.000 C 
ATOM      6  C   UNL     1      48.189   9.140  14.159  0.00  0.00    +0.000 C 
ENDROOT
BRANCH   1   7
ATOM      7  C   UNL     1      48.698   6.733  14.830  0.00  0.00    +0.000 C 
BRANCH   7   8
ATOM      8  N   UNL     1      49.610   6.556  15.961  0.00  0.00    +0.000 NA
ATOM      9  H   UNL     1      50.424   6.020  15.655  0.00  0.00    +0.000 HD
BRANCH   8  11
ATOM     10  C   UNL     1      49.236   6.473  18.445  0.00  0.00    +0.000 C 
ATOM     11  C   UNL     1      49.025   5.796  17.086  0.00  0.00    +0.000 C 
BRANCH  11  12
ATOM     12  C   UNL     1      49.609   4.382  17.130  0.00  0.00    +0.000 A 
ATOM     13  C   UNL     1      50.897   4.164  17.626  0.00  0.00    +0.000 A 
ATOM     14  C   UNL     1      51.382   2.864  17.710  0.00  0.00    +0.000 A 
ATOM     15  C   UNL     1      50.584   1.814  17.280  0.00  0.00    +0.000 A 
ATOM     16  C   UNL     1      49.330   2.112  16.772  0.00  0.00    +0.000 A 
ATOM     17  N   UNL     1      48.826   3.365  16.686  0.00  0.00    +0.000 NA
ENDBRANCH  11  12
ENDBRANCH   8  11
ENDBRANCH   7   8
ENDBRANCH   1   7
BRANCH   4  18
ATOM     18  C   UNL     1      45.389   8.137  11.658  0.00  0.00    +0.000 C 
BRANCH  18  19
ATOM     19  N   UNL     1      45.242   6.728  11.371  0.00  0.00    +0.000 N 
ATOM     20  C   UNL     1      44.014   6.127  11.265  0.00  0.00    +0.000 C 
ATOM     21  O   UNL     1      42.960   6.755  11.340  0.00  0.00    +0.000 OA
ATOM     22  H   UNL     1      46.033   6.133  11.594  0.00  0.00    +0.000 HD
BRANCH  20  23
ATOM     23  C   UNL     1      44.025   4.690  10.973  0.00  0.00    +0.000 A 
ATOM     24  C   UNL     1      43.291   3.824  11.772  0.00  0.00    +0.000 A 
ATOM     25  S   UNL     1      43.365   2.198  11.265  0.00  0.00    +0.000 S 
ATOM     26  C   UNL     1      44.424   2.587   9.991  0.00  0.00    +0.000 A 
ATOM     27  N   UNL     1      44.904   1.622   9.162  0.00  0.00    +0.000 NA
ATOM     28  C   UNL     1      45.725   2.052   8.263  0.00  0.00    +0.000 A 
ATOM     29  N   UNL     1      46.104   3.361   8.110  0.00  0.00    +0.000 N 
ATOM     30  C   UNL     1      45.611   4.377   8.897  0.00  0.00    +0.000 A 
ATOM     31  O   UNL     1      45.917   5.548   8.697  0.00  0.00    +0.000 OA
ATOM     32  C   UNL     1      44.700   3.942   9.940  0.00  0.00    +0.000 A 
ATOM     33  H   UNL     1      46.742   3.631   7.379  0.00  0.00    +0.000 HD
ENDBRANCH  20  23
ENDBRANCH  18  19
ENDBRANCH   4  18
TORSDOF 7
ENDMDL
MODEL 9
REMARK VINA RESULT:    -6.837      2.418      3.458
REMARK INTER + INTRA:         -10.663
REMARK INTER:                  -9.542
REMARK INTRA:                  -1.121
REMARK UNBOUND:                -1.028
REMARK  Name = 
REMARK  8 active torsions:
REMARK  status: ('A' for Active; 'I' for Inactive)
REMARK    1  A    between atoms: C_1  and  C_2
REMARK    2  A    between atoms: C_2  and  N_3
REMARK    3  A    between atoms: C_2  and  C_25
REMARK    4  A    between atoms: N_3  and  C_4
REMARK    5  A    between atoms: C_4  and  C_5
REMARK    6  A    between atoms: C_8  and  C_9
REMARK    7  A    between atoms: C_9  and  N_10
REMARK    8  A    between atoms: C_11  and  C_13
REMARK                            x       y       z     vdW  Elec       q    Type
REMARK                         _______ _______ _______ _____ _____    ______ ____
ROOT
ATOM      1  C   UNL     1      47.684   7.470  11.755  0.00  0.00    +0.000 C 
ATOM      2  C   UNL     1      47.247   8.735  12.509  0.00  0.00    +0.000 C 
ATOM      3  C   UNL     1      47.290   8.552  14.024  0.00  0.00    +0.000 C 
ATOM      4  C   UNL     1      48.674   8.096  14.519  0.00  0.00    +0.000 C 
ATOM      5  C   UNL     1      49.192   6.882  13.729  0.00  0.00    +0.000 C 
ATOM      6  C   UNL     1      49.101   7.087  12.218  0.00  0.00    +0.000 C 
ENDROOT
BRANCH   1   7
ATOM      7  C   UNL     1      46.700   6.284  11.907  0.00  0.00    +0.000 C 
BRANCH   7   8
ATOM      8  N   UNL     1      45.540   6.445  11.029  0.00  0.00    +0.000 NA
ATOM      9  H   UNL     1      44.992   7.248  11.342  0.00  0.00    +0.000 HD
BRANCH   8  11
ATOM     10  C   UNL     1      44.582   4.565  12.396  0.00  0.00    +0.000 C 
ATOM     11  C   UNL     1      44.615   5.292  11.046  0.00  0.00    +0.000 C 
BRANCH  11  12
ATOM     12  C   UNL     1      44.990   4.296   9.946  0.00  0.00    +0.000 A 
ATOM     13  C   UNL     1      45.652   4.730   8.795  0.00  0.00    +0.000 A 
ATOM     14  C   UNL     1      46.033   3.797   7.837  0.00  0.00    +0.000 A 
ATOM     15  C   UNL     1      45.728   2.459   8.037  0.00  0.00    +0.000 A 
ATOM     16  C   UNL     1      45.042   2.110   9.189  0.00  0.00    +0.000 A 
ATOM     17  N   UNL     1      44.667   2.991  10.143  0.00  0.00    +0.000 NA
ENDBRANCH  11  12
ENDBRANCH   8  11
ENDBRANCH   7   8
ENDBRANCH   1   7
BRANCH   4  18
ATOM     18  C   UNL     1      48.669   7.764  16.020  0.00  0.00    +0.000 C 
BRANCH  18  19
ATOM     19  N   UNL     1      49.660   6.767  16.359  0.00  0.00    +0.000 N 
ATOM     20  C   UNL     1      49.996   6.480  17.657  0.00  0.00    +0.000 C 
ATOM     21  O   UNL     1      49.433   7.000  18.618  0.00  0.00    +0.000 OA
ATOM     22  H   UNL     1      50.341   6.540  15.641  0.00  0.00    +0.000 HD
BRANCH  20  23
ATOM     23  C   UNL     1      51.020   5.446  17.842  0.00  0.00    +0.000 A 
ATOM     24  C   UNL     1      52.276   5.804  18.312  0.00  0.00    +0.000 A 
ATOM     25  S   UNL     1      53.329   4.480  18.523  0.00  0.00    +0.000 S 
ATOM     26  C   UNL     1      52.159   3.388  17.945  0.00  0.00    +0.000 A 
ATOM     27  N   UNL     1      52.433   2.059  17.845  0.00  0.00    +0.000 NA
ATOM     28  C   UNL     1      51.469   1.353  17.357  0.00  0.00    +0.000 A 
ATOM     29  N   UNL     1      50.252   1.850  16.968  0.00  0.00    +0.000 N 
ATOM     30  C   UNL     1      49.915   3.179  17.092  0.00  0.00    +0.000 A 
ATOM     31  O   UNL     1      48.796   3.586  16.797  0.00  0.00    +0.000 OA
ATOM     32  C   UNL     1      50.974   4.022  17.615  0.00  0.00    +0.000 A 
ATOM     33  H   UNL     1      49.537   1.240  16.605  0.00  0.00    +0.000 HD
ENDBRANCH  20  23
ENDBRANCH  18  19
ENDBRANCH   4  18
TORSDOF 7
ENDMDL
