MODEL 1
REMARK VINA RESULT:    -8.510      0.000      0.000
REMARK INTER + INTRA:         -11.766
REMARK INTER:                 -10.997
REMARK INTRA:                  -0.768
REMARK UNBOUND:                -0.768
REMARK  Name = 
REMARK  5 active torsions:
REMARK  status: ('A' for Active; 'I' for Inactive)
REMARK    1  A    between atoms: C_2  and  C_4
REMARK    2  A    between atoms: C_7  and  O_8
REMARK    3  A    between atoms: O_8  and  C_9
REMARK    4  A    between atoms: C_9  and  C_10
REMARK    5  A    between atoms: C_14  and  C_15
REMARK                            x       y       z     vdW  Elec       q    Type
REMARK                         _______ _______ _______ _____ _____    ______ ____
ROOT
ATOM      1  C   UNL     1      43.798   5.147  10.693  0.00  0.00    +0.000 C 
ENDROOT
BRANCH   1   2
ATOM      2  C   UNL     1      44.881   5.074  11.737  0.00  0.00    +0.000 A 
ATOM      3  C   UNL     1      44.779   4.177  12.792  0.00  0.00    +0.000 A 
ATOM      4  N   UNL     1      45.680   4.085  13.792  0.00  0.00    +0.000 NA
ATOM      5  C   UNL     1      46.734   4.938  13.741  0.00  0.00    +0.000 A 
ATOM      6  C   UNL     1      46.952   5.891  12.744  0.00  0.00    +0.000 A 
ATOM      7  C   UNL     1      45.979   5.941  11.734  0.00  0.00    +0.000 A 
BRANCH   6   8
ATOM      8  C   UNL     1      48.127   6.782  12.737  0.00  0.00    +0.000 A 
ATOM      9  C   UNL     1      48.522   7.495  11.595  0.00  0.00    +0.000 A 
ATOM     10  C   UNL     1      49.623   8.351  11.634  0.00  0.00    +0.000 A 
ATOM     11  C   UNL     1      50.310   8.484  12.826  0.00  0.00    +0.000 A 
ATOM     12  N   UNL     1      49.981   7.822  13.952  0.00  0.00    +0.000 NA
ATOM     13  C   UNL     1      48.911   6.992  13.876  0.00  0.00    +0.000 A 
ENDBRANCH   6   8
ENDBRANCH   1   2
BRANCH   1  14
ATOM     14  O   UNL     1      43.535   3.849  10.147  0.00  0.00    +0.000 OA
BRANCH  14  18
ATOM     15  C   UNL     1      46.431   2.598   7.507  0.00  0.00    +0.000 A 
ATOM     16  C   UNL     1      45.905   1.694   8.431  0.00  0.00    +0.000 A 
ATOM     17  C   UNL     1      44.928   2.129   9.328  0.00  0.00    +0.000 A 
ATOM     18  C   UNL     1      44.515   3.453   9.264  0.00  0.00    +0.000 A 
ATOM     19  N   UNL     1      45.019   4.350   8.390  0.00  0.00    +0.000 NA
ATOM     20  C   UNL     1      45.974   3.909   7.539  0.00  0.00    +0.000 A 
BRANCH  15  22
ATOM     21  N   UNL     1      47.507   2.993   5.366  0.00  0.00    +0.000 N 
ATOM     22  C   UNL     1      47.457   2.243   6.506  0.00  0.00    +0.000 C 
ATOM     23  O   UNL     1      48.263   1.343   6.710  0.00  0.00    +0.000 OA
ATOM     24  H   UNL     1      48.290   2.815   4.750  0.00  0.00    +0.000 HD
ATOM     25  H   UNL     1      47.048   3.890   5.286  0.00  0.00    +0.000 HD
ENDBRANCH  15  22
ENDBRANCH  14  18
ENDBRANCH   1  14
TORSDOF 5
ENDMDL
MODEL 2
REMARK VINA RESULT:    -7.909      1.365      1.978
REMARK INTER + INTRA:         -10.989
REMARK INTER:                 -10.309
REMARK INTRA:                  -0.680
REMARK UNBOUND:                -0.768
REMARK  Name = 
REMARK  5 active torsions:
REMARK  status: ('A' for Active; 'I' for Inactive)
REMARK    1  A    between atoms: C_2  and  C_4
REMARK    2  A    between atoms: C_7  and  O_8
REMARK    3  A    between atoms: O_8  and  C_9
REMARK    4  A    between atoms: C_9  and  C_10
REMARK    5  A    between atoms: C_14  and  C_15
REMARK                            x       y       z     vdW  Elec       q    Type
REMARK                         _______ _______ _______ _____ _____    ______ ____
ROOT
ATOM      1  C   UNL     1      44.234   3.355  11.571  0.00  0.00    +0.000 C 
ENDROOT
BRANCH   1   2
ATOM      2  C   UNL     1      44.598   4.807  11.730  0.00  0.00    +0.000 A 
ATOM      3  C   UNL     1      43.661   5.799  11.472  0.00  0.00    +0.000 A 
ATOM      4  N   UNL     1      43.923   7.120  11.543  0.00  0.00    +0.000 NA
ATOM      5  C   UNL     1      45.189   7.472  11.881  0.00  0.00    +0.000 A 
ATOM      6  C   UNL     1      46.226   6.579  12.158  0.00  0.00    +0.000 A 
ATOM      7  C   UNL     1      45.894   5.219  12.063  0.00  0.00    +0.000 A 
BRANCH   6   8
ATOM      8  C   UNL     1      47.581   7.023  12.534  0.00  0.00    +0.000 A 
ATOM      9  C   UNL     1      48.088   6.872  13.834  0.00  0.00    +0.000 A 
ATOM     10  C   UNL     1      49.385   7.279  14.145  0.00  0.00    +0.000 A 
ATOM     11  C   UNL     1      50.160   7.827  13.141  0.00  0.00    +0.000 A 
ATOM     12  N   UNL     1      49.728   8.001  11.878  0.00  0.00    +0.000 NA
ATOM     13  C   UNL     1      48.459   7.603  11.612  0.00  0.00    +0.000 A 
ENDBRANCH   6   8
ENDBRANCH   1   2
BRANCH   1  14
ATOM     14  O   UNL     1      43.640   3.122  10.287  0.00  0.00    +0.000 OA
BRANCH  14  18
ATOM     15  C   UNL     1      46.499   2.596   7.376  0.00  0.00    +0.000 A 
ATOM     16  C   UNL     1      45.885   3.841   7.520  0.00  0.00    +0.000 A 
ATOM     17  C   UNL     1      44.910   4.009   8.506  0.00  0.00    +0.000 A 
ATOM     18  C   UNL     1      44.590   2.922   9.309  0.00  0.00    +0.000 A 
ATOM     19  N   UNL     1      45.159   1.704   9.179  0.00  0.00    +0.000 NA
ATOM     20  C   UNL     1      46.091   1.563   8.209  0.00  0.00    +0.000 A 
BRANCH  15  22
ATOM     21  N   UNL     1      47.495   3.003   5.199  0.00  0.00    +0.000 N 
ATOM     22  C   UNL     1      47.548   2.312   6.377  0.00  0.00    +0.000 C 
ATOM     23  O   UNL     1      48.458   1.526   6.613  0.00  0.00    +0.000 OA
ATOM     24  H   UNL     1      48.288   2.886   4.580  0.00  0.00    +0.000 HD
ATOM     25  H   UNL     1      46.932   3.833   5.081  0.00  0.00    +0.000 HD
ENDBRANCH  15  22
ENDBRANCH  14  18
ENDBRANCH   1  14
TORSDOF 5
ENDMDL
MODEL 3
REMARK VINA RESULT:    -7.527      1.950      2.931
REMARK INTER + INTRA:         -10.496
REMARK INTER:                 -10.066
REMARK INTRA:                  -0.430
REMARK UNBOUND:                -0.768
REMARK  Name = 
REMARK  5 active torsions:
REMARK  status: ('A' for Active; 'I' for Inactive)
REMARK    1  A    between atoms: C_2  and  C_4
REMARK    2  A    between atoms: C_7  and  O_8
REMARK    3  A    between atoms: O_8  and  C_9
REMARK    4  A    between atoms: C_9  and  C_10
REMARK    5  A    between atoms: C_14  and  C_15
REMARK                            x       y       z     vdW  Elec       q    Type
REMARK                         _______ _______ _______ _____ _____    ______ ____
ROOT
ATOM      1  C   UNL     1      43.753   5.079  10.592  0.00  0.00    +0.000 C 
ENDROOT
BRANCH   1   2
ATOM      2  C   UNL     1      44.679   5.835  11.507  0.00  0.00    +0.000 A 
ATOM      3  C   UNL     1      44.889   7.196  11.324  0.00  0.00    +0.000 A 
ATOM      4  N   UNL     1      45.739   7.934  12.069  0.00  0.00    +0.000 NA
ATOM      5  C   UNL     1      46.421   7.279  13.041  0.00  0.00    +0.000 A 
ATOM      6  C   UNL     1      46.311   5.916  13.325  0.00  0.00    +0.000 A 
ATOM      7  C   UNL     1      45.415   5.201  12.515  0.00  0.00    +0.000 A 
BRANCH   6   8
ATOM      8  C   UNL     1      47.071   5.262  14.406  0.00  0.00    +0.000 A 
ATOM      9  C   UNL     1      47.864   5.984  15.310  0.00  0.00    +0.000 A 
ATOM     10  C   UNL     1      48.546   5.333  16.338  0.00  0.00    +0.000 A 
ATOM     11  C   UNL     1      48.416   3.962  16.447  0.00  0.00    +0.000 A 
ATOM     12  N   UNL     1      47.675   3.216  15.607  0.00  0.00    +0.000 NA
ATOM     13  C   UNL     1      47.031   3.879  14.614  0.00  0.00    +0.000 A 
ENDBRANCH   6   8
ENDBRANCH   1   2
BRANCH   1  14
ATOM     14  O   UNL     1      44.074   3.681  10.594  0.00  0.00    +0.000 OA
BRANCH  14  18
ATOM     15  C   UNL     1      46.558   2.731   7.455  0.00  0.00    +0.000 A 
ATOM     16  C   UNL     1      46.206   4.063   7.675  0.00  0.00    +0.000 A 
ATOM     17  C   UNL     1      45.356   4.376   8.738  0.00  0.00    +0.000 A 
ATOM     18  C   UNL     1      44.894   3.341   9.540  0.00  0.00    +0.000 A 
ATOM     19  N   UNL     1      45.209   2.044   9.339  0.00  0.00    +0.000 NA
ATOM     20  C   UNL     1      46.023   1.764   8.295  0.00  0.00    +0.000 A 
BRANCH  15  22
ATOM     21  N   UNL     1      47.382   2.959   5.182  0.00  0.00    +0.000 N 
ATOM     22  C   UNL     1      47.459   2.290   6.371  0.00  0.00    +0.000 C 
ATOM     23  O   UNL     1      48.275   1.393   6.544  0.00  0.00    +0.000 OA
ATOM     24  H   UNL     1      48.087   2.726   4.495  0.00  0.00    +0.000 HD
ATOM     25  H   UNL     1      46.924   3.855   5.092  0.00  0.00    +0.000 HD
ENDBRANCH  15  22
ENDBRANCH  14  18
ENDBRANCH   1  14
TORSDOF 5
ENDMDL
MODEL 4
REMARK VINA RESULT:    -7.370      2.546      6.987
REMARK INTER + INTRA:         -10.292
REMARK INTER:                  -9.677
REMARK INTRA:                  -0.615
REMARK UNBOUND:                -0.768
REMARK  Name = 
REMARK  5 active torsions:
REMARK  status: ('A' for Active; 'I' for Inactive)
REMARK    1  A    between atoms: C_2  and  C_4
REMARK    2  A    between atoms: C_7  and  O_8
REMARK    3  A    between atoms: O_8  and  C_9
REMARK    4  A    between atoms: C_9  and  C_10
REMARK    5  A    between atoms: C_14  and  C_15
REMARK                            x       y       z     vdW  Elec       q    Type
REMARK                         _______ _______ _______ _____ _____    ______ ____
ROOT
ATOM      1  C   UNL     1      44.051   6.523  11.494  0.00  0.00    +0.000 C 
ENDROOT
BRANCH   1   2
ATOM      2  C   UNL     1      44.032   5.096  11.013  0.00  0.00    +0.000 A 
ATOM      3  C   UNL     1      43.264   4.144  11.670  0.00  0.00    +0.000 A 
ATOM      4  N   UNL     1      43.231   2.839  11.332  0.00  0.00    +0.000 NA
ATOM      5  C   UNL     1      44.014   2.460  10.291  0.00  0.00    +0.000 A 
ATOM      6  C   UNL     1      44.838   3.311   9.552  0.00  0.00    +0.000 A 
ATOM      7  C   UNL     1      44.832   4.656   9.952  0.00  0.00    +0.000 A 
BRANCH   6   8
ATOM      8  C   UNL     1      45.657   2.842   8.418  0.00  0.00    +0.000 A 
ATOM      9  C   UNL     1      46.076   3.697   7.389  0.00  0.00    +0.000 A 
ATOM     10  C   UNL     1      46.874   3.223   6.348  0.00  0.00    +0.000 A 
ATOM     11  C   UNL     1      47.245   1.892   6.359  0.00  0.00    +0.000 A 
ATOM     12  N   UNL     1      46.869   1.022   7.315  0.00  0.00    +0.000 NA
ATOM     13  C   UNL     1      46.087   1.515   8.309  0.00  0.00    +0.000 A 
ENDBRANCH   6   8
ENDBRANCH   1   2
BRANCH   1  14
ATOM     14  O   UNL     1      45.223   7.199  11.019  0.00  0.00    +0.000 OA
BRANCH  14  18
ATOM     15  C   UNL     1      48.089   7.470  13.958  0.00  0.00    +0.000 A 
ATOM     16  C   UNL     1      47.147   8.490  13.820  0.00  0.00    +0.000 A 
ATOM     17  C   UNL     1      46.182   8.394  12.815  0.00  0.00    +0.000 A 
ATOM     18  C   UNL     1      46.199   7.278  11.989  0.00  0.00    +0.000 A 
ATOM     19  N   UNL     1      47.109   6.286  12.093  0.00  0.00    +0.000 NA
ATOM     20  C   UNL     1      48.041   6.408  13.066  0.00  0.00    +0.000 A 
BRANCH  15  22
ATOM     21  N   UNL     1      49.512   8.670  15.518  0.00  0.00    +0.000 N 
ATOM     22  C   UNL     1      49.143   7.464  14.992  0.00  0.00    +0.000 C 
ATOM     23  O   UNL     1      49.633   6.417  15.398  0.00  0.00    +0.000 OA
ATOM     24  H   UNL     1      50.144   8.636  16.307  0.00  0.00    +0.000 HD
ATOM     25  H   UNL     1      48.954   9.505  15.406  0.00  0.00    +0.000 HD
ENDBRANCH  15  22
ENDBRANCH  14  18
ENDBRANCH   1  14
TORSDOF 5
ENDMDL
MODEL 5
REMARK VINA RESULT:    -6.932      2.713      6.739
REMARK INTER + INTRA:          -9.727
REMARK INTER:                  -9.004
REMARK INTRA:                  -0.723
REMARK UNBOUND:                -0.768
REMARK  Name = 
REMARK  5 active torsions:
REMARK  status: ('A' for Active; 'I' for Inactive)
REMARK    1  A    between atoms: C_2  and  C_4
REMARK    2  A    between atoms: C_7  and  O_8
REMARK    3  A    between atoms: O_8  and  C_9
REMARK    4  A    between atoms: C_9  and  C_10
REMARK    5  A    between atoms: C_14  and  C_15
REMARK                            x       y       z     vdW  Elec       q    Type
REMARK                         _______ _______ _______ _____ _____    ______ ____
ROOT
ATOM      1  C   UNL     1      44.717   5.760  12.865  0.00  0.00    +0.000 C 
ENDROOT
BRANCH   1   2
ATOM      2  C   UNL     1      44.409   4.575  11.989  0.00  0.00    +0.000 A 
ATOM      3  C   UNL     1      43.432   3.661  12.361  0.00  0.00    +0.000 A 
ATOM      4  N   UNL     1      43.132   2.551  11.657  0.00  0.00    +0.000 NA
ATOM      5  C   UNL     1      43.850   2.334  10.527  0.00  0.00    +0.000 A 
ATOM      6  C   UNL     1      44.863   3.166  10.044  0.00  0.00    +0.000 A 
ATOM      7  C   UNL     1      45.131   4.304  10.821  0.00  0.00    +0.000 A 
BRANCH   6   8
ATOM      8  C   UNL     1      45.600   2.885   8.798  0.00  0.00    +0.000 A 
ATOM      9  C   UNL     1      45.917   3.887   7.870  0.00  0.00    +0.000 A 
ATOM     10  C   UNL     1      46.641   3.588   6.716  0.00  0.00    +0.000 A 
ATOM     11  C   UNL     1      47.042   2.281   6.513  0.00  0.00    +0.000 A 
ATOM     12  N   UNL     1      46.762   1.276   7.365  0.00  0.00    +0.000 NA
ATOM     13  C   UNL     1      46.050   1.601   8.473  0.00  0.00    +0.000 A 
ENDBRANCH   6   8
ENDBRANCH   1   2
BRANCH   1  14
ATOM     14  O   UNL     1      46.087   5.733  13.287  0.00  0.00    +0.000 OA
BRANCH  14  18
ATOM     15  C   UNL     1      48.210   8.977  11.910  0.00  0.00    +0.000 A 
ATOM     16  C   UNL     1      48.840   7.736  12.015  0.00  0.00    +0.000 A 
ATOM     17  C   UNL     1      48.114   6.642  12.491  0.00  0.00    +0.000 A 
ATOM     18  C   UNL     1      46.784   6.835  12.841  0.00  0.00    +0.000 A 
ATOM     19  N   UNL     1      46.157   8.027  12.761  0.00  0.00    +0.000 NA
ATOM     20  C   UNL     1      46.884   9.075  12.310  0.00  0.00    +0.000 A 
BRANCH  15  22
ATOM     21  N   UNL     1      50.230  10.285  11.586  0.00  0.00    +0.000 N 
ATOM     22  C   UNL     1      48.878  10.194  11.409  0.00  0.00    +0.000 C 
ATOM     23  O   UNL     1      48.255  11.066  10.815  0.00  0.00    +0.000 OA
ATOM     24  H   UNL     1      50.686  11.065  11.130  0.00  0.00    +0.000 HD
ATOM     25  H   UNL     1      50.801   9.486  11.822  0.00  0.00    +0.000 HD
ENDBRANCH  15  22
ENDBRANCH  14  18
ENDBRANCH   1  14
TORSDOF 5
ENDMDL
MODEL 6
REMARK VINA RESULT:    -6.710      3.526      7.881
REMARK INTER + INTRA:          -9.439
REMARK INTER:                  -8.971
REMARK INTRA:                  -0.468
REMARK UNBOUND:                -0.768
REMARK  Name = 
REMARK  5 active torsions:
REMARK  status: ('A' for Active; 'I' for Inactive)
REMARK    1  A    between atoms: C_2  and  C_4
REMARK    2  A    between atoms: C_7  and  O_8
REMARK    3  A    between atoms: O_8  and  C_9
REMARK    4  A    between atoms: C_9  and  C_10
REMARK    5  A    between atoms: C_14  and  C_15
REMARK                            x       y       z     vdW  Elec       q    Type
REMARK                         _______ _______ _______ _____ _____    ______ ____
ROOT
ATOM      1  C   UNL     1      45.361   4.492  13.619  0.00  0.00    +0.000 C 
ENDROOT
BRANCH   1   2
ATOM      2  C   UNL     1      44.839   4.523  12.207  0.00  0.00    +0.000 A 
ATOM      3  C   UNL     1      43.651   5.178  11.912  0.00  0.00    +0.000 A 
ATOM      4  N   UNL     1      43.093   5.209  10.684  0.00  0.00    +0.000 NA
ATOM      5  C   UNL     1      43.750   4.545   9.700  0.00  0.00    +0.000 A 
ATOM      6  C   UNL     1      44.945   3.841   9.863  0.00  0.00    +0.000 A 
ATOM      7  C   UNL     1      45.474   3.842  11.162  0.00  0.00    +0.000 A 
BRANCH   6   8
ATOM      8  C   UNL     1      45.620   3.149   8.749  0.00  0.00    +0.000 A 
ATOM      9  C   UNL     1      46.115   3.832   7.629  0.00  0.00    +0.000 A 
ATOM     10  C   UNL     1      46.774   3.146   6.609  0.00  0.00    +0.000 A 
ATOM     11  C   UNL     1      46.932   1.779   6.732  0.00  0.00    +0.000 A 
ATOM     12  N   UNL     1      46.473   1.068   7.780  0.00  0.00    +0.000 NA
ATOM     13  C   UNL     1      45.831   1.766   8.750  0.00  0.00    +0.000 A 
ENDBRANCH   6   8
ENDBRANCH   1   2
BRANCH   1  14
ATOM     14  O   UNL     1      46.649   5.116  13.695  0.00  0.00    +0.000 OA
BRANCH  14  18
ATOM     15  C   UNL     1      48.561   4.334  17.253  0.00  0.00    +0.000 A 
ATOM     16  C   UNL     1      48.764   5.560  16.618  0.00  0.00    +0.000 A 
ATOM     17  C   UNL     1      48.117   5.814  15.406  0.00  0.00    +0.000 A 
ATOM     18  C   UNL     1      47.291   4.830  14.881  0.00  0.00    +0.000 A 
ATOM     19  N   UNL     1      47.090   3.631  15.468  0.00  0.00    +0.000 NA
ATOM     20  C   UNL     1      47.737   3.403  16.634  0.00  0.00    +0.000 A 
BRANCH  15  22
ATOM     21  N   UNL     1      50.518   3.675  18.530  0.00  0.00    +0.000 N 
ATOM     22  C   UNL     1      49.183   3.966  18.540  0.00  0.00    +0.000 C 
ATOM     23  O   UNL     1      48.541   3.969  19.584  0.00  0.00    +0.000 OA
ATOM     24  H   UNL     1      50.951   3.545  19.435  0.00  0.00    +0.000 HD
ATOM     25  H   UNL     1      51.121   3.919  17.757  0.00  0.00    +0.000 HD
ENDBRANCH  15  22
ENDBRANCH  14  18
ENDBRANCH   1  14
TORSDOF 5
ENDMDL
MODEL 7
REMARK VINA RESULT:    -6.581      4.630      8.066
REMARK INTER + INTRA:          -9.272
REMARK INTER:                  -8.581
REMARK INTRA:                  -0.691
REMARK UNBOUND:                -0.768
REMARK  Name = 
REMARK  5 active torsions:
REMARK  status: ('A' for Active; 'I' for Inactive)
REMARK    1  A    between atoms: C_2  and  C_4
REMARK    2  A    between atoms: C_7  and  O_8
REMARK    3  A    between atoms: O_8  and  C_9
REMARK    4  A    between atoms: C_9  and  C_10
REMARK    5  A    between atoms: C_14  and  C_15
REMARK                            x       y       z     vdW  Elec       q    Type
REMARK                         _______ _______ _______ _____ _____    ______ ____
ROOT
ATOM      1  C   UNL     1      48.794   6.547  15.810  0.00  0.00    +0.000 C 
ENDROOT
BRANCH   1   2
ATOM      2  C   UNL     1      48.282   6.575  14.395  0.00  0.00    +0.000 A 
ATOM      3  C   UNL     1      48.826   7.455  13.468  0.00  0.00    +0.000 A 
ATOM      4  N   UNL     1      48.390   7.577  12.198  0.00  0.00    +0.000 NA
ATOM      5  C   UNL     1      47.350   6.785  11.834  0.00  0.00    +0.000 A 
ATOM      6  C   UNL     1      46.707   5.866  12.666  0.00  0.00    +0.000 A 
ATOM      7  C   UNL     1      47.203   5.788  13.976  0.00  0.00    +0.000 A 
BRANCH   6   8
ATOM      8  C   UNL     1      45.588   5.021  12.207  0.00  0.00    +0.000 A 
ATOM      9  C   UNL     1      44.929   5.244  10.989  0.00  0.00    +0.000 A 
ATOM     10  C   UNL     1      43.893   4.406  10.576  0.00  0.00    +0.000 A 
ATOM     11  C   UNL     1      43.538   3.349  11.392  0.00  0.00    +0.000 A 
ATOM     12  N   UNL     1      44.129   3.089  12.573  0.00  0.00    +0.000 NA
ATOM     13  C   UNL     1      45.128   3.928  12.948  0.00  0.00    +0.000 A 
ENDBRANCH   6   8
ENDBRANCH   1   2
BRANCH   1  14
ATOM     14  O   UNL     1      48.199   5.466  16.540  0.00  0.00    +0.000 OA
BRANCH  14  18
ATOM     15  C   UNL     1      50.897   2.475  17.373  0.00  0.00    +0.000 A 
ATOM     16  C   UNL     1      49.588   2.142  17.023  0.00  0.00    +0.000 A 
ATOM     17  C   UNL     1      48.677   3.164  16.749  0.00  0.00    +0.000 A 
ATOM     18  C   UNL     1      49.114   4.479  16.836  0.00  0.00    +0.000 A 
ATOM     19  N   UNL     1      50.371   4.826  17.188  0.00  0.00    +0.000 NA
ATOM     20  C   UNL     1      51.232   3.819  17.461  0.00  0.00    +0.000 A 
BRANCH  15  22
ATOM     21  N   UNL     1      51.533   0.255  18.126  0.00  0.00    +0.000 N 
ATOM     22  C   UNL     1      51.944   1.476  17.671  0.00  0.00    +0.000 C 
ATOM     23  O   UNL     1      53.129   1.714  17.471  0.00  0.00    +0.000 OA
ATOM     24  H   UNL     1      52.252  -0.453  18.207  0.00  0.00    +0.000 HD
ATOM     25  H   UNL     1      50.577  -0.060  18.047  0.00  0.00    +0.000 HD
ENDBRANCH  15  22
ENDBRANCH  14  18
ENDBRANCH   1  14
TORSDOF 5
ENDMDL
MODEL 8
REMARK VINA RESULT:    -6.331      3.804      8.113
REMARK INTER + INTRA:          -8.950
REMARK INTER:                  -8.230
REMARK INTRA:                  -0.720
REMARK UNBOUND:                -0.768
REMARK  Name = 
REMARK  5 active torsions:
REMARK  status: ('A' for Active; 'I' for Inactive)
REMARK    1  A    between atoms: C_2  and  C_4
REMARK    2  A    between atoms: C_7  and  O_8
REMARK    3  A    between atoms: O_8  and  C_9
REMARK    4  A    between atoms: C_9  and  C_10
REMARK    5  A    between atoms: C_14  and  C_15
REMARK                            x       y       z     vdW  Elec       q    Type
REMARK                         _______ _______ _______ _____ _____    ______ ____
ROOT
ATOM      1  C   UNL     1      48.422   7.739  13.258  0.00  0.00    +0.000 C 
ENDROOT
BRANCH   1   2
ATOM      2  C   UNL     1      47.110   7.606  12.532  0.00  0.00    +0.000 A 
ATOM      3  C   UNL     1      46.154   8.609  12.620  0.00  0.00    +0.000 A 
ATOM      4  N   UNL     1      44.938   8.544  12.041  0.00  0.00    +0.000 NA
ATOM      5  C   UNL     1      44.655   7.414  11.345  0.00  0.00    +0.000 A 
ATOM      6  C   UNL     1      45.520   6.329  11.185  0.00  0.00    +0.000 A 
ATOM      7  C   UNL     1      46.769   6.455  11.813  0.00  0.00    +0.000 A 
BRANCH   6   8
ATOM      8  C   UNL     1      45.161   5.132  10.403  0.00  0.00    +0.000 A 
ATOM      9  C   UNL     1      45.663   4.897   9.115  0.00  0.00    +0.000 A 
ATOM     10  C   UNL     1      45.323   3.738   8.417  0.00  0.00    +0.000 A 
ATOM     11  C   UNL     1      44.484   2.825   9.028  0.00  0.00    +0.000 A 
ATOM     12  N   UNL     1      43.967   2.999  10.259  0.00  0.00    +0.000 NA
ATOM     13  C   UNL     1      44.312   4.140  10.906  0.00  0.00    +0.000 A 
ENDBRANCH   6   8
ENDBRANCH   1   2
BRANCH   1  14
ATOM     14  O   UNL     1      48.924   6.450  13.633  0.00  0.00    +0.000 OA
BRANCH  14  18
ATOM     15  C   UNL     1      48.183   5.682  17.606  0.00  0.00    +0.000 A 
ATOM     16  C   UNL     1      48.828   6.865  17.243  0.00  0.00    +0.000 A 
ATOM     17  C   UNL     1      49.083   7.114  15.892  0.00  0.00    +0.000 A 
ATOM     18  C   UNL     1      48.679   6.168  14.960  0.00  0.00    +0.000 A 
ATOM     19  N   UNL     1      48.066   5.010  15.287  0.00  0.00    +0.000 NA
ATOM     20  C   UNL     1      47.842   4.786  16.603  0.00  0.00    +0.000 A 
BRANCH  15  22
ATOM     21  N   UNL     1      48.214   4.079  19.430  0.00  0.00    +0.000 N 
ATOM     22  C   UNL     1      47.853   5.325  19.001  0.00  0.00    +0.000 C 
ATOM     23  O   UNL     1      47.322   6.129  19.758  0.00  0.00    +0.000 OA
ATOM     24  H   UNL     1      48.091   3.897  20.418  0.00  0.00    +0.000 HD
ATOM     25  H   UNL     1      48.877   3.504  18.930  0.00  0.00    +0.000 HD
ENDBRANCH  15  22
ENDBRANCH  14  18
ENDBRANCH   1  14
TORSDOF 5
ENDMDL
MODEL 9
REMARK VINA RESULT:    -6.317      4.913      6.878
REMARK INTER + INTRA:          -8.932
REMARK INTER:                  -8.382
REMARK INTRA:                  -0.550
REMARK UNBOUND:                -0.768
REMARK  Name = 
REMARK  5 active torsions:
REMARK  status: ('A' for Active; 'I' for Inactive)
REMARK    1  A    between atoms: C_2  and  C_4
REMARK    2  A    between atoms: C_7  and  O_8
REMARK    3  A    between atoms: O_8  and  C_9
REMARK    4  A    between atoms: C_9  and  C_10
REMARK    5  A    between atoms: C_14  and  C_15
REMARK                            x       y       z     vdW  Elec       q    Type
REMARK                         _______ _______ _______ _____ _____    ______ ____
ROOT
ATOM      1  C   UNL     1      47.157   3.930  16.098  0.00  0.00    +0.000 C 
ENDROOT
BRANCH   1   2
ATOM      2  C   UNL     1      48.393   4.266  16.889  0.00  0.00    +0.000 A 
ATOM      3  C   UNL     1      48.531   5.515  17.478  0.00  0.00    +0.000 A 
ATOM      4  N   UNL     1      49.627   5.910  18.159  0.00  0.00    +0.000 NA
ATOM      5  C   UNL     1      50.642   5.014  18.250  0.00  0.00    +0.000 A 
ATOM      6  C   UNL     1      50.636   3.731  17.698  0.00  0.00    +0.000 A 
ATOM      7  C   UNL     1      49.471   3.380  16.999  0.00  0.00    +0.000 A 
BRANCH   6   8
ATOM      8  C   UNL     1      51.767   2.796  17.843  0.00  0.00    +0.000 A 
ATOM      9  C   UNL     1      53.074   3.232  18.107  0.00  0.00    +0.000 A 
ATOM     10  C   UNL     1      54.113   2.315  18.265  0.00  0.00    +0.000 A 
ATOM     11  C   UNL     1      53.822   0.968  18.162  0.00  0.00    +0.000 A 
ATOM     12  N   UNL     1      52.590   0.491  17.904  0.00  0.00    +0.000 NA
ATOM     13  C   UNL     1      51.604   1.410  17.748  0.00  0.00    +0.000 A 
ENDBRANCH   6   8
ENDBRANCH   1   2
BRANCH   1  14
ATOM     14  O   UNL     1      47.507   3.451  14.793  0.00  0.00    +0.000 OA
BRANCH  14  18
ATOM     15  C   UNL     1      44.885   4.781  11.916  0.00  0.00    +0.000 A 
ATOM     16  C   UNL     1      45.530   5.705  12.739  0.00  0.00    +0.000 A 
ATOM     17  C   UNL     1      46.412   5.245  13.718  0.00  0.00    +0.000 A 
ATOM     18  C   UNL     1      46.615   3.876  13.832  0.00  0.00    +0.000 A 
ATOM     19  N   UNL     1      45.992   2.962  13.058  0.00  0.00    +0.000 NA
ATOM     20  C   UNL     1      45.132   3.431  12.125  0.00  0.00    +0.000 A 
BRANCH  15  22
ATOM     21  N   UNL     1      43.289   6.350  10.974  0.00  0.00    +0.000 N 
ATOM     22  C   UNL     1      43.943   5.158  10.842  0.00  0.00    +0.000 C 
ATOM     23  O   UNL     1      43.791   4.456   9.850  0.00  0.00    +0.000 OA
ATOM     24  H   UNL     1      42.743   6.648  10.174  0.00  0.00    +0.000 HD
ATOM     25  H   UNL     1      43.583   7.063  11.626  0.00  0.00    +0.000 HD
ENDBRANCH  15  22
ENDBRANCH  14  18
ENDBRANCH   1  14
TORSDOF 5
ENDMDL
