MODEL 1
REMARK VINA RESULT:    -8.770      0.000      0.000
REMARK INTER + INTRA:         -12.471
REMARK INTER:                 -11.846
REMARK INTRA:                  -0.626
REMARK UNBOUND:                -0.626
REMARK  Name = 
REMARK  6 active torsions:
REMARK  status: ('A' for Active; 'I' for Inactive)
REMARK    1  A    between atoms: C_2  and  C_3
REMARK    2  A    between atoms: C_6  and  N_7
REMARK    3  A    between atoms: C_10  and  C_11
REMARK    4  A    between atoms: C_11  and  N_12
REMARK    5  A    between atoms: N_12  and  C_13
REMARK    6  A    between atoms: C_16  and  C_17
REMARK                            x       y       z     vdW  Elec       q    Type
REMARK                         _______ _______ _______ _____ _____    ______ ____
ROOT
ATOM      1  C   UNL     1      43.820   4.987  11.239  0.00  0.00    +0.000 C 
ATOM      2  C   UNL     1      42.507   5.436  11.842  0.00  0.00    +0.000 C 
ATOM      3  C   UNL     1      42.927   3.995  11.949  0.00  0.00    +0.000 C 
ENDROOT
BRANCH   1   7
ATOM      4  N   UNL     1      46.658   5.680  13.383  0.00  0.00    +0.000 N 
ATOM      5  C   UNL     1      47.001   6.458  12.299  0.00  0.00    +0.000 A 
ATOM      6  C   UNL     1      46.008   6.328  11.368  0.00  0.00    +0.000 A 
ATOM      7  C   UNL     1      45.104   5.432  11.951  0.00  0.00    +0.000 A 
ATOM      8  N   UNL     1      45.469   5.043  13.178  0.00  0.00    +0.000 NA
BRANCH   4  12
ATOM      9  C   UNL     1      48.861   5.195  16.962  0.00  0.00    +0.000 A 
ATOM     10  C   UNL     1      47.908   4.245  16.589  0.00  0.00    +0.000 A 
ATOM     11  C   UNL     1      47.181   4.410  15.411  0.00  0.00    +0.000 A 
ATOM     12  C   UNL     1      47.401   5.526  14.588  0.00  0.00    +0.000 A 
ATOM     13  C   UNL     1      48.354   6.481  14.963  0.00  0.00    +0.000 A 
ATOM     14  C   UNL     1      49.081   6.314  16.151  0.00  0.00    +0.000 A 
BRANCH   9  16
ATOM     15  N   UNL     1      50.217   4.860  19.147  0.00  0.00    +0.000 NA
ATOM     16  C   UNL     1      49.607   5.016  18.169  0.00  0.00    +0.000 C 
ENDBRANCH   9  16
ENDBRANCH   4  12
ENDBRANCH   1   7
BRANCH   1  17
ATOM     17  N   UNL     1      43.928   4.980   9.759  0.00  0.00    +0.000 N 
ATOM     18  H   UNL     1      44.039   5.918   9.370  0.00  0.00    +0.000 HD
BRANCH  17  19
ATOM     19  C   UNL     1      44.684   4.031   9.035  0.00  0.00    +0.000 A 
ATOM     20  C   UNL     1      45.673   4.362   8.108  0.00  0.00    +0.000 A 
ATOM     21  C   UNL     1      46.460   3.371   7.518  0.00  0.00    +0.000 A 
ATOM     22  C   UNL     1      46.257   2.055   7.900  0.00  0.00    +0.000 A 
ATOM     23  N   UNL     1      45.314   1.670   8.801  0.00  0.00    +0.000 NA
ATOM     24  C   UNL     1      44.567   2.668   9.341  0.00  0.00    +0.000 A 
BRANCH  22  25
ATOM     25  C   UNL     1      47.134   0.980   7.334  0.00  0.00    +0.000 C 
ATOM     26  N   UNL     1      46.812  -0.297   7.708  0.00  0.00    +0.000 N 
ATOM     27  O   UNL     1      48.081   1.219   6.596  0.00  0.00    +0.000 OA
ATOM     28  H   UNL     1      46.033  -0.452   8.337  0.00  0.00    +0.000 HD
ATOM     29  H   UNL     1      47.375  -1.069   7.382  0.00  0.00    +0.000 HD
ENDBRANCH  22  25
ENDBRANCH  17  19
ENDBRANCH   1  17
TORSDOF 6
ENDMDL
MODEL 2
REMARK VINA RESULT:    -8.563      2.583      3.822
REMARK INTER + INTRA:         -12.192
REMARK INTER:                 -11.349
REMARK INTRA:                  -0.844
REMARK UNBOUND:                -0.626
REMARK  Name = 
REMARK  6 active torsions:
REMARK  status: ('A' for Active; 'I' for Inactive)
REMARK    1  A    between atoms: C_2  and  C_3
REMARK    2  A    between atoms: C_6  and  N_7
REMARK    3  A    between atoms: C_10  and  C_11
REMARK    4  A    between atoms: C_11  and  N_12
REMARK    5  A    between atoms: N_12  and  C_13
REMARK    6  A    between atoms: C_16  and  C_17
REMARK                            x       y       z     vdW  Elec       q    Type
REMARK                         _______ _______ _______ _____ _____    ______ ____
ROOT
ATOM      1  C   UNL     1      43.858   5.021  11.379  0.00  0.00    +0.000 C 
ATOM      2  C   UNL     1      42.620   5.515  12.094  0.00  0.00    +0.000 C 
ATOM      3  C   UNL     1      43.062   4.086  12.261  0.00  0.00    +0.000 C 
ENDROOT
BRANCH   1   7
ATOM      4  N   UNL     1      46.990   6.650  12.199  0.00  0.00    +0.000 N 
ATOM      5  C   UNL     1      47.043   5.601  13.091  0.00  0.00    +0.000 A 
ATOM      6  C   UNL     1      45.915   4.849  12.910  0.00  0.00    +0.000 A 
ATOM      7  C   UNL     1      45.212   5.520  11.903  0.00  0.00    +0.000 A 
ATOM      8  N   UNL     1      45.854   6.601  11.446  0.00  0.00    +0.000 NA
BRANCH   4  12
ATOM      9  C   UNL     1      49.904   9.675  11.695  0.00  0.00    +0.000 A 
ATOM     10  C   UNL     1      50.276   8.329  11.676  0.00  0.00    +0.000 A 
ATOM     11  C   UNL     1      49.314   7.335  11.847  0.00  0.00    +0.000 A 
ATOM     12  C   UNL     1      47.965   7.674  12.035  0.00  0.00    +0.000 A 
ATOM     13  C   UNL     1      47.590   9.023  12.056  0.00  0.00    +0.000 A 
ATOM     14  C   UNL     1      48.561  10.021  11.889  0.00  0.00    +0.000 A 
BRANCH   9  16
ATOM     15  N   UNL     1      51.701  11.516  11.376  0.00  0.00    +0.000 NA
ATOM     16  C   UNL     1      50.896  10.689  11.513  0.00  0.00    +0.000 C 
ENDBRANCH   9  16
ENDBRANCH   4  12
ENDBRANCH   1   7
BRANCH   1  17
ATOM     17  N   UNL     1      43.796   4.901   9.901  0.00  0.00    +0.000 N 
ATOM     18  H   UNL     1      43.737   5.808   9.437  0.00  0.00    +0.000 HD
BRANCH  17  19
ATOM     19  C   UNL     1      44.583   3.993   9.157  0.00  0.00    +0.000 A 
ATOM     20  C   UNL     1      45.560   4.378   8.238  0.00  0.00    +0.000 A 
ATOM     21  C   UNL     1      46.381   3.427   7.627  0.00  0.00    +0.000 A 
ATOM     22  C   UNL     1      46.221   2.097   7.980  0.00  0.00    +0.000 A 
ATOM     23  N   UNL     1      45.292   1.661   8.872  0.00  0.00    +0.000 NA
ATOM     24  C   UNL     1      44.512   2.621   9.434  0.00  0.00    +0.000 A 
BRANCH  22  25
ATOM     25  C   UNL     1      47.133   1.063   7.391  0.00  0.00    +0.000 C 
ATOM     26  N   UNL     1      46.793  -0.236   7.651  0.00  0.00    +0.000 N 
ATOM     27  O   UNL     1      48.122   1.354   6.731  0.00  0.00    +0.000 OA
ATOM     28  H   UNL     1      45.978  -0.435   8.219  0.00  0.00    +0.000 HD
ATOM     29  H   UNL     1      47.376  -0.983   7.305  0.00  0.00    +0.000 HD
ENDBRANCH  22  25
ENDBRANCH  17  19
ENDBRANCH   1  17
TORSDOF 6
ENDMDL
MODEL 3
REMARK VINA RESULT:    -8.370      2.385      3.272
REMARK INTER + INTRA:         -11.931
REMARK INTER:                 -10.941
REMARK INTRA:                  -0.990
REMARK UNBOUND:                -0.626
REMARK  Name = 
REMARK  6 active torsions:
REMARK  status: ('A' for Active; 'I' for Inactive)
REMARK    1  A    between atoms: C_2  and  C_3
REMARK    2  A    between atoms: C_6  and  N_7
REMARK    3  A    between atoms: C_10  and  C_11
REMARK    4  A    between atoms: C_11  and  N_12
REMARK    5  A    between atoms: N_12  and  C_13
REMARK    6  A    between atoms: C_16  and  C_17
REMARK                            x       y       z     vdW  Elec       q    Type
REMARK                         _______ _______ _______ _____ _____    ______ ____
ROOT
ATOM      1  C   UNL     1      43.740   5.234  11.121  0.00  0.00    +0.000 C 
ATOM      2  C   UNL     1      42.653   6.194  11.551  0.00  0.00    +0.000 C 
ATOM      3  C   UNL     1      42.544   4.734  11.898  0.00  0.00    +0.000 C 
ENDROOT
BRANCH   1   7
ATOM      4  N   UNL     1      46.989   5.977  12.544  0.00  0.00    +0.000 N 
ATOM      5  C   UNL     1      46.728   4.789  13.191  0.00  0.00    +0.000 A 
ATOM      6  C   UNL     1      45.512   4.341  12.754  0.00  0.00    +0.000 A 
ATOM      7  C   UNL     1      45.084   5.326  11.856  0.00  0.00    +0.000 A 
ATOM      8  N   UNL     1      45.972   6.315  11.701  0.00  0.00    +0.000 NA
BRANCH   4  12
ATOM      9  C   UNL     1      50.437   8.395  12.952  0.00  0.00    +0.000 A 
ATOM     10  C   UNL     1      49.792   8.292  11.718  0.00  0.00    +0.000 A 
ATOM     11  C   UNL     1      48.659   7.491  11.586  0.00  0.00    +0.000 A 
ATOM     12  C   UNL     1      48.153   6.785  12.689  0.00  0.00    +0.000 A 
ATOM     13  C   UNL     1      48.799   6.886  13.927  0.00  0.00    +0.000 A 
ATOM     14  C   UNL     1      49.942   7.689  14.055  0.00  0.00    +0.000 A 
BRANCH   9  16
ATOM     15  N   UNL     1      52.541   9.892  13.176  0.00  0.00    +0.000 NA
ATOM     16  C   UNL     1      51.595   9.223  13.080  0.00  0.00    +0.000 C 
ENDBRANCH   9  16
ENDBRANCH   4  12
ENDBRANCH   1   7
BRANCH   1  17
ATOM     17  N   UNL     1      43.870   4.951   9.670  0.00  0.00    +0.000 N 
ATOM     18  H   UNL     1      43.822   5.796   9.100  0.00  0.00    +0.000 HD
BRANCH  17  19
ATOM     19  C   UNL     1      44.792   4.022   9.135  0.00  0.00    +0.000 A 
ATOM     20  C   UNL     1      44.692   2.640   9.298  0.00  0.00    +0.000 A 
ATOM     21  C   UNL     1      45.572   1.777   8.642  0.00  0.00    +0.000 A 
ATOM     22  C   UNL     1      46.527   2.326   7.802  0.00  0.00    +0.000 A 
ATOM     23  N   UNL     1      46.671   3.663   7.597  0.00  0.00    +0.000 NA
ATOM     24  C   UNL     1      45.797   4.462   8.263  0.00  0.00    +0.000 A 
BRANCH  22  25
ATOM     25  C   UNL     1      47.440   1.420   7.032  0.00  0.00    +0.000 C 
ATOM     26  N   UNL     1      48.570   2.010   6.536  0.00  0.00    +0.000 N 
ATOM     27  O   UNL     1      47.193   0.235   6.847  0.00  0.00    +0.000 OA
ATOM     28  H   UNL     1      48.728   2.998   6.693  0.00  0.00    +0.000 HD
ATOM     29  H   UNL     1      49.218   1.464   5.988  0.00  0.00    +0.000 HD
ENDBRANCH  22  25
ENDBRANCH  17  19
ENDBRANCH   1  17
TORSDOF 6
ENDMDL
MODEL 4
REMARK VINA RESULT:    -6.895      1.508      2.195
REMARK INTER + INTRA:          -9.939
REMARK INTER:                 -10.157
REMARK INTRA:                   0.219
REMARK UNBOUND:                -0.626
REMARK  Name = 
REMARK  6 active torsions:
REMARK  status: ('A' for Active; 'I' for Inactive)
REMARK    1  A    between atoms: C_2  and  C_3
REMARK    2  A    between atoms: C_6  and  N_7
REMARK    3  A    between atoms: C_10  and  C_11
REMARK    4  A    between atoms: C_11  and  N_12
REMARK    5  A    between atoms: N_12  and  C_13
REMARK    6  A    between atoms: C_16  and  C_17
REMARK                            x       y       z     vdW  Elec       q    Type
REMARK                         _______ _______ _______ _____ _____    ______ ____
ROOT
ATOM      1  C   UNL     1      44.763   5.710  11.338  0.00  0.00    +0.000 C 
ATOM      2  C   UNL     1      45.283   7.092  11.006  0.00  0.00    +0.000 C 
ATOM      3  C   UNL     1      43.995   6.939  11.769  0.00  0.00    +0.000 C 
ENDROOT
BRANCH   1   7
ATOM      4  N   UNL     1      46.644   4.402  14.146  0.00  0.00    +0.000 N 
ATOM      5  C   UNL     1      46.368   3.221  13.492  0.00  0.00    +0.000 A 
ATOM      6  C   UNL     1      45.655   3.531  12.367  0.00  0.00    +0.000 A 
ATOM      7  C   UNL     1      45.516   4.922  12.419  0.00  0.00    +0.000 A 
ATOM      8  N   UNL     1      46.124   5.470  13.477  0.00  0.00    +0.000 NA
BRANCH   4  12
ATOM      9  C   UNL     1      48.820   4.871  17.744  0.00  0.00    +0.000 A 
ATOM     10  C   UNL     1      48.924   5.825  16.729  0.00  0.00    +0.000 A 
ATOM     11  C   UNL     1      48.209   5.665  15.544  0.00  0.00    +0.000 A 
ATOM     12  C   UNL     1      47.376   4.550  15.359  0.00  0.00    +0.000 A 
ATOM     13  C   UNL     1      47.273   3.591  16.374  0.00  0.00    +0.000 A 
ATOM     14  C   UNL     1      47.998   3.753  17.563  0.00  0.00    +0.000 A 
BRANCH   9  16
ATOM     15  N   UNL     1      50.153   5.177  19.946  0.00  0.00    +0.000 NA
ATOM     16  C   UNL     1      49.553   5.046  18.959  0.00  0.00    +0.000 C 
ENDBRANCH   9  16
ENDBRANCH   4  12
ENDBRANCH   1   7
BRANCH   1  17
ATOM     17  N   UNL     1      44.279   4.871  10.214  0.00  0.00    +0.000 N 
ATOM     18  H   UNL     1      43.519   5.312   9.695  0.00  0.00    +0.000 HD
BRANCH  17  19
ATOM     19  C   UNL     1      45.136   4.146   9.355  0.00  0.00    +0.000 A 
ATOM     20  C   UNL     1      45.125   2.756   9.232  0.00  0.00    +0.000 A 
ATOM     21  C   UNL     1      45.918   2.117   8.276  0.00  0.00    +0.000 A 
ATOM     22  C   UNL     1      46.690   2.900   7.433  0.00  0.00    +0.000 A 
ATOM     23  N   UNL     1      46.739   4.257   7.500  0.00  0.00    +0.000 NA
ATOM     24  C   UNL     1      45.957   4.833   8.450  0.00  0.00    +0.000 A 
BRANCH  22  25
ATOM     25  C   UNL     1      47.497   2.244   6.354  0.00  0.00    +0.000 C 
ATOM     26  N   UNL     1      47.796   3.039   5.280  0.00  0.00    +0.000 N 
ATOM     27  O   UNL     1      47.860   1.076   6.415  0.00  0.00    +0.000 OA
ATOM     28  H   UNL     1      47.461   3.994   5.258  0.00  0.00    +0.000 HD
ATOM     29  H   UNL     1      48.318   2.655   4.506  0.00  0.00    +0.000 HD
ENDBRANCH  22  25
ENDBRANCH  17  19
ENDBRANCH   1  17
TORSDOF 6
ENDMDL
