MODEL 1
REMARK VINA RESULT:    -8.359      0.000      0.000
REMARK INTER + INTRA:         -13.123
REMARK INTER:                 -12.024
REMARK INTRA:                  -1.098
REMARK UNBOUND:                -1.098
REMARK  Name = 
REMARK  8 active torsions:
REMARK  status: ('A' for Active; 'I' for Inactive)
REMARK    1  A    between atoms: C_2  and  C_21
REMARK    2  A    between atoms: N_3  and  C_4
REMARK    3  A    between atoms: C_4  and  C_5
REMARK    4  A    between atoms: C_8  and  C_9
REMARK    5  A    between atoms: C_9  and  C_10
REMARK    6  A    between atoms: C_10  and  O_11
REMARK    7  A    between atoms: C_10  and  C_12
REMARK    8  A    between atoms: C_12  and  C_13
REMARK                            x       y       z     vdW  Elec       q    Type
REMARK                         _______ _______ _______ _____ _____    ______ ____
ROOT
ATOM      1  C   UNL     1      47.126   5.831  13.658  0.00  0.00    +0.000 A 
ATOM      2  C   UNL     1      47.909   6.303  14.711  0.00  0.00    +0.000 A 
ATOM      3  C   UNL     1      48.096   5.520  15.848  0.00  0.00    +0.000 A 
ATOM      4  C   UNL     1      47.528   4.251  15.894  0.00  0.00    +0.000 A 
ATOM      5  N   UNL     1      46.818   3.745  14.857  0.00  0.00    +0.000 NA
ATOM      6  C   UNL     1      46.610   4.545  13.783  0.00  0.00    +0.000 A 
ENDROOT
BRANCH   1   7
ATOM      7  C   UNL     1      46.900   6.658  12.425  0.00  0.00    +0.000 C 
BRANCH   7  10
ATOM      8  O   UNL     1      44.241   6.635  11.434  0.00  0.00    +0.000 OA
ATOM      9  C   UNL     1      45.050   5.798  11.061  0.00  0.00    +0.000 C 
ATOM     10  N   UNL     1      46.402   5.836  11.354  0.00  0.00    +0.000 N 
ATOM     11  H   UNL     1      46.908   4.973  11.193  0.00  0.00    +0.000 HD
BRANCH   9  12
ATOM     12  C   UNL     1      44.687   4.526  10.446  0.00  0.00    +0.000 A 
ATOM     13  C   UNL     1      43.885   3.571  11.042  0.00  0.00    +0.000 A 
ATOM     14  N   UNL     1      44.133   2.373  10.421  0.00  0.00    +0.000 N 
ATOM     15  C   UNL     1      45.006   2.559   9.374  0.00  0.00    +0.000 A 
ATOM     16  C   UNL     1      45.640   1.650   8.539  0.00  0.00    +0.000 A 
ATOM     17  N   UNL     1      46.400   2.114   7.519  0.00  0.00    +0.000 NA
ATOM     18  C   UNL     1      46.508   3.447   7.328  0.00  0.00    +0.000 A 
ATOM     19  C   UNL     1      45.959   4.405   8.162  0.00  0.00    +0.000 A 
ATOM     20  C   UNL     1      45.216   3.931   9.256  0.00  0.00    +0.000 A 
ATOM     21  H   UNL     1      43.783   1.475  10.729  0.00  0.00    +0.000 HD
ENDBRANCH   9  12
ENDBRANCH   7  10
ENDBRANCH   1   7
BRANCH   4  22
ATOM     22  C   UNL     1      47.718   3.349  17.093  0.00  0.00    +0.000 C 
BRANCH  22  23
ATOM     23  C   UNL     1      49.034   2.546  17.070  0.00  0.00    +0.000 C 
BRANCH  23  24
ATOM     24  O   UNL     1      49.194   1.889  15.805  0.00  0.00    +0.000 OA
ATOM     25  H   UNL     1      48.338   1.927  15.335  0.00  0.00    +0.000 HD
ENDBRANCH  23  24
BRANCH  23  26
ATOM     26  C   UNL     1      50.262   3.408  17.394  0.00  0.00    +0.000 C 
BRANCH  26  27
ATOM     27  C   UNL     1      51.489   2.580  17.686  0.00  0.00    +0.000 A 
ATOM     28  C   UNL     1      52.582   3.161  18.325  0.00  0.00    +0.000 A 
ATOM     29  C   UNL     1      53.711   2.388  18.578  0.00  0.00    +0.000 A 
ATOM     30  C   UNL     1      53.721   1.056  18.190  0.00  0.00    +0.000 A 
ATOM     31  C   UNL     1      52.593   0.555  17.560  0.00  0.00    +0.000 A 
ATOM     32  N   UNL     1      51.479   1.280  17.306  0.00  0.00    +0.000 NA
ENDBRANCH  26  27
ENDBRANCH  23  26
ENDBRANCH  22  23
ENDBRANCH   4  22
TORSDOF 8
ENDMDL
MODEL 2
REMARK VINA RESULT:    -8.349      2.841      3.779
REMARK INTER + INTRA:         -13.109
REMARK INTER:                 -12.222
REMARK INTRA:                  -0.887
REMARK UNBOUND:                -1.098
REMARK  Name = 
REMARK  8 active torsions:
REMARK  status: ('A' for Active; 'I' for Inactive)
REMARK    1  A    between atoms: C_2  and  C_21
REMARK    2  A    between atoms: N_3  and  C_4
REMARK    3  A    between atoms: C_4  and  C_5
REMARK    4  A    between atoms: C_8  and  C_9
REMARK    5  A    between atoms: C_9  and  C_10
REMARK    6  A    between atoms: C_10  and  O_11
REMARK    7  A    between atoms: C_10  and  C_12
REMARK    8  A    between atoms: C_12  and  C_13
REMARK                            x       y       z     vdW  Elec       q    Type
REMARK                         _______ _______ _______ _____ _____    ______ ____
ROOT
ATOM      1  C   UNL     1      46.230   5.382  12.440  0.00  0.00    +0.000 A 
ATOM      2  C   UNL     1      47.043   6.105  13.312  0.00  0.00    +0.000 A 
ATOM      3  C   UNL     1      47.564   5.493  14.451  0.00  0.00    +0.000 A 
ATOM      4  C   UNL     1      47.297   4.146  14.675  0.00  0.00    +0.000 A 
ATOM      5  N   UNL     1      46.565   3.406  13.806  0.00  0.00    +0.000 NA
ATOM      6  C   UNL     1      46.030   4.037  12.733  0.00  0.00    +0.000 A 
ENDROOT
BRANCH   1   7
ATOM      7  C   UNL     1      45.648   6.019  11.211  0.00  0.00    +0.000 C 
BRANCH   7  10
ATOM      8  O   UNL     1      43.422   4.968   9.800  0.00  0.00    +0.000 OA
ATOM      9  C   UNL     1      44.547   4.541   9.590  0.00  0.00    +0.000 C 
ATOM     10  N   UNL     1      45.703   5.107  10.099  0.00  0.00    +0.000 N 
ATOM     11  H   UNL     1      46.532   4.528  10.049  0.00  0.00    +0.000 HD
BRANCH   9  12
ATOM     12  C   UNL     1      44.832   3.255   8.963  0.00  0.00    +0.000 A 
ATOM     13  C   UNL     1      44.274   2.053   9.358  0.00  0.00    +0.000 A 
ATOM     14  N   UNL     1      45.082   1.047   8.893  0.00  0.00    +0.000 N 
ATOM     15  C   UNL     1      46.094   1.574   8.126  0.00  0.00    +0.000 A 
ATOM     16  C   UNL     1      47.210   0.982   7.550  0.00  0.00    +0.000 A 
ATOM     17  N   UNL     1      48.018   1.730   6.763  0.00  0.00    +0.000 NA
ATOM     18  C   UNL     1      47.711   3.027   6.543  0.00  0.00    +0.000 A 
ATOM     19  C   UNL     1      46.655   3.694   7.139  0.00  0.00    +0.000 A 
ATOM     20  C   UNL     1      45.845   2.939   8.002  0.00  0.00    +0.000 A 
ATOM     21  H   UNL     1      44.990   0.069   9.136  0.00  0.00    +0.000 HD
ENDBRANCH   9  12
ENDBRANCH   7  10
ENDBRANCH   1   7
BRANCH   4  22
ATOM     22  C   UNL     1      47.856   3.425  15.880  0.00  0.00    +0.000 C 
BRANCH  22  23
ATOM     23  C   UNL     1      47.248   3.884  17.221  0.00  0.00    +0.000 C 
BRANCH  23  24
ATOM     24  O   UNL     1      46.405   2.857  17.763  0.00  0.00    +0.000 OA
ATOM     25  H   UNL     1      46.827   1.995  17.583  0.00  0.00    +0.000 HD
ENDBRANCH  23  24
BRANCH  23  26
ATOM     26  C   UNL     1      48.312   4.310  18.242  0.00  0.00    +0.000 C 
BRANCH  26  27
ATOM     27  C   UNL     1      48.106   5.720  18.737  0.00  0.00    +0.000 A 
ATOM     28  C   UNL     1      47.675   5.940  20.043  0.00  0.00    +0.000 A 
ATOM     29  C   UNL     1      47.478   7.244  20.484  0.00  0.00    +0.000 A 
ATOM     30  C   UNL     1      47.718   8.297  19.612  0.00  0.00    +0.000 A 
ATOM     31  C   UNL     1      48.145   7.993  18.330  0.00  0.00    +0.000 A 
ATOM     32  N   UNL     1      48.351   6.735  17.875  0.00  0.00    +0.000 NA
ENDBRANCH  26  27
ENDBRANCH  23  26
ENDBRANCH  22  23
ENDBRANCH   4  22
TORSDOF 8
ENDMDL
MODEL 3
REMARK VINA RESULT:    -8.294      2.034      2.543
REMARK INTER + INTRA:         -13.029
REMARK INTER:                 -12.147
REMARK INTRA:                  -0.882
REMARK UNBOUND:                -1.098
REMARK  Name = 
REMARK  8 active torsions:
REMARK  status: ('A' for Active; 'I' for Inactive)
REMARK    1  A    between atoms: C_2  and  C_21
REMARK    2  A    between atoms: N_3  and  C_4
REMARK    3  A    between atoms: C_4  and  C_5
REMARK    4  A    between atoms: C_8  and  C_9
REMARK    5  A    between atoms: C_9  and  C_10
REMARK    6  A    between atoms: C_10  and  O_11
REMARK    7  A    between atoms: C_10  and  C_12
REMARK    8  A    between atoms: C_12  and  C_13
REMARK                            x       y       z     vdW  Elec       q    Type
REMARK                         _______ _______ _______ _____ _____    ______ ____
ROOT
ATOM      1  C   UNL     1      46.211   5.541  12.324  0.00  0.00    +0.000 A 
ATOM      2  C   UNL     1      47.144   6.167  13.149  0.00  0.00    +0.000 A 
ATOM      3  C   UNL     1      47.553   5.554  14.332  0.00  0.00    +0.000 A 
ATOM      4  C   UNL     1      47.049   4.297  14.650  0.00  0.00    +0.000 A 
ATOM      5  N   UNL     1      46.191   3.641  13.831  0.00  0.00    +0.000 NA
ATOM      6  C   UNL     1      45.773   4.279  12.711  0.00  0.00    +0.000 A 
ENDROOT
BRANCH   1   7
ATOM      7  C   UNL     1      45.746   6.182  11.048  0.00  0.00    +0.000 C 
BRANCH   7  10
ATOM      8  O   UNL     1      43.465   5.057   9.791  0.00  0.00    +0.000 OA
ATOM      9  C   UNL     1      44.583   4.631   9.544  0.00  0.00    +0.000 C 
ATOM     10  N   UNL     1      45.757   5.226   9.973  0.00  0.00    +0.000 N 
ATOM     11  H   UNL     1      46.588   4.652   9.907  0.00  0.00    +0.000 HD
BRANCH   9  12
ATOM     12  C   UNL     1      44.850   3.322   8.957  0.00  0.00    +0.000 A 
ATOM     13  C   UNL     1      44.296   2.137   9.405  0.00  0.00    +0.000 A 
ATOM     14  N   UNL     1      45.090   1.112   8.959  0.00  0.00    +0.000 N 
ATOM     15  C   UNL     1      46.089   1.607   8.154  0.00  0.00    +0.000 A 
ATOM     16  C   UNL     1      47.190   0.990   7.576  0.00  0.00    +0.000 A 
ATOM     17  N   UNL     1      47.986   1.706   6.748  0.00  0.00    +0.000 NA
ATOM     18  C   UNL     1      47.679   2.996   6.489  0.00  0.00    +0.000 A 
ATOM     19  C   UNL     1      46.638   3.689   7.082  0.00  0.00    +0.000 A 
ATOM     20  C   UNL     1      45.843   2.968   7.987  0.00  0.00    +0.000 A 
ATOM     21  H   UNL     1      44.999   0.143   9.238  0.00  0.00    +0.000 HD
ENDBRANCH   9  12
ENDBRANCH   7  10
ENDBRANCH   1   7
BRANCH   4  22
ATOM     22  C   UNL     1      47.475   3.576  15.909  0.00  0.00    +0.000 C 
BRANCH  22  23
ATOM     23  C   UNL     1      47.767   4.512  17.098  0.00  0.00    +0.000 C 
BRANCH  23  24
ATOM     24  O   UNL     1      46.584   4.700  17.886  0.00  0.00    +0.000 OA
ATOM     25  H   UNL     1      46.809   4.512  18.818  0.00  0.00    +0.000 HD
ENDBRANCH  23  24
BRANCH  23  26
ATOM     26  C   UNL     1      48.930   4.020  17.971  0.00  0.00    +0.000 C 
BRANCH  26  27
ATOM     27  C   UNL     1      50.248   4.647  17.585  0.00  0.00    +0.000 A 
ATOM     28  C   UNL     1      51.441   4.072  18.016  0.00  0.00    +0.000 A 
ATOM     29  C   UNL     1      52.648   4.666  17.663  0.00  0.00    +0.000 A 
ATOM     30  C   UNL     1      52.635   5.817  16.888  0.00  0.00    +0.000 A 
ATOM     31  C   UNL     1      51.406   6.325  16.501  0.00  0.00    +0.000 A 
ATOM     32  N   UNL     1      50.216   5.766  16.823  0.00  0.00    +0.000 NA
ENDBRANCH  26  27
ENDBRANCH  23  26
ENDBRANCH  22  23
ENDBRANCH   4  22
TORSDOF 8
ENDMDL
MODEL 4
REMARK VINA RESULT:    -8.212      3.237      9.272
REMARK INTER + INTRA:         -12.911
REMARK INTER:                 -11.780
REMARK INTRA:                  -1.131
REMARK UNBOUND:                -1.098
REMARK  Name = 
REMARK  8 active torsions:
REMARK  status: ('A' for Active; 'I' for Inactive)
REMARK    1  A    between atoms: C_2  and  C_21
REMARK    2  A    between atoms: N_3  and  C_4
REMARK    3  A    between atoms: C_4  and  C_5
REMARK    4  A    between atoms: C_8  and  C_9
REMARK    5  A    between atoms: C_9  and  C_10
REMARK    6  A    between atoms: C_10  and  O_11
REMARK    7  A    between atoms: C_10  and  C_12
REMARK    8  A    between atoms: C_12  and  C_13
REMARK                            x       y       z     vdW  Elec       q    Type
REMARK                         _______ _______ _______ _____ _____    ______ ____
ROOT
ATOM      1  C   UNL     1      47.088   6.454  13.052  0.00  0.00    +0.000 A 
ATOM      2  C   UNL     1      46.659   6.804  11.772  0.00  0.00    +0.000 A 
ATOM      3  C   UNL     1      45.670   6.055  11.137  0.00  0.00    +0.000 A 
ATOM      4  C   UNL     1      45.092   4.988  11.816  0.00  0.00    +0.000 A 
ATOM      5  N   UNL     1      45.446   4.669  13.086  0.00  0.00    +0.000 NA
ATOM      6  C   UNL     1      46.443   5.383  13.662  0.00  0.00    +0.000 A 
ENDROOT
BRANCH   1   7
ATOM      7  C   UNL     1      48.158   7.237  13.756  0.00  0.00    +0.000 C 
BRANCH   7  10
ATOM      8  O   UNL     1      50.253   6.485  15.515  0.00  0.00    +0.000 OA
ATOM      9  C   UNL     1      49.101   6.549  15.915  0.00  0.00    +0.000 C 
ATOM     10  N   UNL     1      48.048   7.070  15.181  0.00  0.00    +0.000 N 
ATOM     11  H   UNL     1      47.123   6.846  15.525  0.00  0.00    +0.000 HD
BRANCH   9  12
ATOM     12  C   UNL     1      48.615   5.891  17.123  0.00  0.00    +0.000 A 
ATOM     13  C   UNL     1      47.830   4.753  17.131  0.00  0.00    +0.000 A 
ATOM     14  N   UNL     1      47.197   4.693  18.347  0.00  0.00    +0.000 N 
ATOM     15  C   UNL     1      47.634   5.716  19.155  0.00  0.00    +0.000 A 
ATOM     16  C   UNL     1      47.209   6.139  20.406  0.00  0.00    +0.000 A 
ATOM     17  N   UNL     1      47.878   7.142  21.023  0.00  0.00    +0.000 NA
ATOM     18  C   UNL     1      48.952   7.692  20.416  0.00  0.00    +0.000 A 
ATOM     19  C   UNL     1      49.386   7.365  19.144  0.00  0.00    +0.000 A 
ATOM     20  C   UNL     1      48.662   6.365  18.473  0.00  0.00    +0.000 A 
ATOM     21  H   UNL     1      46.466   4.037  18.589  0.00  0.00    +0.000 HD
ENDBRANCH   9  12
ENDBRANCH   7  10
ENDBRANCH   1   7
BRANCH   4  22
ATOM     22  C   UNL     1      43.998   4.156  11.185  0.00  0.00    +0.000 C 
BRANCH  22  23
ATOM     23  C   UNL     1      44.517   3.052  10.241  0.00  0.00    +0.000 C 
BRANCH  23  24
ATOM     24  O   UNL     1      43.715   1.870  10.370  0.00  0.00    +0.000 OA
ATOM     25  H   UNL     1      42.782   2.147  10.458  0.00  0.00    +0.000 HD
ENDBRANCH  23  24
BRANCH  23  26
ATOM     26  C   UNL     1      44.587   3.507   8.777  0.00  0.00    +0.000 C 
BRANCH  26  27
ATOM     27  C   UNL     1      45.653   2.779   7.996  0.00  0.00    +0.000 A 
ATOM     28  C   UNL     1      46.237   3.387   6.888  0.00  0.00    +0.000 A 
ATOM     29  C   UNL     1      47.210   2.700   6.170  0.00  0.00    +0.000 A 
ATOM     30  C   UNL     1      47.579   1.426   6.577  0.00  0.00    +0.000 A 
ATOM     31  C   UNL     1      46.950   0.893   7.690  0.00  0.00    +0.000 A 
ATOM     32  N   UNL     1      46.005   1.539   8.411  0.00  0.00    +0.000 NA
ENDBRANCH  26  27
ENDBRANCH  23  26
ENDBRANCH  22  23
ENDBRANCH   4  22
TORSDOF 8
ENDMDL
MODEL 5
REMARK VINA RESULT:    -8.195      2.820      8.660
REMARK INTER + INTRA:         -12.887
REMARK INTER:                 -11.531
REMARK INTRA:                  -1.356
REMARK UNBOUND:                -1.098
REMARK  Name = 
REMARK  8 active torsions:
REMARK  status: ('A' for Active; 'I' for Inactive)
REMARK    1  A    between atoms: C_2  and  C_21
REMARK    2  A    between atoms: N_3  and  C_4
REMARK    3  A    between atoms: C_4  and  C_5
REMARK    4  A    between atoms: C_8  and  C_9
REMARK    5  A    between atoms: C_9  and  C_10
REMARK    6  A    between atoms: C_10  and  O_11
REMARK    7  A    between atoms: C_10  and  C_12
REMARK    8  A    between atoms: C_12  and  C_13
REMARK                            x       y       z     vdW  Elec       q    Type
REMARK                         _______ _______ _______ _____ _____    ______ ____
ROOT
ATOM      1  C   UNL     1      46.709   7.074  13.109  0.00  0.00    +0.000 A 
ATOM      2  C   UNL     1      46.953   5.707  13.245  0.00  0.00    +0.000 A 
ATOM      3  C   UNL     1      45.991   4.783  12.842  0.00  0.00    +0.000 A 
ATOM      4  C   UNL     1      44.812   5.244  12.267  0.00  0.00    +0.000 A 
ATOM      5  N   UNL     1      44.580   6.564  12.064  0.00  0.00    +0.000 NA
ATOM      6  C   UNL     1      45.510   7.444  12.508  0.00  0.00    +0.000 A 
ENDROOT
BRANCH   1   7
ATOM      7  C   UNL     1      47.724   8.092  13.543  0.00  0.00    +0.000 C 
BRANCH   7  10
ATOM      8  O   UNL     1      50.063   7.010  14.728  0.00  0.00    +0.000 OA
ATOM      9  C   UNL     1      49.092   7.287  15.415  0.00  0.00    +0.000 C 
ATOM     10  N   UNL     1      47.982   7.974  14.954  0.00  0.00    +0.000 N 
ATOM     11  H   UNL     1      47.162   7.927  15.546  0.00  0.00    +0.000 HD
BRANCH   9  12
ATOM     12  C   UNL     1      48.852   6.750  16.751  0.00  0.00    +0.000 A 
ATOM     13  C   UNL     1      49.276   7.350  17.921  0.00  0.00    +0.000 A 
ATOM     14  N   UNL     1      49.297   6.387  18.898  0.00  0.00    +0.000 N 
ATOM     15  C   UNL     1      48.804   5.204  18.401  0.00  0.00    +0.000 A 
ATOM     16  C   UNL     1      48.738   3.934  18.957  0.00  0.00    +0.000 A 
ATOM     17  N   UNL     1      48.118   2.946  18.270  0.00  0.00    +0.000 NA
ATOM     18  C   UNL     1      47.563   3.224  17.070  0.00  0.00    +0.000 A 
ATOM     19  C   UNL     1      47.651   4.448  16.430  0.00  0.00    +0.000 A 
ATOM     20  C   UNL     1      48.343   5.462  17.112  0.00  0.00    +0.000 A 
ATOM     21  H   UNL     1      49.684   6.508  19.825  0.00  0.00    +0.000 HD
ENDBRANCH   9  12
ENDBRANCH   7  10
ENDBRANCH   1   7
BRANCH   4  22
ATOM     22  C   UNL     1      43.744   4.285  11.790  0.00  0.00    +0.000 C 
BRANCH  22  23
ATOM     23  C   UNL     1      44.256   3.222  10.796  0.00  0.00    +0.000 C 
BRANCH  23  24
ATOM     24  O   UNL     1      43.467   2.028  10.894  0.00  0.00    +0.000 OA
ATOM     25  H   UNL     1      42.880   1.990  10.114  0.00  0.00    +0.000 HD
ENDBRANCH  23  24
BRANCH  23  26
ATOM     26  C   UNL     1      44.295   3.732   9.349  0.00  0.00    +0.000 C 
BRANCH  26  27
ATOM     27  C   UNL     1      45.318   3.008   8.509  0.00  0.00    +0.000 A 
ATOM     28  C   UNL     1      46.004   3.693   7.509  0.00  0.00    +0.000 A 
ATOM     29  C   UNL     1      46.936   3.010   6.734  0.00  0.00    +0.000 A 
ATOM     30  C   UNL     1      47.162   1.663   6.978  0.00  0.00    +0.000 A 
ATOM     31  C   UNL     1      46.438   1.056   7.991  0.00  0.00    +0.000 A 
ATOM     32  N   UNL     1      45.531   1.695   8.765  0.00  0.00    +0.000 NA
ENDBRANCH  26  27
ENDBRANCH  23  26
ENDBRANCH  22  23
ENDBRANCH   4  22
TORSDOF 8
ENDMDL
MODEL 6
REMARK VINA RESULT:    -7.633      2.907      3.955
REMARK INTER + INTRA:         -12.078
REMARK INTER:                 -10.341
REMARK INTRA:                  -1.737
REMARK UNBOUND:                -1.098
REMARK  Name = 
REMARK  8 active torsions:
REMARK  status: ('A' for Active; 'I' for Inactive)
REMARK    1  A    between atoms: C_2  and  C_21
REMARK    2  A    between atoms: N_3  and  C_4
REMARK    3  A    between atoms: C_4  and  C_5
REMARK    4  A    between atoms: C_8  and  C_9
REMARK    5  A    between atoms: C_9  and  C_10
REMARK    6  A    between atoms: C_10  and  O_11
REMARK    7  A    between atoms: C_10  and  C_12
REMARK    8  A    between atoms: C_12  and  C_13
REMARK                            x       y       z     vdW  Elec       q    Type
REMARK                         _______ _______ _______ _____ _____    ______ ____
ROOT
ATOM      1  C   UNL     1      46.034   6.540  12.653  0.00  0.00    +0.000 A 
ATOM      2  C   UNL     1      46.995   5.808  13.350  0.00  0.00    +0.000 A 
ATOM      3  C   UNL     1      48.070   6.461  13.951  0.00  0.00    +0.000 A 
ATOM      4  C   UNL     1      48.141   7.849  13.880  0.00  0.00    +0.000 A 
ATOM      5  N   UNL     1      47.184   8.586  13.264  0.00  0.00    +0.000 NA
ATOM      6  C   UNL     1      46.176   7.923  12.647  0.00  0.00    +0.000 A 
ENDROOT
BRANCH   1   7
ATOM      7  C   UNL     1      44.871   5.861  11.988  0.00  0.00    +0.000 C 
BRANCH   7  10
ATOM      8  O   UNL     1      45.574   5.901   9.240  0.00  0.00    +0.000 OA
ATOM      9  C   UNL     1      45.488   4.842   9.843  0.00  0.00    +0.000 C 
ATOM     10  N   UNL     1      45.322   4.736  11.213  0.00  0.00    +0.000 N 
ATOM     11  H   UNL     1      45.027   3.827  11.548  0.00  0.00    +0.000 HD
BRANCH   9  12
ATOM     12  C   UNL     1      45.320   3.544   9.198  0.00  0.00    +0.000 A 
ATOM     13  C   UNL     1      44.459   2.558   9.640  0.00  0.00    +0.000 A 
ATOM     14  N   UNL     1      44.886   1.365   9.113  0.00  0.00    +0.000 N 
ATOM     15  C   UNL     1      45.947   1.581   8.264  0.00  0.00    +0.000 A 
ATOM     16  C   UNL     1      46.783   0.694   7.600  0.00  0.00    +0.000 A 
ATOM     17  N   UNL     1      47.715   1.181   6.748  0.00  0.00    +0.000 NA
ATOM     18  C   UNL     1      47.797   2.515   6.550  0.00  0.00    +0.000 A 
ATOM     19  C   UNL     1      47.042   3.456   7.229  0.00  0.00    +0.000 A 
ATOM     20  C   UNL     1      46.113   2.960   8.158  0.00  0.00    +0.000 A 
ATOM     21  H   UNL     1      44.523   0.455   9.364  0.00  0.00    +0.000 HD
ENDBRANCH   9  12
ENDBRANCH   7  10
ENDBRANCH   1   7
BRANCH   4  22
ATOM     22  C   UNL     1      49.272   8.611  14.534  0.00  0.00    +0.000 C 
BRANCH  22  23
ATOM     23  C   UNL     1      48.899   9.242  15.890  0.00  0.00    +0.000 C 
BRANCH  23  24
ATOM     24  O   UNL     1      47.499   9.072  16.151  0.00  0.00    +0.000 OA
ATOM     25  H   UNL     1      47.384   8.953  17.114  0.00  0.00    +0.000 HD
ENDBRANCH  23  24
BRANCH  23  26
ATOM     26  C   UNL     1      49.740   8.696  17.052  0.00  0.00    +0.000 C 
BRANCH  26  27
ATOM     27  C   UNL     1      49.558   7.211  17.248  0.00  0.00    +0.000 A 
ATOM     28  C   UNL     1      50.635   6.349  17.057  0.00  0.00    +0.000 A 
ATOM     29  C   UNL     1      50.451   4.981  17.231  0.00  0.00    +0.000 A 
ATOM     30  C   UNL     1      49.198   4.508  17.593  0.00  0.00    +0.000 A 
ATOM     31  C   UNL     1      48.179   5.431  17.763  0.00  0.00    +0.000 A 
ATOM     32  N   UNL     1      48.330   6.767  17.607  0.00  0.00    +0.000 NA
ENDBRANCH  26  27
ENDBRANCH  23  26
ENDBRANCH  22  23
ENDBRANCH   4  22
TORSDOF 8
ENDMDL
MODEL 7
REMARK VINA RESULT:    -7.318      3.090      9.578
REMARK INTER + INTRA:         -11.625
REMARK INTER:                 -10.540
REMARK INTRA:                  -1.086
REMARK UNBOUND:                -1.098
REMARK  Name = 
REMARK  8 active torsions:
REMARK  status: ('A' for Active; 'I' for Inactive)
REMARK    1  A    between atoms: C_2  and  C_21
REMARK    2  A    between atoms: N_3  and  C_4
REMARK    3  A    between atoms: C_4  and  C_5
REMARK    4  A    between atoms: C_8  and  C_9
REMARK    5  A    between atoms: C_9  and  C_10
REMARK    6  A    between atoms: C_10  and  O_11
REMARK    7  A    between atoms: C_10  and  C_12
REMARK    8  A    between atoms: C_12  and  C_13
REMARK                            x       y       z     vdW  Elec       q    Type
REMARK                         _______ _______ _______ _____ _____    ______ ____
ROOT
ATOM      1  C   UNL     1      46.937   4.622  14.453  0.00  0.00    +0.000 A 
ATOM      2  C   UNL     1      46.986   5.910  13.922  0.00  0.00    +0.000 A 
ATOM      3  C   UNL     1      46.456   6.165  12.658  0.00  0.00    +0.000 A 
ATOM      4  C   UNL     1      45.844   5.129  11.962  0.00  0.00    +0.000 A 
ATOM      5  N   UNL     1      45.726   3.884  12.485  0.00  0.00    +0.000 NA
ATOM      6  C   UNL     1      46.292   3.651  13.694  0.00  0.00    +0.000 A 
ENDROOT
BRANCH   1   7
ATOM      7  C   UNL     1      47.508   4.316  15.808  0.00  0.00    +0.000 C 
BRANCH   7  10
ATOM      8  O   UNL     1      50.115   4.898  16.764  0.00  0.00    +0.000 OA
ATOM      9  C   UNL     1      49.179   5.638  17.027  0.00  0.00    +0.000 C 
ATOM     10  N   UNL     1      47.918   5.529  16.465  0.00  0.00    +0.000 N 
ATOM     11  H   UNL     1      47.184   6.040  16.938  0.00  0.00    +0.000 HD
BRANCH   9  12
ATOM     12  C   UNL     1      49.176   6.598  18.125  0.00  0.00    +0.000 A 
ATOM     13  C   UNL     1      49.373   6.266  19.453  0.00  0.00    +0.000 A 
ATOM     14  N   UNL     1      48.858   7.283  20.216  0.00  0.00    +0.000 N 
ATOM     15  C   UNL     1      48.421   8.305  19.405  0.00  0.00    +0.000 A 
ATOM     16  C   UNL     1      47.727   9.471  19.694  0.00  0.00    +0.000 A 
ATOM     17  N   UNL     1      47.490  10.359  18.700  0.00  0.00    +0.000 NA
ATOM     18  C   UNL     1      47.949  10.098  17.457  0.00  0.00    +0.000 A 
ATOM     19  C   UNL     1      48.586   8.927  17.087  0.00  0.00    +0.000 A 
ATOM     20  C   UNL     1      48.785   7.975  18.101  0.00  0.00    +0.000 A 
ATOM     21  H   UNL     1      48.749   7.257  21.221  0.00  0.00    +0.000 HD
ENDBRANCH   9  12
ENDBRANCH   7  10
ENDBRANCH   1   7
BRANCH   4  22
ATOM     22  C   UNL     1      45.232   5.354  10.597  0.00  0.00    +0.000 C 
BRANCH  22  23
ATOM     23  C   UNL     1      44.578   4.097   9.989  0.00  0.00    +0.000 C 
BRANCH  23  24
ATOM     24  O   UNL     1      43.255   3.920  10.514  0.00  0.00    +0.000 OA
ATOM     25  H   UNL     1      42.619   4.217   9.835  0.00  0.00    +0.000 HD
ENDBRANCH  23  24
BRANCH  23  26
ATOM     26  C   UNL     1      44.557   4.121   8.455  0.00  0.00    +0.000 C 
BRANCH  26  27
ATOM     27  C   UNL     1      45.579   3.191   7.848  0.00  0.00    +0.000 A 
ATOM     28  C   UNL     1      45.772   1.924   8.391  0.00  0.00    +0.000 A 
ATOM     29  C   UNL     1      46.726   1.081   7.829  0.00  0.00    +0.000 A 
ATOM     30  C   UNL     1      47.461   1.523   6.738  0.00  0.00    +0.000 A 
ATOM     31  C   UNL     1      47.208   2.798   6.259  0.00  0.00    +0.000 A 
ATOM     32  N   UNL     1      46.283   3.637   6.781  0.00  0.00    +0.000 NA
ENDBRANCH  26  27
ENDBRANCH  23  26
ENDBRANCH  22  23
ENDBRANCH   4  22
TORSDOF 8
ENDMDL
MODEL 8
REMARK VINA RESULT:    -7.298      3.795      8.985
REMARK INTER + INTRA:         -11.597
REMARK INTER:                 -10.725
REMARK INTRA:                  -0.872
REMARK UNBOUND:                -1.098
REMARK  Name = 
REMARK  8 active torsions:
REMARK  status: ('A' for Active; 'I' for Inactive)
REMARK    1  A    between atoms: C_2  and  C_21
REMARK    2  A    between atoms: N_3  and  C_4
REMARK    3  A    between atoms: C_4  and  C_5
REMARK    4  A    between atoms: C_8  and  C_9
REMARK    5  A    between atoms: C_9  and  C_10
REMARK    6  A    between atoms: C_10  and  O_11
REMARK    7  A    between atoms: C_10  and  C_12
REMARK    8  A    between atoms: C_12  and  C_13
REMARK                            x       y       z     vdW  Elec       q    Type
REMARK                         _______ _______ _______ _____ _____    ______ ____
ROOT
ATOM      1  C   UNL     1      45.845   7.930  12.441  0.00  0.00    +0.000 A 
ATOM      2  C   UNL     1      46.429   6.674  12.597  0.00  0.00    +0.000 A 
ATOM      3  C   UNL     1      45.810   5.544  12.066  0.00  0.00    +0.000 A 
ATOM      4  C   UNL     1      44.630   5.698  11.346  0.00  0.00    +0.000 A 
ATOM      5  N   UNL     1      44.078   6.916  11.125  0.00  0.00    +0.000 NA
ATOM      6  C   UNL     1      44.674   7.992  11.693  0.00  0.00    +0.000 A 
ENDROOT
BRANCH   1   7
ATOM      7  C   UNL     1      46.485   9.163  13.011  0.00  0.00    +0.000 C 
BRANCH   7  10
ATOM      8  O   UNL     1      49.146   9.721  13.824  0.00  0.00    +0.000 OA
ATOM      9  C   UNL     1      48.407   9.057  14.534  0.00  0.00    +0.000 C 
ATOM     10  N   UNL     1      47.053   8.882  14.303  0.00  0.00    +0.000 N 
ATOM     11  H   UNL     1      46.615   8.129  14.819  0.00  0.00    +0.000 HD
BRANCH   9  12
ATOM     12  C   UNL     1      48.870   8.172  15.598  0.00  0.00    +0.000 A 
ATOM     13  C   UNL     1      49.587   7.009  15.388  0.00  0.00    +0.000 A 
ATOM     14  N   UNL     1      49.446   6.227  16.507  0.00  0.00    +0.000 N 
ATOM     15  C   UNL     1      48.733   6.905  17.467  0.00  0.00    +0.000 A 
ATOM     16  C   UNL     1      48.238   6.497  18.698  0.00  0.00    +0.000 A 
ATOM     17  N   UNL     1      47.629   7.406  19.495  0.00  0.00    +0.000 NA
ATOM     18  C   UNL     1      47.534   8.689  19.083  0.00  0.00    +0.000 A 
ATOM     19  C   UNL     1      47.945   9.146  17.843  0.00  0.00    +0.000 A 
ATOM     20  C   UNL     1      48.526   8.196  16.987  0.00  0.00    +0.000 A 
ATOM     21  H   UNL     1      49.758   5.268  16.588  0.00  0.00    +0.000 HD
ENDBRANCH   9  12
ENDBRANCH   7  10
ENDBRANCH   1   7
BRANCH   4  22
ATOM     22  C   UNL     1      43.928   4.510  10.728  0.00  0.00    +0.000 C 
BRANCH  22  23
ATOM     23  C   UNL     1      44.773   3.220  10.714  0.00  0.00    +0.000 C 
BRANCH  23  24
ATOM     24  O   UNL     1      44.592   2.493  11.936  0.00  0.00    +0.000 OA
ATOM     25  H   UNL     1      45.106   1.664  11.873  0.00  0.00    +0.000 HD
ENDBRANCH  23  24
BRANCH  23  26
ATOM     26  C   UNL     1      44.478   2.329   9.500  0.00  0.00    +0.000 C 
BRANCH  26  27
ATOM     27  C   UNL     1      45.569   2.390   8.459  0.00  0.00    +0.000 A 
ATOM     28  C   UNL     1      46.270   1.235   8.122  0.00  0.00    +0.000 A 
ATOM     29  C   UNL     1      47.281   1.307   7.169  0.00  0.00    +0.000 A 
ATOM     30  C   UNL     1      47.566   2.528   6.575  0.00  0.00    +0.000 A 
ATOM     31  C   UNL     1      46.822   3.630   6.967  0.00  0.00    +0.000 A 
ATOM     32  N   UNL     1      45.829   3.589   7.885  0.00  0.00    +0.000 NA
ENDBRANCH  26  27
ENDBRANCH  23  26
ENDBRANCH  22  23
ENDBRANCH   4  22
TORSDOF 8
ENDMDL
MODEL 9
REMARK VINA RESULT:    -7.204      1.734      9.417
REMARK INTER + INTRA:         -11.462
REMARK INTER:                 -10.444
REMARK INTRA:                  -1.018
REMARK UNBOUND:                -1.098
REMARK  Name = 
REMARK  8 active torsions:
REMARK  status: ('A' for Active; 'I' for Inactive)
REMARK    1  A    between atoms: C_2  and  C_21
REMARK    2  A    between atoms: N_3  and  C_4
REMARK    3  A    between atoms: C_4  and  C_5
REMARK    4  A    between atoms: C_8  and  C_9
REMARK    5  A    between atoms: C_9  and  C_10
REMARK    6  A    between atoms: C_10  and  O_11
REMARK    7  A    between atoms: C_10  and  C_12
REMARK    8  A    between atoms: C_12  and  C_13
REMARK                            x       y       z     vdW  Elec       q    Type
REMARK                         _______ _______ _______ _____ _____    ______ ____
ROOT
ATOM      1  C   UNL     1      46.969   4.694  14.680  0.00  0.00    +0.000 A 
ATOM      2  C   UNL     1      46.766   5.861  13.943  0.00  0.00    +0.000 A 
ATOM      3  C   UNL     1      46.190   5.795  12.676  0.00  0.00    +0.000 A 
ATOM      4  C   UNL     1      45.786   4.559  12.182  0.00  0.00    +0.000 A 
ATOM      5  N   UNL     1      45.913   3.420  12.906  0.00  0.00    +0.000 NA
ATOM      6  C   UNL     1      46.520   3.505  14.115  0.00  0.00    +0.000 A 
ENDROOT
BRANCH   1   7
ATOM      7  C   UNL     1      47.596   4.735  16.044  0.00  0.00    +0.000 C 
BRANCH   7  10
ATOM      8  O   UNL     1      48.224   3.182  18.334  0.00  0.00    +0.000 OA
ATOM      9  C   UNL     1      48.959   3.174  17.358  0.00  0.00    +0.000 C 
ATOM     10  N   UNL     1      48.648   3.758  16.142  0.00  0.00    +0.000 N 
ATOM     11  H   UNL     1      49.426   3.888  15.508  0.00  0.00    +0.000 HD
BRANCH   9  12
ATOM     12  C   UNL     1      50.356   2.751  17.388  0.00  0.00    +0.000 A 
ATOM     13  C   UNL     1      50.774   1.435  17.320  0.00  0.00    +0.000 A 
ATOM     14  N   UNL     1      52.047   1.377  17.830  0.00  0.00    +0.000 N 
ATOM     15  C   UNL     1      52.489   2.643  18.134  0.00  0.00    +0.000 A 
ATOM     16  C   UNL     1      53.640   3.081  18.774  0.00  0.00    +0.000 A 
ATOM     17  N   UNL     1      53.870   4.411  18.874  0.00  0.00    +0.000 NA
ATOM     18  C   UNL     1      52.986   5.278  18.335  0.00  0.00    +0.000 A 
ATOM     19  C   UNL     1      51.789   4.911  17.745  0.00  0.00    +0.000 A 
ATOM     20  C   UNL     1      51.516   3.535  17.688  0.00  0.00    +0.000 A 
ATOM     21  H   UNL     1      52.557   0.525  18.020  0.00  0.00    +0.000 HD
ENDBRANCH   9  12
ENDBRANCH   7  10
ENDBRANCH   1   7
BRANCH   4  22
ATOM     22  C   UNL     1      45.134   4.432  10.823  0.00  0.00    +0.000 C 
BRANCH  22  23
ATOM     23  C   UNL     1      44.590   3.021  10.520  0.00  0.00    +0.000 C 
BRANCH  23  24
ATOM     24  O   UNL     1      43.440   2.746  11.331  0.00  0.00    +0.000 OA
ATOM     25  H   UNL     1      42.678   2.604  10.736  0.00  0.00    +0.000 HD
ENDBRANCH  23  24
BRANCH  23  26
ATOM     26  C   UNL     1      44.270   2.815   9.033  0.00  0.00    +0.000 C 
BRANCH  26  27
ATOM     27  C   UNL     1      45.498   2.499   8.215  0.00  0.00    +0.000 A 
ATOM     28  C   UNL     1      46.019   3.457   7.349  0.00  0.00    +0.000 A 
ATOM     29  C   UNL     1      47.145   3.149   6.592  0.00  0.00    +0.000 A 
ATOM     30  C   UNL     1      47.724   1.894   6.721  0.00  0.00    +0.000 A 
ATOM     31  C   UNL     1      47.144   0.999   7.605  0.00  0.00    +0.000 A 
ATOM     32  N   UNL     1      46.053   1.273   8.358  0.00  0.00    +0.000 NA
ENDBRANCH  26  27
ENDBRANCH  23  26
ENDBRANCH  22  23
ENDBRANCH   4  22
TORSDOF 8
ENDMDL
