MODEL 1
REMARK VINA RESULT:    -8.411      0.000      0.000
REMARK INTER + INTRA:         -12.728
REMARK INTER:                 -11.852
REMARK INTRA:                  -0.875
REMARK UNBOUND:                -0.875
REMARK  Name = 
REMARK  7 active torsions:
REMARK  status: ('A' for Active; 'I' for Inactive)
REMARK    1  A    between atoms: C_2  and  C_20
REMARK    2  A    between atoms: N_3  and  C_4
REMARK    3  A    between atoms: C_4  and  C_5
REMARK    4  A    between atoms: C_8  and  C_9
REMARK    5  A    between atoms: C_9  and  N_10
REMARK    6  A    between atoms: N_10  and  C_11
REMARK    7  A    between atoms: C_11  and  C_12
REMARK                            x       y       z     vdW  Elec       q    Type
REMARK                         _______ _______ _______ _____ _____    ______ ____
ROOT
ATOM      1  C   UNL     1      47.175   6.133  12.704  0.00  0.00    +0.000 A 
ATOM      2  C   UNL     1      46.627   6.748  11.572  0.00  0.00    +0.000 A 
ATOM      3  C   UNL     1      45.549   6.168  10.901  0.00  0.00    +0.000 A 
ATOM      4  C   UNL     1      44.992   4.964  11.351  0.00  0.00    +0.000 A 
ATOM      5  C   UNL     1      45.526   4.360  12.497  0.00  0.00    +0.000 A 
ATOM      6  C   UNL     1      46.604   4.942  13.170  0.00  0.00    +0.000 A 
ENDROOT
BRANCH   1   7
ATOM      7  C   UNL     1      48.328   6.777  13.426  0.00  0.00    +0.000 C 
BRANCH   7  10
ATOM      8  O   UNL     1      50.367   6.785  15.374  0.00  0.00    +0.000 OA
ATOM      9  C   UNL     1      49.193   6.776  15.736  0.00  0.00    +0.000 C 
ATOM     10  N   UNL     1      48.147   6.708  14.853  0.00  0.00    +0.000 N 
ATOM     11  H   UNL     1      47.212   6.907  15.187  0.00  0.00    +0.000 HD
BRANCH   9  12
ATOM     12  C   UNL     1      48.833   6.770  17.161  0.00  0.00    +0.000 A 
ATOM     13  C   UNL     1      48.374   7.935  17.760  0.00  0.00    +0.000 A 
ATOM     14  S   UNL     1      48.052   7.766  19.427  0.00  0.00    +0.000 S 
ATOM     15  C   UNL     1      48.463   6.114  19.393  0.00  0.00    +0.000 A 
ATOM     16  N   UNL     1      48.385   5.353  20.518  0.00  0.00    +0.000 NA
ATOM     17  C   UNL     1      48.675   4.108  20.340  0.00  0.00    +0.000 A 
ATOM     18  N   UNL     1      49.048   3.555  19.144  0.00  0.00    +0.000 N 
ATOM     19  C   UNL     1      49.214   4.300  17.998  0.00  0.00    +0.000 A 
ATOM     20  O   UNL     1      49.674   3.795  16.976  0.00  0.00    +0.000 OA
ATOM     21  C   UNL     1      48.860   5.701  18.134  0.00  0.00    +0.000 A 
ATOM     22  H   UNL     1      49.280   2.577  19.073  0.00  0.00    +0.000 HD
ENDBRANCH   9  12
ENDBRANCH   7  10
ENDBRANCH   1   7
BRANCH   4  23
ATOM     23  C   UNL     1      43.803   4.365  10.640  0.00  0.00    +0.000 C 
BRANCH  23  24
ATOM     24  N   UNL     1      44.183   3.262   9.748  0.00  0.00    +0.000 NA
ATOM     25  H   UNL     1      43.365   2.673   9.599  0.00  0.00    +0.000 HD
BRANCH  24  26
ATOM     26  C   UNL     1      44.661   3.801   8.476  0.00  0.00    +0.000 C 
BRANCH  26  27
ATOM     27  C   UNL     1      45.606   2.888   7.677  0.00  0.00    +0.000 C 
ATOM     28  C   UNL     1      46.858   3.583   7.127  0.00  0.00    +0.000 C 
ATOM     29  C   UNL     1      47.617   2.615   6.213  0.00  0.00    +0.000 C 
ATOM     30  N   UNL     1      47.988   1.371   6.898  0.00  0.00    +0.000 NA
ATOM     31  C   UNL     1      46.824   0.709   7.494  0.00  0.00    +0.000 C 
ATOM     32  C   UNL     1      46.049   1.632   8.438  0.00  0.00    +0.000 C 
ATOM     33  H   UNL     1      48.654   1.594   7.638  0.00  0.00    +0.000 HD
ENDBRANCH  26  27
ENDBRANCH  24  26
ENDBRANCH  23  24
ENDBRANCH   4  23
TORSDOF 7
ENDMDL
MODEL 2
REMARK VINA RESULT:    -8.136      1.313      1.965
REMARK INTER + INTRA:         -12.340
REMARK INTER:                 -11.576
REMARK INTRA:                  -0.764
REMARK UNBOUND:                -0.875
REMARK  Name = 
REMARK  7 active torsions:
REMARK  status: ('A' for Active; 'I' for Inactive)
REMARK    1  A    between atoms: C_2  and  C_20
REMARK    2  A    between atoms: N_3  and  C_4
REMARK    3  A    between atoms: C_4  and  C_5
REMARK    4  A    between atoms: C_8  and  C_9
REMARK    5  A    between atoms: C_9  and  N_10
REMARK    6  A    between atoms: N_10  and  C_11
REMARK    7  A    between atoms: C_11  and  C_12
REMARK                            x       y       z     vdW  Elec       q    Type
REMARK                         _______ _______ _______ _____ _____    ______ ____
ROOT
ATOM      1  C   UNL     1      46.854   6.169  12.904  0.00  0.00    +0.000 A 
ATOM      2  C   UNL     1      46.650   6.608  11.590  0.00  0.00    +0.000 A 
ATOM      3  C   UNL     1      45.629   6.060  10.811  0.00  0.00    +0.000 A 
ATOM      4  C   UNL     1      44.787   5.069  11.329  0.00  0.00    +0.000 A 
ATOM      5  C   UNL     1      44.976   4.647  12.652  0.00  0.00    +0.000 A 
ATOM      6  C   UNL     1      45.996   5.196  13.433  0.00  0.00    +0.000 A 
ENDROOT
BRANCH   1   7
ATOM      7  C   UNL     1      47.949   6.778  13.739  0.00  0.00    +0.000 C 
BRANCH   7  10
ATOM      8  O   UNL     1      50.116   6.631  15.537  0.00  0.00    +0.000 OA
ATOM      9  C   UNL     1      48.997   6.298  15.920  0.00  0.00    +0.000 C 
ATOM     10  N   UNL     1      47.906   6.281  15.089  0.00  0.00    +0.000 N 
ATOM     11  H   UNL     1      46.983   6.196  15.497  0.00  0.00    +0.000 HD
BRANCH   9  12
ATOM     12  C   UNL     1      48.767   5.826  17.292  0.00  0.00    +0.000 A 
ATOM     13  C   UNL     1      49.004   4.495  17.611  0.00  0.00    +0.000 A 
ATOM     14  S   UNL     1      48.637   4.105  19.230  0.00  0.00    +0.000 S 
ATOM     15  C   UNL     1      48.202   5.713  19.576  0.00  0.00    +0.000 A 
ATOM     16  N   UNL     1      47.798   6.074  20.825  0.00  0.00    +0.000 NA
ATOM     17  C   UNL     1      47.547   7.333  20.960  0.00  0.00    +0.000 A 
ATOM     18  N   UNL     1      47.651   8.263  19.961  0.00  0.00    +0.000 N 
ATOM     19  C   UNL     1      47.981   7.933  18.666  0.00  0.00    +0.000 A 
ATOM     20  O   UNL     1      47.938   8.771  17.768  0.00  0.00    +0.000 OA
ATOM     21  C   UNL     1      48.314   6.534  18.468  0.00  0.00    +0.000 A 
ATOM     22  H   UNL     1      47.423   9.231  20.126  0.00  0.00    +0.000 HD
ENDBRANCH   9  12
ENDBRANCH   7  10
ENDBRANCH   1   7
BRANCH   4  23
ATOM     23  C   UNL     1      43.663   4.512  10.490  0.00  0.00    +0.000 C 
BRANCH  23  24
ATOM     24  N   UNL     1      44.096   3.385   9.653  0.00  0.00    +0.000 NA
ATOM     25  H   UNL     1      43.289   2.791   9.471  0.00  0.00    +0.000 HD
BRANCH  24  26
ATOM     26  C   UNL     1      44.651   3.890   8.398  0.00  0.00    +0.000 C 
BRANCH  26  27
ATOM     27  C   UNL     1      45.567   2.919   7.635  0.00  0.00    +0.000 C 
ATOM     28  C   UNL     1      46.795   3.570   6.985  0.00  0.00    +0.000 C 
ATOM     29  C   UNL     1      47.520   2.536   6.119  0.00  0.00    +0.000 C 
ATOM     30  N   UNL     1      47.921   1.348   6.881  0.00  0.00    +0.000 NA
ATOM     31  C   UNL     1      46.783   0.733   7.571  0.00  0.00    +0.000 C 
ATOM     32  C   UNL     1      46.043   1.725   8.471  0.00  0.00    +0.000 C 
ATOM     33  H   UNL     1      48.615   1.626   7.575  0.00  0.00    +0.000 HD
ENDBRANCH  26  27
ENDBRANCH  24  26
ENDBRANCH  23  24
ENDBRANCH   4  23
TORSDOF 7
ENDMDL
MODEL 3
REMARK VINA RESULT:    -7.862      2.368      3.892
REMARK INTER + INTRA:         -11.955
REMARK INTER:                 -10.782
REMARK INTRA:                  -1.173
REMARK UNBOUND:                -0.875
REMARK  Name = 
REMARK  7 active torsions:
REMARK  status: ('A' for Active; 'I' for Inactive)
REMARK    1  A    between atoms: C_2  and  C_20
REMARK    2  A    between atoms: N_3  and  C_4
REMARK    3  A    between atoms: C_4  and  C_5
REMARK    4  A    between atoms: C_8  and  C_9
REMARK    5  A    between atoms: C_9  and  N_10
REMARK    6  A    between atoms: N_10  and  C_11
REMARK    7  A    between atoms: C_11  and  C_12
REMARK                            x       y       z     vdW  Elec       q    Type
REMARK                         _______ _______ _______ _____ _____    ______ ____
ROOT
ATOM      1  C   UNL     1      46.237   4.654  13.675  0.00  0.00    +0.000 A 
ATOM      2  C   UNL     1      45.547   5.797  13.251  0.00  0.00    +0.000 A 
ATOM      3  C   UNL     1      44.689   5.739  12.152  0.00  0.00    +0.000 A 
ATOM      4  C   UNL     1      44.498   4.539  11.455  0.00  0.00    +0.000 A 
ATOM      5  C   UNL     1      45.171   3.391  11.894  0.00  0.00    +0.000 A 
ATOM      6  C   UNL     1      46.027   3.447  12.997  0.00  0.00    +0.000 A 
ENDROOT
BRANCH   1   7
ATOM      7  C   UNL     1      47.147   4.725  14.872  0.00  0.00    +0.000 C 
BRANCH   7  10
ATOM      8  O   UNL     1      49.341   5.370  16.521  0.00  0.00    +0.000 OA
ATOM      9  C   UNL     1      48.935   6.202  15.713  0.00  0.00    +0.000 C 
ATOM     10  N   UNL     1      47.836   5.989  14.922  0.00  0.00    +0.000 N 
ATOM     11  H   UNL     1      47.667   6.612  14.142  0.00  0.00    +0.000 HD
BRANCH   9  12
ATOM     12  C   UNL     1      49.569   7.522  15.591  0.00  0.00    +0.000 A 
ATOM     13  C   UNL     1      49.884   8.243  16.735  0.00  0.00    +0.000 A 
ATOM     14  S   UNL     1      50.565   9.773  16.412  0.00  0.00    +0.000 S 
ATOM     15  C   UNL     1      50.512   9.503  14.733  0.00  0.00    +0.000 A 
ATOM     16  N   UNL     1      50.974  10.440  13.860  0.00  0.00    +0.000 NA
ATOM     17  C   UNL     1      50.921  10.084  12.621  0.00  0.00    +0.000 A 
ATOM     18  N   UNL     1      50.438   8.885  12.171  0.00  0.00    +0.000 N 
ATOM     19  C   UNL     1      49.892   7.939  13.009  0.00  0.00    +0.000 A 
ATOM     20  O   UNL     1      49.350   6.931  12.559  0.00  0.00    +0.000 OA
ATOM     21  C   UNL     1      49.964   8.272  14.420  0.00  0.00    +0.000 A 
ATOM     22  H   UNL     1      50.407   8.673  11.186  0.00  0.00    +0.000 HD
ENDBRANCH   9  12
ENDBRANCH   7  10
ENDBRANCH   1   7
BRANCH   4  23
ATOM     23  C   UNL     1      43.539   4.481  10.291  0.00  0.00    +0.000 C 
BRANCH  23  24
ATOM     24  N   UNL     1      43.891   3.427   9.330  0.00  0.00    +0.000 NA
ATOM     25  H   UNL     1      43.032   3.073   8.913  0.00  0.00    +0.000 HD
BRANCH  24  26
ATOM     26  C   UNL     1      44.771   3.975   8.299  0.00  0.00    +0.000 C 
BRANCH  26  27
ATOM     27  C   UNL     1      45.674   2.958   7.583  0.00  0.00    +0.000 C 
ATOM     28  C   UNL     1      46.956   3.549   6.982  0.00  0.00    +0.000 C 
ATOM     29  C   UNL     1      47.671   2.476   6.154  0.00  0.00    +0.000 C 
ATOM     30  N   UNL     1      47.986   1.278   6.942  0.00  0.00    +0.000 NA
ATOM     31  C   UNL     1      46.794   0.720   7.586  0.00  0.00    +0.000 C 
ATOM     32  C   UNL     1      46.061   1.751   8.447  0.00  0.00    +0.000 C 
ATOM     33  H   UNL     1      48.662   1.531   7.663  0.00  0.00    +0.000 HD
ENDBRANCH  26  27
ENDBRANCH  24  26
ENDBRANCH  23  24
ENDBRANCH   4  23
TORSDOF 7
ENDMDL
MODEL 4
REMARK VINA RESULT:    -7.841      1.814      2.564
REMARK INTER + INTRA:         -11.925
REMARK INTER:                 -10.941
REMARK INTRA:                  -0.984
REMARK UNBOUND:                -0.875
REMARK  Name = 
REMARK  7 active torsions:
REMARK  status: ('A' for Active; 'I' for Inactive)
REMARK    1  A    between atoms: C_2  and  C_20
REMARK    2  A    between atoms: N_3  and  C_4
REMARK    3  A    between atoms: C_4  and  C_5
REMARK    4  A    between atoms: C_8  and  C_9
REMARK    5  A    between atoms: C_9  and  N_10
REMARK    6  A    between atoms: N_10  and  C_11
REMARK    7  A    between atoms: C_11  and  C_12
REMARK                            x       y       z     vdW  Elec       q    Type
REMARK                         _______ _______ _______ _____ _____    ______ ____
ROOT
ATOM      1  C   UNL     1      46.374   4.375  13.730  0.00  0.00    +0.000 A 
ATOM      2  C   UNL     1      46.018   3.218  13.027  0.00  0.00    +0.000 A 
ATOM      3  C   UNL     1      45.151   3.291  11.935  0.00  0.00    +0.000 A 
ATOM      4  C   UNL     1      44.627   4.521  11.519  0.00  0.00    +0.000 A 
ATOM      5  C   UNL     1      45.003   5.682  12.208  0.00  0.00    +0.000 A 
ATOM      6  C   UNL     1      45.872   5.610  13.300  0.00  0.00    +0.000 A 
ENDROOT
BRANCH   1   7
ATOM      7  C   UNL     1      47.321   4.285  14.897  0.00  0.00    +0.000 C 
BRANCH   7  10
ATOM      8  O   UNL     1      49.452   5.034  16.585  0.00  0.00    +0.000 OA
ATOM      9  C   UNL     1      48.615   5.876  16.268  0.00  0.00    +0.000 C 
ATOM     10  N   UNL     1      47.517   5.576  15.504  0.00  0.00    +0.000 N 
ATOM     11  H   UNL     1      46.977   6.335  15.107  0.00  0.00    +0.000 HD
BRANCH   9  12
ATOM     12  C   UNL     1      48.704   7.261  16.750  0.00  0.00    +0.000 A 
ATOM     13  C   UNL     1      49.200   8.251  15.912  0.00  0.00    +0.000 A 
ATOM     14  S   UNL     1      49.284   9.789  16.646  0.00  0.00    +0.000 S 
ATOM     15  C   UNL     1      48.609   9.195  18.091  0.00  0.00    +0.000 A 
ATOM     16  N   UNL     1      48.388  10.022  19.150  0.00  0.00    +0.000 NA
ATOM     17  C   UNL     1      47.825   9.453  20.162  0.00  0.00    +0.000 A 
ATOM     18  N   UNL     1      47.473   8.131  20.220  0.00  0.00    +0.000 N 
ATOM     19  C   UNL     1      47.746   7.242  19.205  0.00  0.00    +0.000 A 
ATOM     20  O   UNL     1      47.534   6.038  19.343  0.00  0.00    +0.000 OA
ATOM     21  C   UNL     1      48.342   7.840  18.024  0.00  0.00    +0.000 A 
ATOM     22  H   UNL     1      47.051   7.741  21.048  0.00  0.00    +0.000 HD
ENDBRANCH   9  12
ENDBRANCH   7  10
ENDBRANCH   1   7
BRANCH   4  23
ATOM     23  C   UNL     1      43.721   4.592  10.313  0.00  0.00    +0.000 C 
BRANCH  23  24
ATOM     24  N   UNL     1      43.936   3.471   9.388  0.00  0.00    +0.000 NA
ATOM     25  H   UNL     1      43.028   3.088   9.131  0.00  0.00    +0.000 HD
BRANCH  24  26
ATOM     26  C   UNL     1      44.645   3.944   8.200  0.00  0.00    +0.000 C 
BRANCH  26  27
ATOM     27  C   UNL     1      45.592   2.930   7.539  0.00  0.00    +0.000 C 
ATOM     28  C   UNL     1      46.874   3.534   6.953  0.00  0.00    +0.000 C 
ATOM     29  C   UNL     1      47.637   2.455   6.178  0.00  0.00    +0.000 C 
ATOM     30  N   UNL     1      47.961   1.290   7.010  0.00  0.00    +0.000 NA
ATOM     31  C   UNL     1      46.767   0.722   7.641  0.00  0.00    +0.000 C 
ATOM     32  C   UNL     1      45.986   1.761   8.451  0.00  0.00    +0.000 C 
ATOM     33  H   UNL     1      48.611   1.584   7.740  0.00  0.00    +0.000 HD
ENDBRANCH  26  27
ENDBRANCH  24  26
ENDBRANCH  23  24
ENDBRANCH   4  23
TORSDOF 7
ENDMDL
MODEL 5
REMARK VINA RESULT:    -7.379      2.321      2.993
REMARK INTER + INTRA:         -11.273
REMARK INTER:                 -10.377
REMARK INTRA:                  -0.896
REMARK UNBOUND:                -0.875
REMARK  Name = 
REMARK  7 active torsions:
REMARK  status: ('A' for Active; 'I' for Inactive)
REMARK    1  A    between atoms: C_2  and  C_20
REMARK    2  A    between atoms: N_3  and  C_4
REMARK    3  A    between atoms: C_4  and  C_5
REMARK    4  A    between atoms: C_8  and  C_9
REMARK    5  A    between atoms: C_9  and  N_10
REMARK    6  A    between atoms: N_10  and  C_11
REMARK    7  A    between atoms: C_11  and  C_12
REMARK                            x       y       z     vdW  Elec       q    Type
REMARK                         _______ _______ _______ _____ _____    ______ ____
ROOT
ATOM      1  C   UNL     1      46.198   4.489  13.677  0.00  0.00    +0.000 A 
ATOM      2  C   UNL     1      45.601   5.687  13.263  0.00  0.00    +0.000 A 
ATOM      3  C   UNL     1      44.779   5.715  12.136  0.00  0.00    +0.000 A 
ATOM      4  C   UNL     1      44.530   4.549  11.401  0.00  0.00    +0.000 A 
ATOM      5  C   UNL     1      45.108   3.347  11.830  0.00  0.00    +0.000 A 
ATOM      6  C   UNL     1      45.930   3.316  12.960  0.00  0.00    +0.000 A 
ENDROOT
BRANCH   1   7
ATOM      7  C   UNL     1      47.071   4.469  14.903  0.00  0.00    +0.000 C 
BRANCH   7  10
ATOM      8  O   UNL     1      48.398   5.406  17.208  0.00  0.00    +0.000 OA
ATOM      9  C   UNL     1      48.497   6.041  16.160  0.00  0.00    +0.000 C 
ATOM     10  N   UNL     1      47.833   5.686  15.015  0.00  0.00    +0.000 N 
ATOM     11  H   UNL     1      48.104   6.116  14.139  0.00  0.00    +0.000 HD
BRANCH   9  12
ATOM     12  C   UNL     1      49.292   7.274  16.087  0.00  0.00    +0.000 A 
ATOM     13  C   UNL     1      48.665   8.481  15.806  0.00  0.00    +0.000 A 
ATOM     14  S   UNL     1      49.740   9.802  15.706  0.00  0.00    +0.000 S 
ATOM     15  C   UNL     1      51.073   8.816  16.088  0.00  0.00    +0.000 A 
ATOM     16  N   UNL     1      52.325   9.342  16.186  0.00  0.00    +0.000 NA
ATOM     17  C   UNL     1      53.233   8.493  16.532  0.00  0.00    +0.000 A 
ATOM     18  N   UNL     1      53.010   7.165  16.778  0.00  0.00    +0.000 N 
ATOM     19  C   UNL     1      51.777   6.574  16.619  0.00  0.00    +0.000 A 
ATOM     20  O   UNL     1      51.639   5.357  16.723  0.00  0.00    +0.000 OA
ATOM     21  C   UNL     1      50.709   7.494  16.270  0.00  0.00    +0.000 A 
ATOM     22  H   UNL     1      53.767   6.548  17.029  0.00  0.00    +0.000 HD
ENDBRANCH   9  12
ENDBRANCH   7  10
ENDBRANCH   1   7
BRANCH   4  23
ATOM     23  C   UNL     1      43.608   4.586  10.206  0.00  0.00    +0.000 C 
BRANCH  23  24
ATOM     24  N   UNL     1      43.929   3.544   9.222  0.00  0.00    +0.000 NA
ATOM     25  H   UNL     1      43.074   3.294   8.728  0.00  0.00    +0.000 HD
BRANCH  24  26
ATOM     26  C   UNL     1      44.931   4.047   8.283  0.00  0.00    +0.000 C 
BRANCH  26  27
ATOM     27  C   UNL     1      45.772   2.977   7.567  0.00  0.00    +0.000 C 
ATOM     28  C   UNL     1      47.075   3.494   6.945  0.00  0.00    +0.000 C 
ATOM     29  C   UNL     1      47.723   2.377   6.120  0.00  0.00    +0.000 C 
ATOM     30  N   UNL     1      47.985   1.172   6.917  0.00  0.00    +0.000 NA
ATOM     31  C   UNL     1      46.773   0.684   7.581  0.00  0.00    +0.000 C 
ATOM     32  C   UNL     1      46.106   1.761   8.440  0.00  0.00    +0.000 C 
ATOM     33  H   UNL     1      48.682   1.397   7.627  0.00  0.00    +0.000 HD
ENDBRANCH  26  27
ENDBRANCH  24  26
ENDBRANCH  23  24
ENDBRANCH   4  23
TORSDOF 7
ENDMDL
MODEL 6
REMARK VINA RESULT:    -7.351      3.421      8.813
REMARK INTER + INTRA:         -11.234
REMARK INTER:                  -9.910
REMARK INTRA:                  -1.324
REMARK UNBOUND:                -0.875
REMARK  Name = 
REMARK  7 active torsions:
REMARK  status: ('A' for Active; 'I' for Inactive)
REMARK    1  A    between atoms: C_2  and  C_20
REMARK    2  A    between atoms: N_3  and  C_4
REMARK    3  A    between atoms: C_4  and  C_5
REMARK    4  A    between atoms: C_8  and  C_9
REMARK    5  A    between atoms: C_9  and  N_10
REMARK    6  A    between atoms: N_10  and  C_11
REMARK    7  A    between atoms: C_11  and  C_12
REMARK                            x       y       z     vdW  Elec       q    Type
REMARK                         _______ _______ _______ _____ _____    ______ ____
ROOT
ATOM      1  C   UNL     1      48.034   7.909  13.439  0.00  0.00    +0.000 A 
ATOM      2  C   UNL     1      47.656   8.788  14.461  0.00  0.00    +0.000 A 
ATOM      3  C   UNL     1      48.342   8.799  15.676  0.00  0.00    +0.000 A 
ATOM      4  C   UNL     1      49.424   7.937  15.895  0.00  0.00    +0.000 A 
ATOM      5  C   UNL     1      49.817   7.074  14.864  0.00  0.00    +0.000 A 
ATOM      6  C   UNL     1      49.132   7.064  13.646  0.00  0.00    +0.000 A 
ENDROOT
BRANCH   1   7
ATOM      7  C   UNL     1      47.296   7.917  12.127  0.00  0.00    +0.000 C 
BRANCH   7  10
ATOM      8  O   UNL     1      44.558   7.623  11.519  0.00  0.00    +0.000 OA
ATOM      9  C   UNL     1      45.271   6.623  11.570  0.00  0.00    +0.000 C 
ATOM     10  N   UNL     1      46.595   6.676  11.921  0.00  0.00    +0.000 N 
ATOM     11  H   UNL     1      47.178   5.865  11.752  0.00  0.00    +0.000 HD
BRANCH   9  12
ATOM     12  C   UNL     1      44.725   5.281  11.322  0.00  0.00    +0.000 A 
ATOM     13  C   UNL     1      43.907   4.684  12.271  0.00  0.00    +0.000 A 
ATOM     14  S   UNL     1      43.404   3.110  11.847  0.00  0.00    +0.000 S 
ATOM     15  C   UNL     1      44.219   3.194  10.355  0.00  0.00    +0.000 A 
ATOM     16  N   UNL     1      44.177   2.154   9.477  0.00  0.00    +0.000 NA
ATOM     17  C   UNL     1      44.794   2.371   8.365  0.00  0.00    +0.000 A 
ATOM     18  N   UNL     1      45.461   3.525   8.052  0.00  0.00    +0.000 N 
ATOM     19  C   UNL     1      45.594   4.572   8.937  0.00  0.00    +0.000 A 
ATOM     20  O   UNL     1      46.308   5.537   8.672  0.00  0.00    +0.000 OA
ATOM     21  C   UNL     1      44.882   4.396  10.190  0.00  0.00    +0.000 A 
ATOM     22  H   UNL     1      45.940   3.626   7.171  0.00  0.00    +0.000 HD
ENDBRANCH   9  12
ENDBRANCH   7  10
ENDBRANCH   1   7
BRANCH   4  23
ATOM     23  C   UNL     1      50.181   7.985  17.200  0.00  0.00    +0.000 C 
BRANCH  23  24
ATOM     24  N   UNL     1      50.715   6.671  17.583  0.00  0.00    +0.000 NA
ATOM     25  H   UNL     1      51.545   6.817  18.157  0.00  0.00    +0.000 HD
BRANCH  24  26
ATOM     26  C   UNL     1      49.702   5.928  18.331  0.00  0.00    +0.000 C 
BRANCH  26  27
ATOM     27  C   UNL     1      49.506   4.462  17.914  0.00  0.00    +0.000 C 
ATOM     28  C   UNL     1      48.440   4.239  16.833  0.00  0.00    +0.000 C 
ATOM     29  C   UNL     1      48.222   2.735  16.637  0.00  0.00    +0.000 C 
ATOM     30  N   UNL     1      49.460   2.030  16.281  0.00  0.00    +0.000 NA
ATOM     31  C   UNL     1      50.525   2.272  17.259  0.00  0.00    +0.000 C 
ATOM     32  C   UNL     1      50.797   3.764  17.467  0.00  0.00    +0.000 C 
ATOM     33  H   UNL     1      49.770   2.361  15.368  0.00  0.00    +0.000 HD
ENDBRANCH  26  27
ENDBRANCH  24  26
ENDBRANCH  23  24
ENDBRANCH   4  23
TORSDOF 7
ENDMDL
MODEL 7
REMARK VINA RESULT:    -7.311      3.681      8.459
REMARK INTER + INTRA:         -11.179
REMARK INTER:                 -10.123
REMARK INTRA:                  -1.055
REMARK UNBOUND:                -0.875
REMARK  Name = 
REMARK  7 active torsions:
REMARK  status: ('A' for Active; 'I' for Inactive)
REMARK    1  A    between atoms: C_2  and  C_20
REMARK    2  A    between atoms: N_3  and  C_4
REMARK    3  A    between atoms: C_4  and  C_5
REMARK    4  A    between atoms: C_8  and  C_9
REMARK    5  A    between atoms: C_9  and  N_10
REMARK    6  A    between atoms: N_10  and  C_11
REMARK    7  A    between atoms: C_11  and  C_12
REMARK                            x       y       z     vdW  Elec       q    Type
REMARK                         _______ _______ _______ _____ _____    ______ ____
ROOT
ATOM      1  C   UNL     1      48.960   7.716  13.392  0.00  0.00    +0.000 A 
ATOM      2  C   UNL     1      50.259   8.153  13.681  0.00  0.00    +0.000 A 
ATOM      3  C   UNL     1      50.850   7.854  14.909  0.00  0.00    +0.000 A 
ATOM      4  C   UNL     1      50.160   7.108  15.873  0.00  0.00    +0.000 A 
ATOM      5  C   UNL     1      48.870   6.650  15.574  0.00  0.00    +0.000 A 
ATOM      6  C   UNL     1      48.278   6.947  14.344  0.00  0.00    +0.000 A 
ENDROOT
BRANCH   1   7
ATOM      7  C   UNL     1      48.339   8.032  12.058  0.00  0.00    +0.000 C 
BRANCH   7  10
ATOM      8  O   UNL     1      45.543   7.899  11.723  0.00  0.00    +0.000 OA
ATOM      9  C   UNL     1      46.234   6.946  11.370  0.00  0.00    +0.000 C 
ATOM     10  N   UNL     1      47.591   6.909  11.557  0.00  0.00    +0.000 N 
ATOM     11  H   UNL     1      48.132   6.202  11.072  0.00  0.00    +0.000 HD
BRANCH   9  12
ATOM     12  C   UNL     1      45.633   5.743  10.778  0.00  0.00    +0.000 A 
ATOM     13  C   UNL     1      45.825   5.469   9.431  0.00  0.00    +0.000 A 
ATOM     14  S   UNL     1      45.017   4.065   8.897  0.00  0.00    +0.000 S 
ATOM     15  C   UNL     1      44.425   3.746  10.460  0.00  0.00    +0.000 A 
ATOM     16  N   UNL     1      43.656   2.650  10.705  0.00  0.00    +0.000 NA
ATOM     17  C   UNL     1      43.319   2.502  11.942  0.00  0.00    +0.000 A 
ATOM     18  N   UNL     1      43.669   3.352  12.956  0.00  0.00    +0.000 N 
ATOM     19  C   UNL     1      44.381   4.512  12.744  0.00  0.00    +0.000 A 
ATOM     20  O   UNL     1      44.566   5.317  13.654  0.00  0.00    +0.000 OA
ATOM     21  C   UNL     1      44.821   4.706  11.374  0.00  0.00    +0.000 A 
ATOM     22  H   UNL     1      43.359   3.191  13.901  0.00  0.00    +0.000 HD
ENDBRANCH   9  12
ENDBRANCH   7  10
ENDBRANCH   1   7
BRANCH   4  23
ATOM     23  C   UNL     1      50.825   6.758  17.183  0.00  0.00    +0.000 C 
BRANCH  23  24
ATOM     24  N   UNL     1      49.853   6.392  18.221  0.00  0.00    +0.000 NA
ATOM     25  H   UNL     1      48.957   6.209  17.772  0.00  0.00    +0.000 HD
BRANCH  24  26
ATOM     26  C   UNL     1      50.319   5.202  18.932  0.00  0.00    +0.000 C 
BRANCH  26  27
ATOM     27  C   UNL     1      49.996   3.856  18.264  0.00  0.00    +0.000 C 
ATOM     28  C   UNL     1      48.791   3.883  17.315  0.00  0.00    +0.000 C 
ATOM     29  C   UNL     1      48.472   2.455  16.858  0.00  0.00    +0.000 C 
ATOM     30  N   UNL     1      49.616   1.807  16.206  0.00  0.00    +0.000 NA
ATOM     31  C   UNL     1      50.808   1.820  17.059  0.00  0.00    +0.000 C 
ATOM     32  C   UNL     1      51.181   3.231  17.518  0.00  0.00    +0.000 C 
ATOM     33  H   UNL     1      49.824   2.308  15.342  0.00  0.00    +0.000 HD
ENDBRANCH  26  27
ENDBRANCH  24  26
ENDBRANCH  23  24
ENDBRANCH   4  23
TORSDOF 7
ENDMDL
MODEL 8
REMARK VINA RESULT:    -7.092      3.647      8.215
REMARK INTER + INTRA:         -10.870
REMARK INTER:                  -8.351
REMARK INTRA:                  -2.519
REMARK UNBOUND:                -0.875
REMARK  Name = 
REMARK  7 active torsions:
REMARK  status: ('A' for Active; 'I' for Inactive)
REMARK    1  A    between atoms: C_2  and  C_20
REMARK    2  A    between atoms: N_3  and  C_4
REMARK    3  A    between atoms: C_4  and  C_5
REMARK    4  A    between atoms: C_8  and  C_9
REMARK    5  A    between atoms: C_9  and  N_10
REMARK    6  A    between atoms: N_10  and  C_11
REMARK    7  A    between atoms: C_11  and  C_12
REMARK                            x       y       z     vdW  Elec       q    Type
REMARK                         _______ _______ _______ _____ _____    ______ ____
ROOT
ATOM      1  C   UNL     1      48.777   8.577  16.303  0.00  0.00    +0.000 A 
ATOM      2  C   UNL     1      48.257   8.916  17.559  0.00  0.00    +0.000 A 
ATOM      3  C   UNL     1      48.785   8.349  18.720  0.00  0.00    +0.000 A 
ATOM      4  C   UNL     1      49.847   7.438  18.654  0.00  0.00    +0.000 A 
ATOM      5  C   UNL     1      50.382   7.118  17.399  0.00  0.00    +0.000 A 
ATOM      6  C   UNL     1      49.856   7.686  16.236  0.00  0.00    +0.000 A 
ENDROOT
BRANCH   1   7
ATOM      7  C   UNL     1      48.209   9.206  15.059  0.00  0.00    +0.000 C 
BRANCH   7  10
ATOM      8  O   UNL     1      47.494   9.182  12.332  0.00  0.00    +0.000 OA
ATOM      9  C   UNL     1      46.996   8.352  13.089  0.00  0.00    +0.000 C 
ATOM     10  N   UNL     1      47.243   8.338  14.437  0.00  0.00    +0.000 N 
ATOM     11  H   UNL     1      46.974   7.523  14.975  0.00  0.00    +0.000 HD
BRANCH   9  12
ATOM     12  C   UNL     1      46.037   7.351  12.601  0.00  0.00    +0.000 A 
ATOM     13  C   UNL     1      44.965   7.750  11.814  0.00  0.00    +0.000 A 
ATOM     14  S   UNL     1      43.924   6.472  11.378  0.00  0.00    +0.000 S 
ATOM     15  C   UNL     1      44.900   5.331  12.180  0.00  0.00    +0.000 A 
ATOM     16  N   UNL     1      44.574   4.010  12.178  0.00  0.00    +0.000 NA
ATOM     17  C   UNL     1      45.427   3.251  12.780  0.00  0.00    +0.000 A 
ATOM     18  N   UNL     1      46.570   3.690  13.394  0.00  0.00    +0.000 N 
ATOM     19  C   UNL     1      46.900   5.023  13.486  0.00  0.00    +0.000 A 
ATOM     20  O   UNL     1      47.864   5.392  14.156  0.00  0.00    +0.000 OA
ATOM     21  C   UNL     1      45.994   5.918  12.790  0.00  0.00    +0.000 A 
ATOM     22  H   UNL     1      47.188   3.047  13.863  0.00  0.00    +0.000 HD
ENDBRANCH   9  12
ENDBRANCH   7  10
ENDBRANCH   1   7
BRANCH   4  23
ATOM     23  C   UNL     1      50.434   6.862  19.920  0.00  0.00    +0.000 C 
BRANCH  23  24
ATOM     24  N   UNL     1      50.519   5.396  19.878  0.00  0.00    +0.000 NA
ATOM     25  H   UNL     1      51.125   5.088  20.637  0.00  0.00    +0.000 HD
BRANCH  24  26
ATOM     26  C   UNL     1      49.183   4.822  20.028  0.00  0.00    +0.000 C 
BRANCH  26  27
ATOM     27  C   UNL     1      48.698   3.945  18.862  0.00  0.00    +0.000 C 
ATOM     28  C   UNL     1      47.603   4.578  17.994  0.00  0.00    +0.000 C 
ATOM     29  C   UNL     1      47.090   3.544  16.986  0.00  0.00    +0.000 C 
ATOM     30  N   UNL     1      48.163   3.008  16.139  0.00  0.00    +0.000 NA
ATOM     31  C   UNL     1      49.260   2.451  16.935  0.00  0.00    +0.000 C 
ATOM     32  C   UNL     1      49.823   3.461  17.938  0.00  0.00    +0.000 C 
ATOM     33  H   UNL     1      48.527   3.765  15.559  0.00  0.00    +0.000 HD
ENDBRANCH  26  27
ENDBRANCH  24  26
ENDBRANCH  23  24
ENDBRANCH   4  23
TORSDOF 7
ENDMDL
MODEL 9
REMARK VINA RESULT:    -7.090      3.915      9.244
REMARK INTER + INTRA:         -10.867
REMARK INTER:                  -9.222
REMARK INTRA:                  -1.645
REMARK UNBOUND:                -0.875
REMARK  Name = 
REMARK  7 active torsions:
REMARK  status: ('A' for Active; 'I' for Inactive)
REMARK    1  A    between atoms: C_2  and  C_20
REMARK    2  A    between atoms: N_3  and  C_4
REMARK    3  A    between atoms: C_4  and  C_5
REMARK    4  A    between atoms: C_8  and  C_9
REMARK    5  A    between atoms: C_9  and  N_10
REMARK    6  A    between atoms: N_10  and  C_11
REMARK    7  A    between atoms: C_11  and  C_12
REMARK                            x       y       z     vdW  Elec       q    Type
REMARK                         _______ _______ _______ _____ _____    ______ ____
ROOT
ATOM      1  C   UNL     1      48.205   4.156  17.504  0.00  0.00    +0.000 A 
ATOM      2  C   UNL     1      47.581   5.010  18.421  0.00  0.00    +0.000 A 
ATOM      3  C   UNL     1      48.328   5.673  19.395  0.00  0.00    +0.000 A 
ATOM      4  C   UNL     1      49.717   5.503  19.471  0.00  0.00    +0.000 A 
ATOM      5  C   UNL     1      50.345   4.667  18.537  0.00  0.00    +0.000 A 
ATOM      6  C   UNL     1      49.597   4.005  17.561  0.00  0.00    +0.000 A 
ENDROOT
BRANCH   1   7
ATOM      7  C   UNL     1      47.389   3.459  16.449  0.00  0.00    +0.000 C 
BRANCH   7  10
ATOM      8  O   UNL     1      47.430   3.331  13.633  0.00  0.00    +0.000 OA
ATOM      9  C   UNL     1      46.813   4.241  14.181  0.00  0.00    +0.000 C 
ATOM     10  N   UNL     1      46.798   4.408  15.542  0.00  0.00    +0.000 N 
ATOM     11  H   UNL     1      46.119   5.040  15.949  0.00  0.00    +0.000 HD
BRANCH   9  12
ATOM     12  C   UNL     1      46.098   5.260  13.400  0.00  0.00    +0.000 A 
ATOM     13  C   UNL     1      46.669   6.512  13.217  0.00  0.00    +0.000 A 
ATOM     14  S   UNL     1      45.685   7.589  12.333  0.00  0.00    +0.000 S 
ATOM     15  C   UNL     1      44.485   6.401  12.118  0.00  0.00    +0.000 A 
ATOM     16  N   UNL     1      43.353   6.672  11.413  0.00  0.00    +0.000 NA
ATOM     17  C   UNL     1      42.553   5.668  11.284  0.00  0.00    +0.000 A 
ATOM     18  N   UNL     1      42.773   4.420  11.803  0.00  0.00    +0.000 N 
ATOM     19  C   UNL     1      43.866   4.120  12.586  0.00  0.00    +0.000 A 
ATOM     20  O   UNL     1      43.966   3.029  13.142  0.00  0.00    +0.000 OA
ATOM     21  C   UNL     1      44.820   5.206  12.728  0.00  0.00    +0.000 A 
ATOM     22  H   UNL     1      42.100   3.680  11.683  0.00  0.00    +0.000 HD
ENDBRANCH   9  12
ENDBRANCH   7  10
ENDBRANCH   1   7
BRANCH   4  23
ATOM     23  C   UNL     1      50.519   6.255  20.504  0.00  0.00    +0.000 C 
BRANCH  23  24
ATOM     24  N   UNL     1      50.366   7.711  20.379  0.00  0.00    +0.000 NA
ATOM     25  H   UNL     1      50.811   8.151  21.182  0.00  0.00    +0.000 HD
BRANCH  24  26
ATOM     26  C   UNL     1      50.991   8.165  19.137  0.00  0.00    +0.000 C 
BRANCH  26  27
ATOM     27  C   UNL     1      50.048   8.818  18.115  0.00  0.00    +0.000 C 
ATOM     28  C   UNL     1      49.807   7.994  16.843  0.00  0.00    +0.000 C 
ATOM     29  C   UNL     1      48.999   8.826  15.843  0.00  0.00    +0.000 C 
ATOM     30  N   UNL     1      47.720   9.285  16.398  0.00  0.00    +0.000 NA
ATOM     31  C   UNL     1      47.904  10.023  17.651  0.00  0.00    +0.000 C 
ATOM     32  C   UNL     1      48.684   9.217  18.693  0.00  0.00    +0.000 C 
ATOM     33  H   UNL     1      47.134   8.469  16.579  0.00  0.00    +0.000 HD
ENDBRANCH  26  27
ENDBRANCH  24  26
ENDBRANCH  23  24
ENDBRANCH   4  23
TORSDOF 7
ENDMDL
