MODEL 1
REMARK VINA RESULT:    -7.554      0.000      0.000
REMARK INTER + INTRA:          -9.731
REMARK INTER:                  -9.541
REMARK INTRA:                  -0.190
REMARK UNBOUND:                -0.190
REMARK  Name = 
REMARK  5 active torsions:
REMARK  status: ('A' for Active; 'I' for Inactive)
REMARK    1  A    between atoms: N_1  and  C_2
REMARK    2  A    between atoms: C_2  and  C_3
REMARK    3  A    between atoms: C_3  and  C_4
REMARK    4  A    between atoms: C_7  and  C_8
REMARK    5  A    between atoms: C_8  and  N_9
REMARK                            x       y       z     vdW  Elec       q    Type
REMARK                         _______ _______ _______ _____ _____    ______ ____
ROOT
ATOM      1  C   UNL     1      46.303   2.387   8.196  0.00  0.00    +0.000 C 
ATOM      2  C   UNL     1      45.031   1.852   8.866  0.00  0.00    +0.000 C 
ATOM      3  C   UNL     1      44.585   2.740  10.020  0.00  0.00    +0.000 C 
ATOM      4  C   UNL     1      44.387   4.209   9.619  0.00  0.00    +0.000 C 
ATOM      5  C   UNL     1      45.614   4.737   8.858  0.00  0.00    +0.000 C 
ATOM      6  C   UNL     1      46.057   3.822   7.714  0.00  0.00    +0.000 C 
ENDROOT
BRANCH   1   7
ATOM      7  C   UNL     1      46.730   1.426   7.070  0.00  0.00    +0.000 C 
BRANCH   7   8
ATOM      8  C   UNL     1      47.142   2.132   5.779  0.00  0.00    +0.000 C 
BRANCH   8   9
ATOM      9  N   UNL     1      48.530   1.820   5.458  0.00  0.00    +0.000 NA
ATOM     10  H   UNL     1      48.718   0.843   5.683  0.00  0.00    +0.000 HD
ATOM     11  H   UNL     1      49.151   2.372   6.049  0.00  0.00    +0.000 HD
ENDBRANCH   8   9
ENDBRANCH   7   8
ENDBRANCH   1   7
BRANCH   4  12
ATOM     12  C   UNL     1      44.117   5.107  10.849  0.00  0.00    +0.000 C 
BRANCH  12  13
ATOM     13  N   UNL     1      45.101   4.978  11.914  0.00  0.00    +0.000 N 
ATOM     14  C   UNL     1      45.049   4.016  12.895  0.00  0.00    +0.000 A 
ATOM     15  C   UNL     1      46.172   4.151  13.682  0.00  0.00    +0.000 A 
ATOM     16  C   UNL     1      46.918   5.238  13.173  0.00  0.00    +0.000 A 
ATOM     17  N   UNL     1      48.109   5.723  13.603  0.00  0.00    +0.000 NA
ATOM     18  C   UNL     1      48.573   6.780  12.908  0.00  0.00    +0.000 A 
ATOM     19  C   UNL     1      47.927   7.398  11.849  0.00  0.00    +0.000 A 
ATOM     20  C   UNL     1      46.694   6.906  11.425  0.00  0.00    +0.000 A 
ATOM     21  C   UNL     1      46.210   5.780  12.100  0.00  0.00    +0.000 A 
ENDBRANCH  12  13
ENDBRANCH   4  12
TORSDOF 5
ENDMDL
MODEL 2
REMARK VINA RESULT:    -7.494      1.003      1.880
REMARK INTER + INTRA:          -9.656
REMARK INTER:                  -9.365
REMARK INTRA:                  -0.291
REMARK UNBOUND:                -0.190
REMARK  Name = 
REMARK  5 active torsions:
REMARK  status: ('A' for Active; 'I' for Inactive)
REMARK    1  A    between atoms: N_1  and  C_2
REMARK    2  A    between atoms: C_2  and  C_3
REMARK    3  A    between atoms: C_3  and  C_4
REMARK    4  A    between atoms: C_7  and  C_8
REMARK    5  A    between atoms: C_8  and  N_9
REMARK                            x       y       z     vdW  Elec       q    Type
REMARK                         _______ _______ _______ _____ _____    ______ ____
ROOT
ATOM      1  C   UNL     1      46.141   2.517   8.434  0.00  0.00    +0.000 C 
ATOM      2  C   UNL     1      44.844   1.879   8.945  0.00  0.00    +0.000 C 
ATOM      3  C   UNL     1      44.220   2.692  10.071  0.00  0.00    +0.000 C 
ATOM      4  C   UNL     1      43.967   4.159   9.696  0.00  0.00    +0.000 C 
ATOM      5  C   UNL     1      45.229   4.793   9.088  0.00  0.00    +0.000 C 
ATOM      6  C   UNL     1      45.852   3.952   7.971  0.00  0.00    +0.000 C 
ENDROOT
BRANCH   1   7
ATOM      7  C   UNL     1      46.749   1.628   7.331  0.00  0.00    +0.000 C 
BRANCH   7   8
ATOM      8  C   UNL     1      47.332   2.413   6.157  0.00  0.00    +0.000 C 
BRANCH   8   9
ATOM      9  N   UNL     1      48.536   1.756   5.664  0.00  0.00    +0.000 NA
ATOM     10  H   UNL     1      48.735   0.938   6.239  0.00  0.00    +0.000 HD
ATOM     11  H   UNL     1      49.336   2.380   5.771  0.00  0.00    +0.000 HD
ENDBRANCH   8   9
ENDBRANCH   7   8
ENDBRANCH   1   7
BRANCH   4  12
ATOM     12  C   UNL     1      43.508   4.992  10.916  0.00  0.00    +0.000 C 
BRANCH  12  13
ATOM     13  N   UNL     1      44.558   5.799  11.521  0.00  0.00    +0.000 N 
ATOM     14  C   UNL     1      44.731   7.142  11.278  0.00  0.00    +0.000 A 
ATOM     15  C   UNL     1      45.767   7.586  12.070  0.00  0.00    +0.000 A 
ATOM     16  C   UNL     1      46.247   6.477  12.803  0.00  0.00    +0.000 A 
ATOM     17  N   UNL     1      47.236   6.439  13.729  0.00  0.00    +0.000 NA
ATOM     18  C   UNL     1      47.467   5.220  14.259  0.00  0.00    +0.000 A 
ATOM     19  C   UNL     1      46.812   4.050  13.911  0.00  0.00    +0.000 A 
ATOM     20  C   UNL     1      45.810   4.095  12.943  0.00  0.00    +0.000 A 
ATOM     21  C   UNL     1      45.518   5.355  12.410  0.00  0.00    +0.000 A 
ENDBRANCH  12  13
ENDBRANCH   4  12
TORSDOF 5
ENDMDL
MODEL 3
REMARK VINA RESULT:    -6.795      2.019      2.740
REMARK INTER + INTRA:          -8.773
REMARK INTER:                  -8.271
REMARK INTRA:                  -0.502
REMARK UNBOUND:                -0.190
REMARK  Name = 
REMARK  5 active torsions:
REMARK  status: ('A' for Active; 'I' for Inactive)
REMARK    1  A    between atoms: N_1  and  C_2
REMARK    2  A    between atoms: C_2  and  C_3
REMARK    3  A    between atoms: C_3  and  C_4
REMARK    4  A    between atoms: C_7  and  C_8
REMARK    5  A    between atoms: C_8  and  N_9
REMARK                            x       y       z     vdW  Elec       q    Type
REMARK                         _______ _______ _______ _____ _____    ______ ____
ROOT
ATOM      1  C   UNL     1      45.597   3.222   7.468  0.00  0.00    +0.000 C 
ATOM      2  C   UNL     1      46.444   4.400   7.966  0.00  0.00    +0.000 C 
ATOM      3  C   UNL     1      45.741   5.171   9.074  0.00  0.00    +0.000 C 
ATOM      4  C   UNL     1      45.324   4.290  10.261  0.00  0.00    +0.000 C 
ATOM      5  C   UNL     1      44.557   3.049   9.776  0.00  0.00    +0.000 C 
ATOM      6  C   UNL     1      45.270   2.298   8.649  0.00  0.00    +0.000 C 
ENDROOT
BRANCH   1   7
ATOM      7  C   UNL     1      46.336   2.510   6.319  0.00  0.00    +0.000 C 
BRANCH   7   8
ATOM      8  C   UNL     1      47.623   1.809   6.753  0.00  0.00    +0.000 C 
BRANCH   8   9
ATOM      9  N   UNL     1      48.583   1.800   5.655  0.00  0.00    +0.000 NA
ATOM     10  H   UNL     1      48.821   0.836   5.422  0.00  0.00    +0.000 HD
ATOM     11  H   UNL     1      49.452   2.242   5.956  0.00  0.00    +0.000 HD
ENDBRANCH   8   9
ENDBRANCH   7   8
ENDBRANCH   1   7
BRANCH   4  12
ATOM     12  C   UNL     1      44.456   5.069  11.276  0.00  0.00    +0.000 C 
BRANCH  12  13
ATOM     13  N   UNL     1      45.141   6.177  11.926  0.00  0.00    +0.000 N 
ATOM     14  C   UNL     1      46.178   6.022  12.816  0.00  0.00    +0.000 A 
ATOM     15  C   UNL     1      46.624   7.277  13.170  0.00  0.00    +0.000 A 
ATOM     16  C   UNL     1      45.823   8.221  12.487  0.00  0.00    +0.000 A 
ATOM     17  N   UNL     1      45.910   9.574  12.501  0.00  0.00    +0.000 NA
ATOM     18  C   UNL     1      44.994  10.206  11.741  0.00  0.00    +0.000 A 
ATOM     19  C   UNL     1      43.993   9.595  11.003  0.00  0.00    +0.000 A 
ATOM     20  C   UNL     1      43.898   8.205  11.010  0.00  0.00    +0.000 A 
ATOM     21  C   UNL     1      44.864   7.520  11.755  0.00  0.00    +0.000 A 
ENDBRANCH  12  13
ENDBRANCH   4  12
TORSDOF 5
ENDMDL
MODEL 4
REMARK VINA RESULT:    -6.265      2.138      6.603
REMARK INTER + INTRA:          -8.103
REMARK INTER:                  -7.697
REMARK INTRA:                  -0.406
REMARK UNBOUND:                -0.190
REMARK  Name = 
REMARK  5 active torsions:
REMARK  status: ('A' for Active; 'I' for Inactive)
REMARK    1  A    between atoms: N_1  and  C_2
REMARK    2  A    between atoms: C_2  and  C_3
REMARK    3  A    between atoms: C_3  and  C_4
REMARK    4  A    between atoms: C_7  and  C_8
REMARK    5  A    between atoms: C_8  and  N_9
REMARK                            x       y       z     vdW  Elec       q    Type
REMARK                         _______ _______ _______ _____ _____    ______ ____
ROOT
ATOM      1  C   UNL     1      47.155   8.574  13.338  0.00  0.00    +0.000 C 
ATOM      2  C   UNL     1      47.394   7.099  12.992  0.00  0.00    +0.000 C 
ATOM      3  C   UNL     1      46.093   6.374  12.677  0.00  0.00    +0.000 C 
ATOM      4  C   UNL     1      45.275   7.046  11.564  0.00  0.00    +0.000 C 
ATOM      5  C   UNL     1      45.106   8.549  11.841  0.00  0.00    +0.000 C 
ATOM      6  C   UNL     1      46.423   9.255  12.173  0.00  0.00    +0.000 C 
ENDROOT
BRANCH   1   7
ATOM      7  C   UNL     1      48.499   9.241  13.691  0.00  0.00    +0.000 C 
BRANCH   7   8
ATOM      8  C   UNL     1      48.778   9.309  15.192  0.00  0.00    +0.000 C 
BRANCH   8   9
ATOM      9  N   UNL     1      47.530   9.207  15.939  0.00  0.00    +0.000 NA
ATOM     10  H   UNL     1      47.221   8.235  15.951  0.00  0.00    +0.000 HD
ATOM     11  H   UNL     1      46.799   9.732  15.459  0.00  0.00    +0.000 HD
ENDBRANCH   8   9
ENDBRANCH   7   8
ENDBRANCH   1   7
BRANCH   4  12
ATOM     12  C   UNL     1      43.883   6.391  11.402  0.00  0.00    +0.000 C 
BRANCH  12  13
ATOM     13  N   UNL     1      43.918   4.953  11.184  0.00  0.00    +0.000 N 
ATOM     14  C   UNL     1      43.306   4.036  12.005  0.00  0.00    +0.000 A 
ATOM     15  C   UNL     1      43.487   2.785  11.455  0.00  0.00    +0.000 A 
ATOM     16  C   UNL     1      44.244   2.948  10.272  0.00  0.00    +0.000 A 
ATOM     17  N   UNL     1      44.639   2.003   9.384  0.00  0.00    +0.000 NA
ATOM     18  C   UNL     1      45.359   2.471   8.344  0.00  0.00    +0.000 A 
ATOM     19  C   UNL     1      45.734   3.791   8.150  0.00  0.00    +0.000 A 
ATOM     20  C   UNL     1      45.341   4.753   9.078  0.00  0.00    +0.000 A 
ATOM     21  C   UNL     1      44.553   4.302  10.144  0.00  0.00    +0.000 A 
ENDBRANCH  12  13
ENDBRANCH   4  12
TORSDOF 5
ENDMDL
MODEL 5
REMARK VINA RESULT:    -5.957      1.382      5.977
REMARK INTER + INTRA:          -7.715
REMARK INTER:                  -7.507
REMARK INTRA:                  -0.207
REMARK UNBOUND:                -0.190
REMARK  Name = 
REMARK  5 active torsions:
REMARK  status: ('A' for Active; 'I' for Inactive)
REMARK    1  A    between atoms: N_1  and  C_2
REMARK    2  A    between atoms: C_2  and  C_3
REMARK    3  A    between atoms: C_3  and  C_4
REMARK    4  A    between atoms: C_7  and  C_8
REMARK    5  A    between atoms: C_8  and  N_9
REMARK                            x       y       z     vdW  Elec       q    Type
REMARK                         _______ _______ _______ _____ _____    ______ ____
ROOT
ATOM      1  C   UNL     1      46.976   5.677  12.866  0.00  0.00    +0.000 C 
ATOM      2  C   UNL     1      46.362   6.848  12.088  0.00  0.00    +0.000 C 
ATOM      3  C   UNL     1      45.575   6.370  10.876  0.00  0.00    +0.000 C 
ATOM      4  C   UNL     1      44.486   5.344  11.221  0.00  0.00    +0.000 C 
ATOM      5  C   UNL     1      45.060   4.209  12.085  0.00  0.00    +0.000 C 
ATOM      6  C   UNL     1      45.862   4.710  13.288  0.00  0.00    +0.000 C 
ENDROOT
BRANCH   1   7
ATOM      7  C   UNL     1      47.795   6.224  14.051  0.00  0.00    +0.000 C 
BRANCH   7   8
ATOM      8  C   UNL     1      49.024   7.030  13.632  0.00  0.00    +0.000 C 
BRANCH   8   9
ATOM      9  N   UNL     1      50.080   6.887  14.628  0.00  0.00    +0.000 NA
ATOM     10  H   UNL     1      49.760   6.271  15.374  0.00  0.00    +0.000 HD
ATOM     11  H   UNL     1      50.264   7.790  15.065  0.00  0.00    +0.000 HD
ENDBRANCH   8   9
ENDBRANCH   7   8
ENDBRANCH   1   7
BRANCH   4  12
ATOM     12  C   UNL     1      43.838   4.747   9.949  0.00  0.00    +0.000 C 
BRANCH  12  13
ATOM     13  N   UNL     1      44.486   3.541   9.454  0.00  0.00    +0.000 N 
ATOM     14  C   UNL     1      44.126   2.267   9.827  0.00  0.00    +0.000 A 
ATOM     15  C   UNL     1      44.901   1.381   9.111  0.00  0.00    +0.000 A 
ATOM     16  C   UNL     1      45.768   2.140   8.292  0.00  0.00    +0.000 A 
ATOM     17  N   UNL     1      46.686   1.702   7.397  0.00  0.00    +0.000 NA
ATOM     18  C   UNL     1      47.368   2.677   6.763  0.00  0.00    +0.000 A 
ATOM     19  C   UNL     1      47.221   4.038   6.980  0.00  0.00    +0.000 A 
ATOM     20  C   UNL     1      46.290   4.480   7.917  0.00  0.00    +0.000 A 
ATOM     21  C   UNL     1      45.535   3.490   8.557  0.00  0.00    +0.000 A 
ENDBRANCH  12  13
ENDBRANCH   4  12
TORSDOF 5
ENDMDL
MODEL 6
REMARK VINA RESULT:    -5.803      1.857      2.885
REMARK INTER + INTRA:          -7.519
REMARK INTER:                  -7.291
REMARK INTRA:                  -0.229
REMARK UNBOUND:                -0.190
REMARK  Name = 
REMARK  5 active torsions:
REMARK  status: ('A' for Active; 'I' for Inactive)
REMARK    1  A    between atoms: N_1  and  C_2
REMARK    2  A    between atoms: C_2  and  C_3
REMARK    3  A    between atoms: C_3  and  C_4
REMARK    4  A    between atoms: C_7  and  C_8
REMARK    5  A    between atoms: C_8  and  N_9
REMARK                            x       y       z     vdW  Elec       q    Type
REMARK                         _______ _______ _______ _____ _____    ______ ____
ROOT
ATOM      1  C   UNL     1      45.091   3.019   9.917  0.00  0.00    +0.000 C 
ATOM      2  C   UNL     1      43.819   2.958  10.773  0.00  0.00    +0.000 C 
ATOM      3  C   UNL     1      43.906   3.882  11.980  0.00  0.00    +0.000 C 
ATOM      4  C   UNL     1      44.217   5.340  11.610  0.00  0.00    +0.000 C 
ATOM      5  C   UNL     1      45.432   5.418  10.671  0.00  0.00    +0.000 C 
ATOM      6  C   UNL     1      45.334   4.468   9.475  0.00  0.00    +0.000 C 
ENDROOT
BRANCH   1   7
ATOM      7  C   UNL     1      44.963   2.032   8.741  0.00  0.00    +0.000 C 
BRANCH   7   8
ATOM      8  C   UNL     1      46.272   1.797   7.988  0.00  0.00    +0.000 C 
BRANCH   8   9
ATOM      9  N   UNL     1      46.582   0.372   7.954  0.00  0.00    +0.000 NA
ATOM     10  H   UNL     1      46.458  -0.023   8.885  0.00  0.00    +0.000 HD
ATOM     11  H   UNL     1      47.565   0.240   7.717  0.00  0.00    +0.000 HD
ENDBRANCH   8   9
ENDBRANCH   7   8
ENDBRANCH   1   7
BRANCH   4  12
ATOM     12  C   UNL     1      44.479   6.205  12.865  0.00  0.00    +0.000 C 
BRANCH  12  13
ATOM     13  N   UNL     1      45.362   7.340  12.638  0.00  0.00    +0.000 N 
ATOM     14  C   UNL     1      44.963   8.520  12.055  0.00  0.00    +0.000 A 
ATOM     15  C   UNL     1      46.036   9.384  12.068  0.00  0.00    +0.000 A 
ATOM     16  C   UNL     1      47.123   8.703  12.662  0.00  0.00    +0.000 A 
ATOM     17  N   UNL     1      48.373   9.162  12.916  0.00  0.00    +0.000 NA
ATOM     18  C   UNL     1      49.196   8.266  13.497  0.00  0.00    +0.000 A 
ATOM     19  C   UNL     1      48.874   6.955  13.808  0.00  0.00    +0.000 A 
ATOM     20  C   UNL     1      47.593   6.485  13.526  0.00  0.00    +0.000 A 
ATOM     21  C   UNL     1      46.703   7.407  12.965  0.00  0.00    +0.000 A 
ENDBRANCH  12  13
ENDBRANCH   4  12
TORSDOF 5
ENDMDL
MODEL 7
REMARK VINA RESULT:    -5.529      2.199      3.998
REMARK INTER + INTRA:          -7.174
REMARK INTER:                  -6.657
REMARK INTRA:                  -0.517
REMARK UNBOUND:                -0.190
REMARK  Name = 
REMARK  5 active torsions:
REMARK  status: ('A' for Active; 'I' for Inactive)
REMARK    1  A    between atoms: N_1  and  C_2
REMARK    2  A    between atoms: C_2  and  C_3
REMARK    3  A    between atoms: C_3  and  C_4
REMARK    4  A    between atoms: C_7  and  C_8
REMARK    5  A    between atoms: C_8  and  N_9
REMARK                            x       y       z     vdW  Elec       q    Type
REMARK                         _______ _______ _______ _____ _____    ______ ____
ROOT
ATOM      1  C   UNL     1      44.514   3.994  10.961  0.00  0.00    +0.000 C 
ATOM      2  C   UNL     1      45.308   5.028  10.151  0.00  0.00    +0.000 C 
ATOM      3  C   UNL     1      45.667   6.246  10.990  0.00  0.00    +0.000 C 
ATOM      4  C   UNL     1      46.425   5.898  12.279  0.00  0.00    +0.000 C 
ATOM      5  C   UNL     1      45.698   4.791  13.059  0.00  0.00    +0.000 C 
ATOM      6  C   UNL     1      45.329   3.583  12.194  0.00  0.00    +0.000 C 
ENDROOT
BRANCH   1   7
ATOM      7  C   UNL     1      44.140   2.809  10.050  0.00  0.00    +0.000 C 
BRANCH   7   8
ATOM      8  C   UNL     1      45.055   2.651   8.836  0.00  0.00    +0.000 C 
BRANCH   8   9
ATOM      9  N   UNL     1      45.614   1.304   8.801  0.00  0.00    +0.000 NA
ATOM     10  H   UNL     1      46.142   1.179   7.938  0.00  0.00    +0.000 HD
ATOM     11  H   UNL     1      44.857   0.620   8.773  0.00  0.00    +0.000 HD
ENDBRANCH   8   9
ENDBRANCH   7   8
ENDBRANCH   1   7
BRANCH   4  12
ATOM     12  C   UNL     1      46.608   7.135  13.189  0.00  0.00    +0.000 C 
BRANCH  12  13
ATOM     13  N   UNL     1      47.975   7.351  13.641  0.00  0.00    +0.000 N 
ATOM     14  C   UNL     1      48.480   6.861  14.822  0.00  0.00    +0.000 A 
ATOM     15  C   UNL     1      49.815   7.198  14.885  0.00  0.00    +0.000 A 
ATOM     16  C   UNL     1      50.124   7.928  13.715  0.00  0.00    +0.000 A 
ATOM     17  N   UNL     1      51.318   8.439  13.326  0.00  0.00    +0.000 NA
ATOM     18  C   UNL     1      51.296   9.093  12.148  0.00  0.00    +0.000 A 
ATOM     19  C   UNL     1      50.177   9.298  11.358  0.00  0.00    +0.000 A 
ATOM     20  C   UNL     1      48.949   8.787  11.774  0.00  0.00    +0.000 A 
ATOM     21  C   UNL     1      48.951   8.064  12.971  0.00  0.00    +0.000 A 
ENDBRANCH  12  13
ENDBRANCH   4  12
TORSDOF 5
ENDMDL
MODEL 8
REMARK VINA RESULT:    -5.409      3.701      5.865
REMARK INTER + INTRA:          -7.022
REMARK INTER:                  -6.477
REMARK INTRA:                  -0.545
REMARK UNBOUND:                -0.190
REMARK  Name = 
REMARK  5 active torsions:
REMARK  status: ('A' for Active; 'I' for Inactive)
REMARK    1  A    between atoms: N_1  and  C_2
REMARK    2  A    between atoms: C_2  and  C_3
REMARK    3  A    between atoms: C_3  and  C_4
REMARK    4  A    between atoms: C_7  and  C_8
REMARK    5  A    between atoms: C_8  and  N_9
REMARK                            x       y       z     vdW  Elec       q    Type
REMARK                         _______ _______ _______ _____ _____    ______ ____
ROOT
ATOM      1  C   UNL     1      45.209   5.103  11.360  0.00  0.00    +0.000 C 
ATOM      2  C   UNL     1      45.196   4.598  12.808  0.00  0.00    +0.000 C 
ATOM      3  C   UNL     1      46.555   4.762  13.476  0.00  0.00    +0.000 C 
ATOM      4  C   UNL     1      47.087   6.202  13.430  0.00  0.00    +0.000 C 
ATOM      5  C   UNL     1      47.017   6.765  12.001  0.00  0.00    +0.000 C 
ATOM      6  C   UNL     1      45.649   6.573  11.341  0.00  0.00    +0.000 C 
ENDROOT
BRANCH   1   7
ATOM      7  C   UNL     1      43.826   4.869  10.724  0.00  0.00    +0.000 C 
BRANCH   7   8
ATOM      8  C   UNL     1      42.669   4.936  11.720  0.00  0.00    +0.000 C 
BRANCH   8   9
ATOM      9  N   UNL     1      42.084   6.272  11.720  0.00  0.00    +0.000 NA
ATOM     10  H   UNL     1      41.868   6.547  10.763  0.00  0.00    +0.000 HD
ATOM     11  H   UNL     1      42.770   6.946  12.061  0.00  0.00    +0.000 HD
ENDBRANCH   8   9
ENDBRANCH   7   8
ENDBRANCH   1   7
BRANCH   4  12
ATOM     12  C   UNL     1      48.541   6.292  13.949  0.00  0.00    +0.000 C 
BRANCH  12  13
ATOM     13  N   UNL     1      48.660   6.763  15.322  0.00  0.00    +0.000 N 
ATOM     14  C   UNL     1      48.943   8.065  15.665  0.00  0.00    +0.000 A 
ATOM     15  C   UNL     1      48.906   8.158  17.040  0.00  0.00    +0.000 A 
ATOM     16  C   UNL     1      48.608   6.872  17.545  0.00  0.00    +0.000 A 
ATOM     17  N   UNL     1      48.440   6.487  18.834  0.00  0.00    +0.000 NA
ATOM     18  C   UNL     1      48.161   5.178  19.000  0.00  0.00    +0.000 A 
ATOM     19  C   UNL     1      48.070   4.236  17.989  0.00  0.00    +0.000 A 
ATOM     20  C   UNL     1      48.264   4.636  16.668  0.00  0.00    +0.000 A 
ATOM     21  C   UNL     1      48.510   5.998  16.462  0.00  0.00    +0.000 A 
ENDBRANCH  12  13
ENDBRANCH   4  12
TORSDOF 5
ENDMDL
MODEL 9
REMARK VINA RESULT:    -5.385      2.157      6.169
REMARK INTER + INTRA:          -6.992
REMARK INTER:                  -6.720
REMARK INTRA:                  -0.272
REMARK UNBOUND:                -0.190
REMARK  Name = 
REMARK  5 active torsions:
REMARK  status: ('A' for Active; 'I' for Inactive)
REMARK    1  A    between atoms: N_1  and  C_2
REMARK    2  A    between atoms: C_2  and  C_3
REMARK    3  A    between atoms: C_3  and  C_4
REMARK    4  A    between atoms: C_7  and  C_8
REMARK    5  A    between atoms: C_8  and  N_9
REMARK                            x       y       z     vdW  Elec       q    Type
REMARK                         _______ _______ _______ _____ _____    ______ ____
ROOT
ATOM      1  C   UNL     1      48.979   8.835  12.604  0.00  0.00    +0.000 C 
ATOM      2  C   UNL     1      48.981   7.373  12.138  0.00  0.00    +0.000 C 
ATOM      3  C   UNL     1      47.645   6.694  12.406  0.00  0.00    +0.000 C 
ATOM      4  C   UNL     1      46.449   7.437  11.792  0.00  0.00    +0.000 C 
ATOM      5  C   UNL     1      46.481   8.928  12.166  0.00  0.00    +0.000 C 
ATOM      6  C   UNL     1      47.838   9.588  11.907  0.00  0.00    +0.000 C 
ENDROOT
BRANCH   1   7
ATOM      7  C   UNL     1      50.367   9.454  12.351  0.00  0.00    +0.000 C 
BRANCH   7   8
ATOM      8  C   UNL     1      51.491   8.425  12.237  0.00  0.00    +0.000 C 
BRANCH   8   9
ATOM      9  N   UNL     1      52.038   8.132  13.557  0.00  0.00    +0.000 NA
ATOM     10  H   UNL     1      51.373   7.563  14.080  0.00  0.00    +0.000 HD
ATOM     11  H   UNL     1      52.146   8.999  14.083  0.00  0.00    +0.000 HD
ENDBRANCH   8   9
ENDBRANCH   7   8
ENDBRANCH   1   7
BRANCH   4  12
ATOM     12  C   UNL     1      45.102   6.822  12.239  0.00  0.00    +0.000 C 
BRANCH  12  13
ATOM     13  N   UNL     1      44.965   5.402  11.949  0.00  0.00    +0.000 N 
ATOM     14  C   UNL     1      44.612   4.458  12.884  0.00  0.00    +0.000 A 
ATOM     15  C   UNL     1      44.510   3.242  12.242  0.00  0.00    +0.000 A 
ATOM     16  C   UNL     1      44.827   3.454  10.881  0.00  0.00    +0.000 A 
ATOM     17  N   UNL     1      44.830   2.557   9.864  0.00  0.00    +0.000 NA
ATOM     18  C   UNL     1      45.181   3.065   8.665  0.00  0.00    +0.000 A 
ATOM     19  C   UNL     1      45.553   4.377   8.420  0.00  0.00    +0.000 A 
ATOM     20  C   UNL     1      45.565   5.288   9.474  0.00  0.00    +0.000 A 
ATOM     21  C   UNL     1      45.162   4.798  10.722  0.00  0.00    +0.000 A 
ENDBRANCH  12  13
ENDBRANCH   4  12
TORSDOF 5
ENDMDL
