MODEL 1
REMARK VINA RESULT:    -8.260      0.000      0.000
REMARK INTER + INTRA:         -10.810
REMARK INTER:                 -10.433
REMARK INTRA:                  -0.378
REMARK UNBOUND:                -0.378
REMARK  Name = 
REMARK  5 active torsions:
REMARK  status: ('A' for Active; 'I' for Inactive)
REMARK    1  A    between atoms: C_2  and  C_4
REMARK    2  A    between atoms: C_7  and  N_8
REMARK    3  A    between atoms: N_8  and  C_9
REMARK    4  A    between atoms: C_9  and  C_10
REMARK    5  A    between atoms: C_13  and  O_14
REMARK                            x       y       z     vdW  Elec       q    Type
REMARK                         _______ _______ _______ _____ _____    ______ ____
ROOT
ATOM      1  C   UNL     1      46.369   4.540  13.640  0.00  0.00    +0.000 A 
ATOM      2  N   UNL     1      45.869   3.339  13.245  0.00  0.00    +0.000 NA
ATOM      3  C   UNL     1      45.276   3.339  12.025  0.00  0.00    +0.000 A 
ATOM      4  C   UNL     1      45.169   4.453  11.189  0.00  0.00    +0.000 A 
ATOM      5  C   UNL     1      45.722   5.592  11.733  0.00  0.00    +0.000 A 
ATOM      6  N   UNL     1      46.312   5.678  12.939  0.00  0.00    +0.000 NA
ENDROOT
BRANCH   1   8
ATOM      7  N   UNL     1      47.736   5.733  15.298  0.00  0.00    +0.000 N 
ATOM      8  C   UNL     1      47.072   4.570  14.978  0.00  0.00    +0.000 C 
ATOM      9  O   UNL     1      47.064   3.630  15.763  0.00  0.00    +0.000 OA
ATOM     10  H   UNL     1      48.184   5.799  16.197  0.00  0.00    +0.000 HD
ATOM     11  H   UNL     1      47.705   6.535  14.676  0.00  0.00    +0.000 HD
ENDBRANCH   1   8
BRANCH   4  12
ATOM     12  N   UNL     1      44.606   4.364   9.919  0.00  0.00    +0.000 N 
ATOM     13  H   UNL     1      43.841   5.017   9.761  0.00  0.00    +0.000 HD
BRANCH  12  14
ATOM     14  C   UNL     1      44.343   3.035   9.350  0.00  0.00    +0.000 C 
BRANCH  14  15
ATOM     15  C   UNL     1      45.473   2.692   8.409  0.00  0.00    +0.000 A 
ATOM     16  C   UNL     1      45.982   1.380   8.351  0.00  0.00    +0.000 A 
ATOM     17  C   UNL     1      47.003   1.054   7.456  0.00  0.00    +0.000 A 
ATOM     18  C   UNL     1      47.514   2.032   6.615  0.00  0.00    +0.000 A 
ATOM     19  C   UNL     1      47.032   3.337   6.665  0.00  0.00    +0.000 A 
ATOM     20  C   UNL     1      46.013   3.664   7.559  0.00  0.00    +0.000 A 
BRANCH  18  21
ATOM     21  O   UNL     1      48.495   1.753   5.712  0.00  0.00    +0.000 OA
ATOM     22  H   UNL     1      49.160   1.191   6.141  0.00  0.00    +0.000 HD
ENDBRANCH  18  21
ENDBRANCH  14  15
ENDBRANCH  12  14
ENDBRANCH   4  12
TORSDOF 5
ENDMDL
MODEL 2
REMARK VINA RESULT:    -8.195      0.094      1.115
REMARK INTER + INTRA:         -10.729
REMARK INTER:                 -10.340
REMARK INTRA:                  -0.389
REMARK UNBOUND:                -0.378
REMARK  Name = 
REMARK  5 active torsions:
REMARK  status: ('A' for Active; 'I' for Inactive)
REMARK    1  A    between atoms: C_2  and  C_4
REMARK    2  A    between atoms: C_7  and  N_8
REMARK    3  A    between atoms: N_8  and  C_9
REMARK    4  A    between atoms: C_9  and  C_10
REMARK    5  A    between atoms: C_13  and  O_14
REMARK                            x       y       z     vdW  Elec       q    Type
REMARK                         _______ _______ _______ _____ _____    ______ ____
ROOT
ATOM      1  C   UNL     1      46.396   4.510  13.613  0.00  0.00    +0.000 A 
ATOM      2  N   UNL     1      46.394   5.644  12.863  0.00  0.00    +0.000 NA
ATOM      3  C   UNL     1      45.809   5.523  11.646  0.00  0.00    +0.000 A 
ATOM      4  C   UNL     1      45.225   4.354  11.152  0.00  0.00    +0.000 A 
ATOM      5  C   UNL     1      45.311   3.295  12.030  0.00  0.00    +0.000 A 
ATOM      6  N   UNL     1      45.888   3.329  13.246  0.00  0.00    +0.000 NA
ENDROOT
BRANCH   1   8
ATOM      7  N   UNL     1      47.742   5.750  15.255  0.00  0.00    +0.000 N 
ATOM      8  C   UNL     1      47.005   4.617  14.993  0.00  0.00    +0.000 C 
ATOM      9  O   UNL     1      46.862   3.763  15.859  0.00  0.00    +0.000 OA
ATOM     10  H   UNL     1      48.130   5.869  16.176  0.00  0.00    +0.000 HD
ATOM     11  H   UNL     1      47.822   6.487  14.560  0.00  0.00    +0.000 HD
ENDBRANCH   1   8
BRANCH   4  12
ATOM     12  N   UNL     1      44.582   4.321   9.918  0.00  0.00    +0.000 N 
ATOM     13  H   UNL     1      43.799   4.968   9.845  0.00  0.00    +0.000 HD
BRANCH  12  14
ATOM     14  C   UNL     1      44.300   3.019   9.299  0.00  0.00    +0.000 C 
BRANCH  14  15
ATOM     15  C   UNL     1      45.442   2.679   8.371  0.00  0.00    +0.000 A 
ATOM     16  C   UNL     1      45.994   1.383   8.362  0.00  0.00    +0.000 A 
ATOM     17  C   UNL     1      47.027   1.058   7.480  0.00  0.00    +0.000 A 
ATOM     18  C   UNL     1      47.507   2.022   6.604  0.00  0.00    +0.000 A 
ATOM     19  C   UNL     1      46.982   3.311   6.606  0.00  0.00    +0.000 A 
ATOM     20  C   UNL     1      45.951   3.637   7.487  0.00  0.00    +0.000 A 
BRANCH  18  21
ATOM     21  O   UNL     1      48.498   1.742   5.713  0.00  0.00    +0.000 OA
ATOM     22  H   UNL     1      48.119   1.230   4.980  0.00  0.00    +0.000 HD
ENDBRANCH  18  21
ENDBRANCH  14  15
ENDBRANCH  12  14
ENDBRANCH   4  12
TORSDOF 5
ENDMDL
MODEL 3
REMARK VINA RESULT:    -7.753      1.836      2.426
REMARK INTER + INTRA:         -10.171
REMARK INTER:                  -9.853
REMARK INTRA:                  -0.318
REMARK UNBOUND:                -0.378
REMARK  Name = 
REMARK  5 active torsions:
REMARK  status: ('A' for Active; 'I' for Inactive)
REMARK    1  A    between atoms: C_2  and  C_4
REMARK    2  A    between atoms: C_7  and  N_8
REMARK    3  A    between atoms: N_8  and  C_9
REMARK    4  A    between atoms: C_9  and  C_10
REMARK    5  A    between atoms: C_13  and  O_14
REMARK                            x       y       z     vdW  Elec       q    Type
REMARK                         _______ _______ _______ _____ _____    ______ ____
ROOT
ATOM      1  C   UNL     1      45.511   6.596  12.310  0.00  0.00    +0.000 A 
ATOM      2  N   UNL     1      44.999   6.517  11.054  0.00  0.00    +0.000 NA
ATOM      3  C   UNL     1      44.852   5.257  10.574  0.00  0.00    +0.000 A 
ATOM      4  C   UNL     1      45.171   4.092  11.276  0.00  0.00    +0.000 A 
ATOM      5  C   UNL     1      45.679   4.342  12.533  0.00  0.00    +0.000 A 
ATOM      6  N   UNL     1      45.871   5.558  13.074  0.00  0.00    +0.000 NA
ENDROOT
BRANCH   1   8
ATOM      7  N   UNL     1      44.664   8.888  12.580  0.00  0.00    +0.000 N 
ATOM      8  C   UNL     1      45.653   7.983  12.894  0.00  0.00    +0.000 C 
ATOM      9  O   UNL     1      46.583   8.316  13.619  0.00  0.00    +0.000 OA
ATOM     10  H   UNL     1      44.709   9.810  12.982  0.00  0.00    +0.000 HD
ATOM     11  H   UNL     1      43.863   8.606  12.022  0.00  0.00    +0.000 HD
ENDBRANCH   1   8
BRANCH   4  12
ATOM     12  N   UNL     1      44.929   2.828  10.746  0.00  0.00    +0.000 N 
ATOM     13  H   UNL     1      45.684   2.163  10.908  0.00  0.00    +0.000 HD
BRANCH  12  14
ATOM     14  C   UNL     1      44.357   2.720   9.397  0.00  0.00    +0.000 C 
BRANCH  14  15
ATOM     15  C   UNL     1      45.485   2.471   8.424  0.00  0.00    +0.000 A 
ATOM     16  C   UNL     1      46.066   1.193   8.314  0.00  0.00    +0.000 A 
ATOM     17  C   UNL     1      47.084   0.953   7.390  0.00  0.00    +0.000 A 
ATOM     18  C   UNL     1      47.522   1.986   6.572  0.00  0.00    +0.000 A 
ATOM     19  C   UNL     1      46.969   3.259   6.673  0.00  0.00    +0.000 A 
ATOM     20  C   UNL     1      45.952   3.499   7.597  0.00  0.00    +0.000 A 
BRANCH  18  21
ATOM     21  O   UNL     1      48.498   1.790   5.642  0.00  0.00    +0.000 OA
ATOM     22  H   UNL     1      48.567   2.588   5.093  0.00  0.00    +0.000 HD
ENDBRANCH  18  21
ENDBRANCH  14  15
ENDBRANCH  12  14
ENDBRANCH   4  12
TORSDOF 5
ENDMDL
MODEL 4
REMARK VINA RESULT:    -7.500      2.439      6.242
REMARK INTER + INTRA:          -9.851
REMARK INTER:                  -9.438
REMARK INTRA:                  -0.413
REMARK UNBOUND:                -0.378
REMARK  Name = 
REMARK  5 active torsions:
REMARK  status: ('A' for Active; 'I' for Inactive)
REMARK    1  A    between atoms: C_2  and  C_4
REMARK    2  A    between atoms: C_7  and  N_8
REMARK    3  A    between atoms: N_8  and  C_9
REMARK    4  A    between atoms: C_9  and  C_10
REMARK    5  A    between atoms: C_13  and  O_14
REMARK                            x       y       z     vdW  Elec       q    Type
REMARK                         _______ _______ _______ _____ _____    ______ ____
ROOT
ATOM      1  C   UNL     1      46.492   2.592   7.706  0.00  0.00    +0.000 A 
ATOM      2  N   UNL     1      45.678   1.894   8.540  0.00  0.00    +0.000 NA
ATOM      3  C   UNL     1      44.815   2.651   9.263  0.00  0.00    +0.000 A 
ATOM      4  C   UNL     1      44.717   4.042   9.190  0.00  0.00    +0.000 A 
ATOM      5  C   UNL     1      45.611   4.599   8.301  0.00  0.00    +0.000 A 
ATOM      6  N   UNL     1      46.507   3.922   7.560  0.00  0.00    +0.000 NA
ENDROOT
BRANCH   1   8
ATOM      7  N   UNL     1      48.558   2.432   6.383  0.00  0.00    +0.000 N 
ATOM      8  C   UNL     1      47.441   1.779   6.854  0.00  0.00    +0.000 C 
ATOM      9  O   UNL     1      47.260   0.598   6.586  0.00  0.00    +0.000 OA
ATOM     10  H   UNL     1      49.228   1.909   5.843  0.00  0.00    +0.000 HD
ATOM     11  H   UNL     1      48.742   3.396   6.642  0.00  0.00    +0.000 HD
ENDBRANCH   1   8
BRANCH   4  12
ATOM     12  N   UNL     1      43.760   4.748   9.912  0.00  0.00    +0.000 N 
ATOM     13  H   UNL     1      43.783   5.754   9.752  0.00  0.00    +0.000 HD
BRANCH  12  14
ATOM     14  C   UNL     1      43.539   4.404  11.323  0.00  0.00    +0.000 C 
BRANCH  14  15
ATOM     15  C   UNL     1      44.769   4.799  12.105  0.00  0.00    +0.000 A 
ATOM     16  C   UNL     1      45.503   3.833  12.820  0.00  0.00    +0.000 A 
ATOM     17  C   UNL     1      46.660   4.191  13.514  0.00  0.00    +0.000 A 
ATOM     18  C   UNL     1      47.089   5.511  13.493  0.00  0.00    +0.000 A 
ATOM     19  C   UNL     1      46.372   6.483  12.802  0.00  0.00    +0.000 A 
ATOM     20  C   UNL     1      45.215   6.126  12.109  0.00  0.00    +0.000 A 
BRANCH  18  21
ATOM     21  O   UNL     1      48.224   5.899  14.138  0.00  0.00    +0.000 OA
ATOM     22  H   UNL     1      48.250   5.469  15.008  0.00  0.00    +0.000 HD
ENDBRANCH  18  21
ENDBRANCH  14  15
ENDBRANCH  12  14
ENDBRANCH   4  12
TORSDOF 5
ENDMDL
MODEL 5
REMARK VINA RESULT:    -6.117      3.044      6.858
REMARK INTER + INTRA:          -8.104
REMARK INTER:                  -7.781
REMARK INTRA:                  -0.323
REMARK UNBOUND:                -0.378
REMARK  Name = 
REMARK  5 active torsions:
REMARK  status: ('A' for Active; 'I' for Inactive)
REMARK    1  A    between atoms: C_2  and  C_4
REMARK    2  A    between atoms: C_7  and  N_8
REMARK    3  A    between atoms: N_8  and  C_9
REMARK    4  A    between atoms: C_9  and  C_10
REMARK    5  A    between atoms: C_13  and  O_14
REMARK                            x       y       z     vdW  Elec       q    Type
REMARK                         _______ _______ _______ _____ _____    ______ ____
ROOT
ATOM      1  C   UNL     1      46.463   3.302   7.561  0.00  0.00    +0.000 A 
ATOM      2  N   UNL     1      45.492   2.473   8.025  0.00  0.00    +0.000 NA
ATOM      3  C   UNL     1      44.638   3.034   8.917  0.00  0.00    +0.000 A 
ATOM      4  C   UNL     1      44.695   4.360   9.353  0.00  0.00    +0.000 A 
ATOM      5  C   UNL     1      45.737   5.068   8.792  0.00  0.00    +0.000 A 
ATOM      6  N   UNL     1      46.634   4.581   7.915  0.00  0.00    +0.000 NA
ENDROOT
BRANCH   1   8
ATOM      7  N   UNL     1      47.209   3.103   5.227  0.00  0.00    +0.000 N 
ATOM      8  C   UNL     1      47.410   2.722   6.535  0.00  0.00    +0.000 C 
ATOM      9  O   UNL     1      48.325   1.959   6.819  0.00  0.00    +0.000 OA
ATOM     10  H   UNL     1      47.845   2.763   4.524  0.00  0.00    +0.000 HD
ATOM     11  H   UNL     1      46.486   3.775   4.989  0.00  0.00    +0.000 HD
ENDBRANCH   1   8
BRANCH   4  12
ATOM     12  N   UNL     1      43.744   4.888  10.220  0.00  0.00    +0.000 N 
ATOM     13  H   UNL     1      43.269   5.713   9.857  0.00  0.00    +0.000 HD
BRANCH  12  14
ATOM     14  C   UNL     1      44.070   5.005  11.647  0.00  0.00    +0.000 C 
BRANCH  14  15
ATOM     15  C   UNL     1      44.579   6.403  11.904  0.00  0.00    +0.000 A 
ATOM     16  C   UNL     1      45.618   6.628  12.827  0.00  0.00    +0.000 A 
ATOM     17  C   UNL     1      46.113   7.916  13.039  0.00  0.00    +0.000 A 
ATOM     18  C   UNL     1      45.577   8.980  12.327  0.00  0.00    +0.000 A 
ATOM     19  C   UNL     1      44.543   8.780  11.418  0.00  0.00    +0.000 A 
ATOM     20  C   UNL     1      44.047   7.494  11.207  0.00  0.00    +0.000 A 
BRANCH  18  21
ATOM     21  O   UNL     1      46.045  10.249  12.486  0.00  0.00    +0.000 OA
ATOM     22  H   UNL     1      45.327  10.804  12.831  0.00  0.00    +0.000 HD
ENDBRANCH  18  21
ENDBRANCH  14  15
ENDBRANCH  12  14
ENDBRANCH   4  12
TORSDOF 5
ENDMDL
MODEL 6
REMARK VINA RESULT:    -5.986      2.659      4.017
REMARK INTER + INTRA:          -7.938
REMARK INTER:                  -7.634
REMARK INTRA:                  -0.305
REMARK UNBOUND:                -0.378
REMARK  Name = 
REMARK  5 active torsions:
REMARK  status: ('A' for Active; 'I' for Inactive)
REMARK    1  A    between atoms: C_2  and  C_4
REMARK    2  A    between atoms: C_7  and  N_8
REMARK    3  A    between atoms: N_8  and  C_9
REMARK    4  A    between atoms: C_9  and  C_10
REMARK    5  A    between atoms: C_13  and  O_14
REMARK                            x       y       z     vdW  Elec       q    Type
REMARK                         _______ _______ _______ _____ _____    ______ ____
ROOT
ATOM      1  C   UNL     1      47.615   4.544  16.024  0.00  0.00    +0.000 A 
ATOM      2  N   UNL     1      48.401   5.630  15.799  0.00  0.00    +0.000 NA
ATOM      3  C   UNL     1      48.208   6.237  14.601  0.00  0.00    +0.000 A 
ATOM      4  C   UNL     1      47.279   5.831  13.640  0.00  0.00    +0.000 A 
ATOM      5  C   UNL     1      46.563   4.716  14.018  0.00  0.00    +0.000 A 
ATOM      6  N   UNL     1      46.706   4.048  15.178  0.00  0.00    +0.000 NA
ENDROOT
BRANCH   1   8
ATOM      7  N   UNL     1      46.936   2.802  17.621  0.00  0.00    +0.000 N 
ATOM      8  C   UNL     1      47.774   3.864  17.365  0.00  0.00    +0.000 C 
ATOM      9  O   UNL     1      48.602   4.208  18.200  0.00  0.00    +0.000 OA
ATOM     10  H   UNL     1      47.041   2.304  18.489  0.00  0.00    +0.000 HD
ATOM     11  H   UNL     1      46.282   2.478  16.914  0.00  0.00    +0.000 HD
ENDBRANCH   1   8
BRANCH   4  12
ATOM     12  N   UNL     1      47.088   6.544  12.460  0.00  0.00    +0.000 N 
ATOM     13  H   UNL     1      47.735   7.320  12.338  0.00  0.00    +0.000 HD
BRANCH  12  14
ATOM     14  C   UNL     1      45.718   6.878  12.046  0.00  0.00    +0.000 C 
BRANCH  14  15
ATOM     15  C   UNL     1      45.289   5.889  10.989  0.00  0.00    +0.000 A 
ATOM     16  C   UNL     1      46.049   5.723   9.814  0.00  0.00    +0.000 A 
ATOM     17  C   UNL     1      45.672   4.784   8.853  0.00  0.00    +0.000 A 
ATOM     18  C   UNL     1      44.542   4.006   9.062  0.00  0.00    +0.000 A 
ATOM     19  C   UNL     1      43.771   4.162  10.211  0.00  0.00    +0.000 A 
ATOM     20  C   UNL     1      44.146   5.102  11.171  0.00  0.00    +0.000 A 
BRANCH  18  21
ATOM     21  O   UNL     1      44.150   3.063   8.160  0.00  0.00    +0.000 OA
ATOM     22  H   UNL     1      44.867   2.416   8.057  0.00  0.00    +0.000 HD
ENDBRANCH  18  21
ENDBRANCH  14  15
ENDBRANCH  12  14
ENDBRANCH   4  12
TORSDOF 5
ENDMDL
MODEL 7
REMARK VINA RESULT:    -5.856      2.507      7.917
REMARK INTER + INTRA:          -7.775
REMARK INTER:                  -7.506
REMARK INTRA:                  -0.268
REMARK UNBOUND:                -0.378
REMARK  Name = 
REMARK  5 active torsions:
REMARK  status: ('A' for Active; 'I' for Inactive)
REMARK    1  A    between atoms: C_2  and  C_4
REMARK    2  A    between atoms: C_7  and  N_8
REMARK    3  A    between atoms: N_8  and  C_9
REMARK    4  A    between atoms: C_9  and  C_10
REMARK    5  A    between atoms: C_13  and  O_14
REMARK                            x       y       z     vdW  Elec       q    Type
REMARK                         _______ _______ _______ _____ _____    ______ ____
ROOT
ATOM      1  C   UNL     1      45.278   4.288  10.329  0.00  0.00    +0.000 A 
ATOM      2  N   UNL     1      45.746   5.500  10.726  0.00  0.00    +0.000 NA
ATOM      3  C   UNL     1      45.955   5.623  12.061  0.00  0.00    +0.000 A 
ATOM      4  C   UNL     1      45.736   4.614  13.001  0.00  0.00    +0.000 A 
ATOM      5  C   UNL     1      45.259   3.448  12.440  0.00  0.00    +0.000 A 
ATOM      6  N   UNL     1      45.011   3.251  11.132  0.00  0.00    +0.000 NA
ENDROOT
BRANCH   1   8
ATOM      7  N   UNL     1      44.161   3.137   8.466  0.00  0.00    +0.000 N 
ATOM      8  C   UNL     1      45.070   4.100   8.844  0.00  0.00    +0.000 C 
ATOM      9  O   UNL     1      45.656   4.758   7.993  0.00  0.00    +0.000 OA
ATOM     10  H   UNL     1      43.973   3.011   7.485  0.00  0.00    +0.000 HD
ATOM     11  H   UNL     1      43.633   2.621   9.164  0.00  0.00    +0.000 HD
ENDBRANCH   1   8
BRANCH   4  12
ATOM     12  N   UNL     1      46.037   4.789  14.348  0.00  0.00    +0.000 N 
ATOM     13  H   UNL     1      45.306   5.264  14.875  0.00  0.00    +0.000 HD
BRANCH  12  14
ATOM     14  C   UNL     1      47.386   5.235  14.723  0.00  0.00    +0.000 C 
BRANCH  14  15
ATOM     15  C   UNL     1      47.684   4.725  16.112  0.00  0.00    +0.000 A 
ATOM     16  C   UNL     1      47.369   3.399  16.470  0.00  0.00    +0.000 A 
ATOM     17  C   UNL     1      47.677   2.916  17.743  0.00  0.00    +0.000 A 
ATOM     18  C   UNL     1      48.301   3.751  18.659  0.00  0.00    +0.000 A 
ATOM     19  C   UNL     1      48.610   5.067  18.329  0.00  0.00    +0.000 A 
ATOM     20  C   UNL     1      48.302   5.551  17.058  0.00  0.00    +0.000 A 
BRANCH  18  21
ATOM     21  O   UNL     1      48.639   3.314  19.904  0.00  0.00    +0.000 OA
ATOM     22  H   UNL     1      48.520   4.044  20.532  0.00  0.00    +0.000 HD
ENDBRANCH  18  21
ENDBRANCH  14  15
ENDBRANCH  12  14
ENDBRANCH   4  12
TORSDOF 5
ENDMDL
MODEL 8
REMARK VINA RESULT:    -5.770      3.639      7.711
REMARK INTER + INTRA:          -7.666
REMARK INTER:                  -7.329
REMARK INTRA:                  -0.336
REMARK UNBOUND:                -0.378
REMARK  Name = 
REMARK  5 active torsions:
REMARK  status: ('A' for Active; 'I' for Inactive)
REMARK    1  A    between atoms: C_2  and  C_4
REMARK    2  A    between atoms: C_7  and  N_8
REMARK    3  A    between atoms: N_8  and  C_9
REMARK    4  A    between atoms: C_9  and  C_10
REMARK    5  A    between atoms: C_13  and  O_14
REMARK                            x       y       z     vdW  Elec       q    Type
REMARK                         _______ _______ _______ _____ _____    ______ ____
ROOT
ATOM      1  C   UNL     1      45.120   3.748  12.289  0.00  0.00    +0.000 A 
ATOM      2  N   UNL     1      44.959   5.058  12.614  0.00  0.00    +0.000 NA
ATOM      3  C   UNL     1      45.767   5.504  13.608  0.00  0.00    +0.000 A 
ATOM      4  C   UNL     1      46.719   4.728  14.273  0.00  0.00    +0.000 A 
ATOM      5  C   UNL     1      46.757   3.423  13.830  0.00  0.00    +0.000 A 
ATOM      6  N   UNL     1      45.981   2.900  12.863  0.00  0.00    +0.000 NA
ENDROOT
BRANCH   1   8
ATOM      7  N   UNL     1      44.915   2.533  10.162  0.00  0.00    +0.000 N 
ATOM      8  C   UNL     1      44.264   3.225  11.158  0.00  0.00    +0.000 C 
ATOM      9  O   UNL     1      43.050   3.383  11.105  0.00  0.00    +0.000 OA
ATOM     10  H   UNL     1      44.369   2.140   9.413  0.00  0.00    +0.000 HD
ATOM     11  H   UNL     1      45.913   2.354  10.223  0.00  0.00    +0.000 HD
ENDBRANCH   1   8
BRANCH   4  12
ATOM     12  N   UNL     1      47.562   5.270  15.238  0.00  0.00    +0.000 N 
ATOM     13  H   UNL     1      48.524   5.388  14.925  0.00  0.00    +0.000 HD
BRANCH  12  14
ATOM     14  C   UNL     1      47.472   4.777  16.619  0.00  0.00    +0.000 C 
BRANCH  14  15
ATOM     15  C   UNL     1      48.766   4.074  16.955  0.00  0.00    +0.000 A 
ATOM     16  C   UNL     1      48.873   2.675  16.830  0.00  0.00    +0.000 A 
ATOM     17  C   UNL     1      50.079   2.028  17.106  0.00  0.00    +0.000 A 
ATOM     18  C   UNL     1      51.180   2.774  17.503  0.00  0.00    +0.000 A 
ATOM     19  C   UNL     1      51.091   4.156  17.643  0.00  0.00    +0.000 A 
ATOM     20  C   UNL     1      49.887   4.803  17.369  0.00  0.00    +0.000 A 
BRANCH  18  21
ATOM     21  O   UNL     1      52.382   2.187  17.761  0.00  0.00    +0.000 OA
ATOM     22  H   UNL     1      53.008   2.443  17.065  0.00  0.00    +0.000 HD
ENDBRANCH  18  21
ENDBRANCH  14  15
ENDBRANCH  12  14
ENDBRANCH   4  12
TORSDOF 5
ENDMDL
MODEL 9
REMARK VINA RESULT:    -5.357      2.849      4.396
REMARK INTER + INTRA:          -7.143
REMARK INTER:                  -6.867
REMARK INTRA:                  -0.276
REMARK UNBOUND:                -0.378
REMARK  Name = 
REMARK  5 active torsions:
REMARK  status: ('A' for Active; 'I' for Inactive)
REMARK    1  A    between atoms: C_2  and  C_4
REMARK    2  A    between atoms: C_7  and  N_8
REMARK    3  A    between atoms: N_8  and  C_9
REMARK    4  A    between atoms: C_9  and  C_10
REMARK    5  A    between atoms: C_13  and  O_14
REMARK                            x       y       z     vdW  Elec       q    Type
REMARK                         _______ _______ _______ _____ _____    ______ ____
ROOT
ATOM      1  C   UNL     1      49.126   5.426  16.471  0.00  0.00    +0.000 A 
ATOM      2  N   UNL     1      48.822   6.241  15.427  0.00  0.00    +0.000 NA
ATOM      3  C   UNL     1      47.799   5.814  14.646  0.00  0.00    +0.000 A 
ATOM      4  C   UNL     1      47.067   4.643  14.857  0.00  0.00    +0.000 A 
ATOM      5  C   UNL     1      47.499   3.927  15.954  0.00  0.00    +0.000 A 
ATOM      6  N   UNL     1      48.514   4.274  16.767  0.00  0.00    +0.000 NA
ENDROOT
BRANCH   1   8
ATOM      7  N   UNL     1      51.313   5.043  17.525  0.00  0.00    +0.000 N 
ATOM      8  C   UNL     1      50.236   5.889  17.387  0.00  0.00    +0.000 C 
ATOM      9  O   UNL     1      50.215   6.959  17.982  0.00  0.00    +0.000 OA
ATOM     10  H   UNL     1      52.087   5.338  18.098  0.00  0.00    +0.000 HD
ATOM     11  H   UNL     1      51.363   4.177  16.995  0.00  0.00    +0.000 HD
ENDBRANCH   1   8
BRANCH   4  12
ATOM     12  N   UNL     1      45.984   4.301  14.054  0.00  0.00    +0.000 N 
ATOM     13  H   UNL     1      46.097   3.414  13.566  0.00  0.00    +0.000 HD
BRANCH  12  14
ATOM     14  C   UNL     1      45.368   5.336  13.212  0.00  0.00    +0.000 C 
BRANCH  14  15
ATOM     15  C   UNL     1      45.106   4.742  11.849  0.00  0.00    +0.000 A 
ATOM     16  C   UNL     1      44.464   3.496  11.723  0.00  0.00    +0.000 A 
ATOM     17  C   UNL     1      44.189   2.963  10.462  0.00  0.00    +0.000 A 
ATOM     18  C   UNL     1      44.551   3.673   9.326  0.00  0.00    +0.000 A 
ATOM     19  C   UNL     1      45.196   4.902   9.429  0.00  0.00    +0.000 A 
ATOM     20  C   UNL     1      45.472   5.434  10.688  0.00  0.00    +0.000 A 
BRANCH  18  21
ATOM     21  O   UNL     1      44.282   3.201   8.077  0.00  0.00    +0.000 OA
ATOM     22  H   UNL     1      45.094   2.813   7.711  0.00  0.00    +0.000 HD
ENDBRANCH  18  21
ENDBRANCH  14  15
ENDBRANCH  12  14
ENDBRANCH   4  12
TORSDOF 5
ENDMDL
