MODEL 1
REMARK VINA RESULT:    -7.613      0.000      0.000
REMARK INTER + INTRA:          -9.498
REMARK INTER:                  -9.171
REMARK INTRA:                  -0.328
REMARK UNBOUND:                -0.328
REMARK  Name = 
REMARK  4 active torsions:
REMARK  status: ('A' for Active; 'I' for Inactive)
REMARK    1  A    between atoms: N_1  and  C_2
REMARK    2  A    between atoms: C_2  and  C_3
REMARK    3  A    between atoms: N_9  and  C_10
REMARK    4  A    between atoms: C_10  and  C_11
REMARK                            x       y       z     vdW  Elec       q    Type
REMARK                         _______ _______ _______ _____ _____    ______ ____
ROOT
ATOM      1  C   UNL     1      46.717   5.948  12.451  0.00  0.00    +0.000 A 
ATOM      2  C   UNL     1      46.366   5.323  13.646  0.00  0.00    +0.000 A 
ATOM      3  N   UNL     1      45.407   4.384  13.803  0.00  0.00    +0.000 NA
ATOM      4  C   UNL     1      44.775   4.027  12.662  0.00  0.00    +0.000 A 
ATOM      5  C   UNL     1      43.772   3.048  12.486  0.00  0.00    +0.000 A 
ATOM      6  C   UNL     1      43.470   3.005  11.143  0.00  0.00    +0.000 A 
ATOM      7  N   UNL     1      44.227   3.962  10.504  0.00  0.00    +0.000 N 
ATOM      8  C   UNL     1      45.048   4.594  11.417  0.00  0.00    +0.000 A 
ATOM      9  C   UNL     1      46.022   5.593  11.289  0.00  0.00    +0.000 A 
ENDROOT
BRANCH   1  10
ATOM     10  C   UNL     1      47.834   6.952  12.419  0.00  0.00    +0.000 C 
BRANCH  10  11
ATOM     11  N   UNL     1      49.075   6.371  12.919  0.00  0.00    +0.000 NA
ATOM     12  H   UNL     1      48.861   5.675  13.630  0.00  0.00    +0.000 HD
ATOM     13  H   UNL     1      49.620   7.098  13.382  0.00  0.00    +0.000 HD
ENDBRANCH  10  11
ENDBRANCH   1  10
BRANCH   7  14
ATOM     14  C   UNL     1      44.221   4.173   9.060  0.00  0.00    +0.000 C 
BRANCH  14  15
ATOM     15  C   UNL     1      45.311   3.392   8.368  0.00  0.00    +0.000 A 
ATOM     16  C   UNL     1      45.502   2.036   8.633  0.00  0.00    +0.000 A 
ATOM     17  C   UNL     1      46.508   1.349   7.961  0.00  0.00    +0.000 A 
ATOM     18  C   UNL     1      47.310   2.030   7.058  0.00  0.00    +0.000 A 
ATOM     19  C   UNL     1      47.079   3.381   6.870  0.00  0.00    +0.000 A 
ATOM     20  N   UNL     1      46.105   4.075   7.503  0.00  0.00    +0.000 NA
ENDBRANCH  14  15
ENDBRANCH   7  14
TORSDOF 4
ENDMDL
MODEL 2
REMARK VINA RESULT:    -7.050      2.040      2.703
REMARK INTER + INTRA:          -8.820
REMARK INTER:                  -8.355
REMARK INTRA:                  -0.464
REMARK UNBOUND:                -0.328
REMARK  Name = 
REMARK  4 active torsions:
REMARK  status: ('A' for Active; 'I' for Inactive)
REMARK    1  A    between atoms: N_1  and  C_2
REMARK    2  A    between atoms: C_2  and  C_3
REMARK    3  A    between atoms: N_9  and  C_10
REMARK    4  A    between atoms: C_10  and  C_11
REMARK                            x       y       z     vdW  Elec       q    Type
REMARK                         _______ _______ _______ _____ _____    ______ ____
ROOT
ATOM      1  C   UNL     1      44.891   7.604  11.749  0.00  0.00    +0.000 A 
ATOM      2  C   UNL     1      45.745   7.583  12.851  0.00  0.00    +0.000 A 
ATOM      3  N   UNL     1      46.238   6.481  13.457  0.00  0.00    +0.000 NA
ATOM      4  C   UNL     1      45.867   5.311  12.889  0.00  0.00    +0.000 A 
ATOM      5  C   UNL     1      46.251   4.001  13.251  0.00  0.00    +0.000 A 
ATOM      6  C   UNL     1      45.661   3.136  12.357  0.00  0.00    +0.000 A 
ATOM      7  N   UNL     1      44.892   3.880  11.488  0.00  0.00    +0.000 N 
ATOM      8  C   UNL     1      45.015   5.222  11.789  0.00  0.00    +0.000 A 
ATOM      9  C   UNL     1      44.487   6.380  11.203  0.00  0.00    +0.000 A 
ENDROOT
BRANCH   1  10
ATOM     10  C   UNL     1      44.450   8.911  11.155  0.00  0.00    +0.000 C 
BRANCH  10  11
ATOM     11  N   UNL     1      43.056   8.849  10.731  0.00  0.00    +0.000 NA
ATOM     12  H   UNL     1      42.451   9.018  11.531  0.00  0.00    +0.000 HD
ATOM     13  H   UNL     1      42.849   7.906  10.406  0.00  0.00    +0.000 HD
ENDBRANCH  10  11
ENDBRANCH   1  10
BRANCH   7  14
ATOM     14  C   UNL     1      44.160   3.313  10.360  0.00  0.00    +0.000 C 
BRANCH  14  15
ATOM     15  C   UNL     1      45.066   3.000   9.195  0.00  0.00    +0.000 A 
ATOM     16  C   UNL     1      45.441   3.993   8.289  0.00  0.00    +0.000 A 
ATOM     17  C   UNL     1      46.291   3.667   7.238  0.00  0.00    +0.000 A 
ATOM     18  C   UNL     1      46.733   2.359   7.102  0.00  0.00    +0.000 A 
ATOM     19  C   UNL     1      46.295   1.424   8.022  0.00  0.00    +0.000 A 
ATOM     20  N   UNL     1      45.474   1.711   9.059  0.00  0.00    +0.000 NA
ENDBRANCH  14  15
ENDBRANCH   7  14
TORSDOF 4
ENDMDL
MODEL 3
REMARK VINA RESULT:    -6.603      1.758      5.398
REMARK INTER + INTRA:          -8.281
REMARK INTER:                  -7.842
REMARK INTRA:                  -0.439
REMARK UNBOUND:                -0.328
REMARK  Name = 
REMARK  4 active torsions:
REMARK  status: ('A' for Active; 'I' for Inactive)
REMARK    1  A    between atoms: N_1  and  C_2
REMARK    2  A    between atoms: C_2  and  C_3
REMARK    3  A    between atoms: N_9  and  C_10
REMARK    4  A    between atoms: C_10  and  C_11
REMARK                            x       y       z     vdW  Elec       q    Type
REMARK                         _______ _______ _______ _____ _____    ______ ____
ROOT
ATOM      1  C   UNL     1      45.156   3.585   8.728  0.00  0.00    +0.000 A 
ATOM      2  C   UNL     1      44.428   2.554   9.319  0.00  0.00    +0.000 A 
ATOM      3  N   UNL     1      43.799   2.604  10.513  0.00  0.00    +0.000 NA
ATOM      4  C   UNL     1      43.886   3.796  11.146  0.00  0.00    +0.000 A 
ATOM      5  C   UNL     1      43.299   4.181  12.373  0.00  0.00    +0.000 A 
ATOM      6  C   UNL     1      43.625   5.501  12.588  0.00  0.00    +0.000 A 
ATOM      7  N   UNL     1      44.430   5.918  11.550  0.00  0.00    +0.000 N 
ATOM      8  C   UNL     1      44.592   4.889  10.644  0.00  0.00    +0.000 A 
ATOM      9  C   UNL     1      45.267   4.797   9.420  0.00  0.00    +0.000 A 
ENDROOT
BRANCH   1  10
ATOM     10  C   UNL     1      45.775   3.398   7.372  0.00  0.00    +0.000 C 
BRANCH  10  11
ATOM     11  N   UNL     1      46.870   4.338   7.161  0.00  0.00    +0.000 NA
ATOM     12  H   UNL     1      47.438   4.025   6.376  0.00  0.00    +0.000 HD
ATOM     13  H   UNL     1      47.478   4.330   7.979  0.00  0.00    +0.000 HD
ENDBRANCH  10  11
ENDBRANCH   1  10
BRANCH   7  14
ATOM     14  C   UNL     1      44.926   7.282  11.403  0.00  0.00    +0.000 C 
BRANCH  14  15
ATOM     15  C   UNL     1      46.214   7.502  12.157  0.00  0.00    +0.000 A 
ATOM     16  C   UNL     1      47.375   6.809  11.814  0.00  0.00    +0.000 A 
ATOM     17  C   UNL     1      48.546   7.054  12.524  0.00  0.00    +0.000 A 
ATOM     18  C   UNL     1      48.530   7.966  13.568  0.00  0.00    +0.000 A 
ATOM     19  C   UNL     1      47.333   8.592  13.869  0.00  0.00    +0.000 A 
ATOM     20  N   UNL     1      46.181   8.381  13.193  0.00  0.00    +0.000 NA
ENDBRANCH  14  15
ENDBRANCH   7  14
TORSDOF 4
ENDMDL
MODEL 4
REMARK VINA RESULT:    -5.765      2.880      6.398
REMARK INTER + INTRA:          -7.273
REMARK INTER:                  -6.845
REMARK INTRA:                  -0.428
REMARK UNBOUND:                -0.328
REMARK  Name = 
REMARK  4 active torsions:
REMARK  status: ('A' for Active; 'I' for Inactive)
REMARK    1  A    between atoms: N_1  and  C_2
REMARK    2  A    between atoms: C_2  and  C_3
REMARK    3  A    between atoms: N_9  and  C_10
REMARK    4  A    between atoms: C_10  and  C_11
REMARK                            x       y       z     vdW  Elec       q    Type
REMARK                         _______ _______ _______ _____ _____    ______ ____
ROOT
ATOM      1  C   UNL     1      44.131   4.266  11.201  0.00  0.00    +0.000 A 
ATOM      2  C   UNL     1      43.233   5.308  10.976  0.00  0.00    +0.000 A 
ATOM      3  N   UNL     1      43.405   6.599  11.331  0.00  0.00    +0.000 NA
ATOM      4  C   UNL     1      44.587   6.867  11.932  0.00  0.00    +0.000 A 
ATOM      5  C   UNL     1      45.083   8.114  12.371  0.00  0.00    +0.000 A 
ATOM      6  C   UNL     1      46.347   7.900  12.875  0.00  0.00    +0.000 A 
ATOM      7  N   UNL     1      46.615   6.551  12.797  0.00  0.00    +0.000 N 
ATOM      8  C   UNL     1      45.551   5.898  12.207  0.00  0.00    +0.000 A 
ATOM      9  C   UNL     1      45.331   4.558  11.861  0.00  0.00    +0.000 A 
ENDROOT
BRANCH   1  10
ATOM     10  C   UNL     1      43.822   2.878  10.716  0.00  0.00    +0.000 C 
BRANCH  10  11
ATOM     11  N   UNL     1      43.088   2.122  11.724  0.00  0.00    +0.000 NA
ATOM     12  H   UNL     1      42.404   1.524  11.267  0.00  0.00    +0.000 HD
ATOM     13  H   UNL     1      42.561   2.771  12.308  0.00  0.00    +0.000 HD
ENDBRANCH  10  11
ENDBRANCH   1  10
BRANCH   7  14
ATOM     14  C   UNL     1      47.887   5.951  13.183  0.00  0.00    +0.000 C 
BRANCH  14  15
ATOM     15  C   UNL     1      47.903   5.539  14.634  0.00  0.00    +0.000 A 
ATOM     16  C   UNL     1      47.137   4.462  15.084  0.00  0.00    +0.000 A 
ATOM     17  C   UNL     1      47.194   4.105  16.427  0.00  0.00    +0.000 A 
ATOM     18  C   UNL     1      47.994   4.836  17.293  0.00  0.00    +0.000 A 
ATOM     19  C   UNL     1      48.700   5.908  16.779  0.00  0.00    +0.000 A 
ATOM     20  N   UNL     1      48.673   6.276  15.477  0.00  0.00    +0.000 NA
ENDBRANCH  14  15
ENDBRANCH   7  14
TORSDOF 4
ENDMDL
MODEL 5
REMARK VINA RESULT:    -5.496      2.292      5.890
REMARK INTER + INTRA:          -6.948
REMARK INTER:                  -6.526
REMARK INTRA:                  -0.422
REMARK UNBOUND:                -0.328
REMARK  Name = 
REMARK  4 active torsions:
REMARK  status: ('A' for Active; 'I' for Inactive)
REMARK    1  A    between atoms: N_1  and  C_2
REMARK    2  A    between atoms: C_2  and  C_3
REMARK    3  A    between atoms: N_9  and  C_10
REMARK    4  A    between atoms: C_10  and  C_11
REMARK                            x       y       z     vdW  Elec       q    Type
REMARK                         _______ _______ _______ _____ _____    ______ ____
ROOT
ATOM      1  C   UNL     1      44.930   4.407  10.924  0.00  0.00    +0.000 A 
ATOM      2  C   UNL     1      44.949   3.284  11.750  0.00  0.00    +0.000 A 
ATOM      3  N   UNL     1      45.607   3.168  12.923  0.00  0.00    +0.000 NA
ATOM      4  C   UNL     1      46.273   4.281  13.309  0.00  0.00    +0.000 A 
ATOM      5  C   UNL     1      47.007   4.494  14.497  0.00  0.00    +0.000 A 
ATOM      6  C   UNL     1      47.464   5.793  14.471  0.00  0.00    +0.000 A 
ATOM      7  N   UNL     1      47.067   6.362  13.280  0.00  0.00    +0.000 N 
ATOM      8  C   UNL     1      46.321   5.453  12.556  0.00  0.00    +0.000 A 
ATOM      9  C   UNL     1      45.659   5.534  11.323  0.00  0.00    +0.000 A 
ENDROOT
BRANCH   1  10
ATOM     10  C   UNL     1      44.120   4.406   9.659  0.00  0.00    +0.000 C 
BRANCH  10  11
ATOM     11  N   UNL     1      44.970   4.620   8.493  0.00  0.00    +0.000 NA
ATOM     12  H   UNL     1      45.761   3.982   8.530  0.00  0.00    +0.000 HD
ATOM     13  H   UNL     1      45.356   5.563   8.532  0.00  0.00    +0.000 HD
ENDBRANCH  10  11
ENDBRANCH   1  10
BRANCH   7  14
ATOM     14  C   UNL     1      47.317   7.753  12.921  0.00  0.00    +0.000 C 
BRANCH  14  15
ATOM     15  C   UNL     1      48.778   8.018  12.657  0.00  0.00    +0.000 A 
ATOM     16  C   UNL     1      49.384   7.591  11.474  0.00  0.00    +0.000 A 
ATOM     17  C   UNL     1      50.730   7.870  11.263  0.00  0.00    +0.000 A 
ATOM     18  C   UNL     1      51.445   8.549  12.238  0.00  0.00    +0.000 A 
ATOM     19  C   UNL     1      50.783   8.913  13.397  0.00  0.00    +0.000 A 
ATOM     20  N   UNL     1      49.474   8.663  13.629  0.00  0.00    +0.000 NA
ENDBRANCH  14  15
ENDBRANCH   7  14
TORSDOF 4
ENDMDL
MODEL 6
REMARK VINA RESULT:    -5.408      3.118      7.212
REMARK INTER + INTRA:          -6.842
REMARK INTER:                  -6.663
REMARK INTRA:                  -0.179
REMARK UNBOUND:                -0.328
REMARK  Name = 
REMARK  4 active torsions:
REMARK  status: ('A' for Active; 'I' for Inactive)
REMARK    1  A    between atoms: N_1  and  C_2
REMARK    2  A    between atoms: C_2  and  C_3
REMARK    3  A    between atoms: N_9  and  C_10
REMARK    4  A    between atoms: C_10  and  C_11
REMARK                            x       y       z     vdW  Elec       q    Type
REMARK                         _______ _______ _______ _____ _____    ______ ____
ROOT
ATOM      1  C   UNL     1      44.541   4.296  11.640  0.00  0.00    +0.000 A 
ATOM      2  C   UNL     1      44.869   5.515  11.048  0.00  0.00    +0.000 A 
ATOM      3  N   UNL     1      45.786   6.399  11.498  0.00  0.00    +0.000 NA
ATOM      4  C   UNL     1      46.445   6.010  12.613  0.00  0.00    +0.000 A 
ATOM      5  C   UNL     1      47.486   6.679  13.293  0.00  0.00    +0.000 A 
ATOM      6  C   UNL     1      47.875   5.878  14.343  0.00  0.00    +0.000 A 
ATOM      7  N   UNL     1      47.068   4.760  14.349  0.00  0.00    +0.000 N 
ATOM      8  C   UNL     1      46.190   4.814  13.284  0.00  0.00    +0.000 A 
ATOM      9  C   UNL     1      45.206   3.933  12.817  0.00  0.00    +0.000 A 
ENDROOT
BRANCH   1  10
ATOM     10  C   UNL     1      43.521   3.394  11.006  0.00  0.00    +0.000 C 
BRANCH  10  11
ATOM     11  N   UNL     1      43.272   2.221  11.835  0.00  0.00    +0.000 NA
ATOM     12  H   UNL     1      43.852   1.449  11.511  0.00  0.00    +0.000 HD
ATOM     13  H   UNL     1      42.304   1.926  11.712  0.00  0.00    +0.000 HD
ENDBRANCH  10  11
ENDBRANCH   1  10
BRANCH   7  14
ATOM     14  C   UNL     1      47.221   3.651  15.284  0.00  0.00    +0.000 C 
BRANCH  14  15
ATOM     15  C   UNL     1      47.894   4.077  16.565  0.00  0.00    +0.000 A 
ATOM     16  C   UNL     1      47.186   4.757  17.558  0.00  0.00    +0.000 A 
ATOM     17  C   UNL     1      47.840   5.117  18.731  0.00  0.00    +0.000 A 
ATOM     18  C   UNL     1      49.185   4.811  18.881  0.00  0.00    +0.000 A 
ATOM     19  C   UNL     1      49.826   4.164  17.841  0.00  0.00    +0.000 A 
ATOM     20  N   UNL     1      49.216   3.793  16.692  0.00  0.00    +0.000 NA
ENDBRANCH  14  15
ENDBRANCH   7  14
TORSDOF 4
ENDMDL
MODEL 7
REMARK VINA RESULT:    -5.388      3.083      5.418
REMARK INTER + INTRA:          -6.818
REMARK INTER:                  -6.426
REMARK INTRA:                  -0.392
REMARK UNBOUND:                -0.328
REMARK  Name = 
REMARK  4 active torsions:
REMARK  status: ('A' for Active; 'I' for Inactive)
REMARK    1  A    between atoms: N_1  and  C_2
REMARK    2  A    between atoms: C_2  and  C_3
REMARK    3  A    between atoms: N_9  and  C_10
REMARK    4  A    between atoms: C_10  and  C_11
REMARK                            x       y       z     vdW  Elec       q    Type
REMARK                         _______ _______ _______ _____ _____    ______ ____
ROOT
ATOM      1  C   UNL     1      48.029   4.855  17.009  0.00  0.00    +0.000 A 
ATOM      2  C   UNL     1      48.674   6.091  16.983  0.00  0.00    +0.000 A 
ATOM      3  N   UNL     1      48.824   6.890  15.905  0.00  0.00    +0.000 NA
ATOM      4  C   UNL     1      48.253   6.421  14.772  0.00  0.00    +0.000 A 
ATOM      5  C   UNL     1      48.190   7.038  13.503  0.00  0.00    +0.000 A 
ATOM      6  C   UNL     1      47.467   6.207  12.676  0.00  0.00    +0.000 A 
ATOM      7  N   UNL     1      47.128   5.081  13.394  0.00  0.00    +0.000 N 
ATOM      8  C   UNL     1      47.589   5.198  14.690  0.00  0.00    +0.000 A 
ATOM      9  C   UNL     1      47.481   4.371  15.816  0.00  0.00    +0.000 A 
ENDROOT
BRANCH   1  10
ATOM     10  C   UNL     1      47.906   4.090  18.296  0.00  0.00    +0.000 C 
BRANCH  10  11
ATOM     11  N   UNL     1      47.068   2.909  18.125  0.00  0.00    +0.000 NA
ATOM     12  H   UNL     1      46.861   2.506  19.037  0.00  0.00    +0.000 HD
ATOM     13  H   UNL     1      47.591   2.202  17.608  0.00  0.00    +0.000 HD
ENDBRANCH  10  11
ENDBRANCH   1  10
BRANCH   7  14
ATOM     14  C   UNL     1      46.305   3.997  12.866  0.00  0.00    +0.000 C 
BRANCH  14  15
ATOM     15  C   UNL     1      44.956   4.484  12.400  0.00  0.00    +0.000 A 
ATOM     16  C   UNL     1      44.639   4.535  11.042  0.00  0.00    +0.000 A 
ATOM     17  C   UNL     1      43.377   4.975  10.655  0.00  0.00    +0.000 A 
ATOM     18  C   UNL     1      42.469   5.370  11.626  0.00  0.00    +0.000 A 
ATOM     19  C   UNL     1      42.865   5.320  12.950  0.00  0.00    +0.000 A 
ATOM     20  N   UNL     1      44.082   4.891  13.358  0.00  0.00    +0.000 NA
ENDBRANCH  14  15
ENDBRANCH   7  14
TORSDOF 4
ENDMDL
MODEL 8
REMARK VINA RESULT:    -5.249      2.098      3.934
REMARK INTER + INTRA:          -6.651
REMARK INTER:                  -6.413
REMARK INTRA:                  -0.238
REMARK UNBOUND:                -0.328
REMARK  Name = 
REMARK  4 active torsions:
REMARK  status: ('A' for Active; 'I' for Inactive)
REMARK    1  A    between atoms: N_1  and  C_2
REMARK    2  A    between atoms: C_2  and  C_3
REMARK    3  A    between atoms: N_9  and  C_10
REMARK    4  A    between atoms: C_10  and  C_11
REMARK                            x       y       z     vdW  Elec       q    Type
REMARK                         _______ _______ _______ _____ _____    ______ ____
ROOT
ATOM      1  C   UNL     1      47.463   4.549  15.759  0.00  0.00    +0.000 A 
ATOM      2  C   UNL     1      48.588   5.372  15.776  0.00  0.00    +0.000 A 
ATOM      3  N   UNL     1      48.919   6.291  14.843  0.00  0.00    +0.000 NA
ATOM      4  C   UNL     1      48.030   6.412  13.831  0.00  0.00    +0.000 A 
ATOM      5  C   UNL     1      48.061   7.309  12.740  0.00  0.00    +0.000 A 
ATOM      6  C   UNL     1      46.921   7.095  11.998  0.00  0.00    +0.000 A 
ATOM      7  N   UNL     1      46.220   6.062  12.581  0.00  0.00    +0.000 N 
ATOM      8  C   UNL     1      46.877   5.636  13.718  0.00  0.00    +0.000 A 
ATOM      9  C   UNL     1      46.577   4.663  14.681  0.00  0.00    +0.000 A 
ENDROOT
BRANCH   1  10
ATOM     10  C   UNL     1      47.204   3.594  16.889  0.00  0.00    +0.000 C 
BRANCH  10  11
ATOM     11  N   UNL     1      48.453   3.065  17.425  0.00  0.00    +0.000 NA
ATOM     12  H   UNL     1      49.175   3.781  17.369  0.00  0.00    +0.000 HD
ATOM     13  H   UNL     1      48.766   2.292  16.838  0.00  0.00    +0.000 HD
ENDBRANCH  10  11
ENDBRANCH   1  10
BRANCH   7  14
ATOM     14  C   UNL     1      44.923   5.590  12.106  0.00  0.00    +0.000 C 
BRANCH  14  15
ATOM     15  C   UNL     1      45.053   4.678  10.912  0.00  0.00    +0.000 A 
ATOM     16  C   UNL     1      44.805   3.309  11.022  0.00  0.00    +0.000 A 
ATOM     17  C   UNL     1      44.920   2.506   9.892  0.00  0.00    +0.000 A 
ATOM     18  C   UNL     1      45.296   3.079   8.686  0.00  0.00    +0.000 A 
ATOM     19  C   UNL     1      45.555   4.438   8.662  0.00  0.00    +0.000 A 
ATOM     20  N   UNL     1      45.444   5.246   9.741  0.00  0.00    +0.000 NA
ENDBRANCH  14  15
ENDBRANCH   7  14
TORSDOF 4
ENDMDL
MODEL 9
REMARK VINA RESULT:    -4.706      3.120      7.434
REMARK INTER + INTRA:          -5.997
REMARK INTER:                  -5.813
REMARK INTRA:                  -0.183
REMARK UNBOUND:                -0.328
REMARK  Name = 
REMARK  4 active torsions:
REMARK  status: ('A' for Active; 'I' for Inactive)
REMARK    1  A    between atoms: N_1  and  C_2
REMARK    2  A    between atoms: C_2  and  C_3
REMARK    3  A    between atoms: N_9  and  C_10
REMARK    4  A    between atoms: C_10  and  C_11
REMARK                            x       y       z     vdW  Elec       q    Type
REMARK                         _______ _______ _______ _____ _____    ______ ____
ROOT
ATOM      1  C   UNL     1      44.654   4.821  12.560  0.00  0.00    +0.000 A 
ATOM      2  C   UNL     1      44.805   5.399  11.301  0.00  0.00    +0.000 A 
ATOM      3  N   UNL     1      45.819   6.200  10.908  0.00  0.00    +0.000 NA
ATOM      4  C   UNL     1      46.770   6.409  11.847  0.00  0.00    +0.000 A 
ATOM      5  C   UNL     1      47.968   7.148  11.731  0.00  0.00    +0.000 A 
ATOM      6  C   UNL     1      48.637   7.038  12.930  0.00  0.00    +0.000 A 
ATOM      7  N   UNL     1      47.859   6.291  13.787  0.00  0.00    +0.000 N 
ATOM      8  C   UNL     1      46.711   5.882  13.137  0.00  0.00    +0.000 A 
ATOM      9  C   UNL     1      45.628   5.084  13.530  0.00  0.00    +0.000 A 
ENDROOT
BRANCH   1  10
ATOM     10  C   UNL     1      43.488   3.918  12.846  0.00  0.00    +0.000 C 
BRANCH  10  11
ATOM     11  N   UNL     1      43.806   2.532  12.519  0.00  0.00    +0.000 NA
ATOM     12  H   UNL     1      44.770   2.336  12.781  0.00  0.00    +0.000 HD
ATOM     13  H   UNL     1      43.750   2.407  11.509  0.00  0.00    +0.000 HD
ENDBRANCH  10  11
ENDBRANCH   1  10
BRANCH   7  14
ATOM     14  C   UNL     1      48.268   5.911  15.135  0.00  0.00    +0.000 C 
BRANCH  14  15
ATOM     15  C   UNL     1      49.210   6.918  15.747  0.00  0.00    +0.000 A 
ATOM     16  C   UNL     1      48.751   8.164  16.177  0.00  0.00    +0.000 A 
ATOM     17  C   UNL     1      49.650   9.056  16.751  0.00  0.00    +0.000 A 
ATOM     18  C   UNL     1      50.985   8.697  16.866  0.00  0.00    +0.000 A 
ATOM     19  C   UNL     1      51.370   7.457  16.389  0.00  0.00    +0.000 A 
ATOM     20  N   UNL     1      50.519   6.565  15.834  0.00  0.00    +0.000 NA
ENDBRANCH  14  15
ENDBRANCH   7  14
TORSDOF 4
ENDMDL
