MODEL 1
REMARK VINA RESULT:    -8.309      0.000      0.000
REMARK INTER + INTRA:         -10.273
REMARK INTER:                  -9.766
REMARK INTRA:                  -0.507
REMARK UNBOUND:                -0.507
REMARK  Name = 
REMARK  3 active torsions:
REMARK  status: ('A' for Active; 'I' for Inactive)
REMARK    1  A    between atoms: C_2  and  C_4
REMARK    2  A    between atoms: N_8  and  C_9
REMARK    3  A    between atoms: C_9  and  C_10
REMARK                            x       y       z     vdW  Elec       q    Type
REMARK                         _______ _______ _______ _____ _____    ______ ____
ROOT
ATOM      1  C   UNL     1      46.629   2.711   7.400  0.00  0.00    +0.000 A 
ATOM      2  C   UNL     1      46.328   4.043   7.665  0.00  0.00    +0.000 A 
ATOM      3  C   UNL     1      45.478   4.353   8.729  0.00  0.00    +0.000 A 
ATOM      4  C   UNL     1      44.936   3.332   9.505  0.00  0.00    +0.000 A 
ATOM      5  N   UNL     1      43.999   3.550  10.512  0.00  0.00    +0.000 N 
ATOM      6  N   UNL     1      45.223   2.036   9.253  0.00  0.00    +0.000 NA
ATOM      7  C   UNL     1      46.048   1.750   8.210  0.00  0.00    +0.000 A 
ATOM      8  H   UNL     1      43.829   2.655  10.969  0.00  0.00    +0.000 HD
ENDROOT
BRANCH   1  10
ATOM      9  N   UNL     1      47.405   2.990   5.113  0.00  0.00    +0.000 N 
ATOM     10  C   UNL     1      47.490   2.285   6.281  0.00  0.00    +0.000 C 
ATOM     11  O   UNL     1      48.280   1.357   6.397  0.00  0.00    +0.000 OA
ATOM     12  H   UNL     1      48.066   2.742   4.386  0.00  0.00    +0.000 HD
ATOM     13  H   UNL     1      46.961   3.895   5.050  0.00  0.00    +0.000 HD
ENDBRANCH   1  10
BRANCH   5  14
ATOM     14  C   UNL     1      43.933   4.735  11.386  0.00  0.00    +0.000 C 
ATOM     15  C   UNL     1      42.595   4.915  12.105  0.00  0.00    +0.000 C 
ATOM     16  C   UNL     1      43.035   5.929  11.107  0.00  0.00    +0.000 C 
BRANCH  14  17
ATOM     17  C   UNL     1      45.198   4.995  12.226  0.00  0.00    +0.000 A 
ATOM     18  C   UNL     1      45.975   6.135  12.015  0.00  0.00    +0.000 A 
ATOM     19  C   UNL     1      47.056   6.406  12.847  0.00  0.00    +0.000 A 
ATOM     20  C   UNL     1      47.357   5.522  13.877  0.00  0.00    +0.000 A 
ATOM     21  C   UNL     1      46.567   4.395  14.012  0.00  0.00    +0.000 A 
ATOM     22  N   UNL     1      45.513   4.114  13.217  0.00  0.00    +0.000 NA
ENDBRANCH  14  17
ENDBRANCH   5  14
TORSDOF 3
ENDMDL
MODEL 2
REMARK VINA RESULT:    -6.361      3.224      6.255
REMARK INTER + INTRA:          -7.983
REMARK INTER:                  -7.746
REMARK INTRA:                  -0.237
REMARK UNBOUND:                -0.507
REMARK  Name = 
REMARK  3 active torsions:
REMARK  status: ('A' for Active; 'I' for Inactive)
REMARK    1  A    between atoms: C_2  and  C_4
REMARK    2  A    between atoms: N_8  and  C_9
REMARK    3  A    between atoms: C_9  and  C_10
REMARK                            x       y       z     vdW  Elec       q    Type
REMARK                         _______ _______ _______ _____ _____    ______ ____
ROOT
ATOM      1  C   UNL     1      48.203   6.660  13.766  0.00  0.00    +0.000 A 
ATOM      2  C   UNL     1      47.468   5.516  14.055  0.00  0.00    +0.000 A 
ATOM      3  C   UNL     1      46.447   5.122  13.186  0.00  0.00    +0.000 A 
ATOM      4  C   UNL     1      46.172   5.878  12.051  0.00  0.00    +0.000 A 
ATOM      5  N   UNL     1      45.105   5.614  11.194  0.00  0.00    +0.000 N 
ATOM      6  N   UNL     1      46.881   6.991  11.763  0.00  0.00    +0.000 NA
ATOM      7  C   UNL     1      47.869   7.365  12.622  0.00  0.00    +0.000 A 
ATOM      8  H   UNL     1      45.176   6.262  10.411  0.00  0.00    +0.000 HD
ENDROOT
BRANCH   1  10
ATOM      9  N   UNL     1      50.467   7.499  14.050  0.00  0.00    +0.000 N 
ATOM     10  C   UNL     1      49.278   7.170  14.638  0.00  0.00    +0.000 C 
ATOM     11  O   UNL     1      49.108   7.329  15.839  0.00  0.00    +0.000 OA
ATOM     12  H   UNL     1      51.163   7.930  14.648  0.00  0.00    +0.000 HD
ATOM     13  H   UNL     1      50.572   7.616  13.052  0.00  0.00    +0.000 HD
ENDBRANCH   1  10
BRANCH   5  14
ATOM     14  C   UNL     1      44.567   4.280  10.874  0.00  0.00    +0.000 C 
ATOM     15  C   UNL     1      43.056   4.146  11.069  0.00  0.00    +0.000 C 
ATOM     16  C   UNL     1      43.980   3.344  11.917  0.00  0.00    +0.000 C 
BRANCH  14  17
ATOM     17  C   UNL     1      45.150   3.632   9.604  0.00  0.00    +0.000 A 
ATOM     18  C   UNL     1      45.648   4.420   8.563  0.00  0.00    +0.000 A 
ATOM     19  C   UNL     1      46.262   3.821   7.468  0.00  0.00    +0.000 A 
ATOM     20  C   UNL     1      46.358   2.435   7.418  0.00  0.00    +0.000 A 
ATOM     21  C   UNL     1      45.816   1.713   8.465  0.00  0.00    +0.000 A 
ATOM     22  N   UNL     1      45.218   2.272   9.538  0.00  0.00    +0.000 NA
ENDBRANCH  14  17
ENDBRANCH   5  14
TORSDOF 3
ENDMDL
MODEL 3
REMARK VINA RESULT:    -6.125      2.982      6.345
REMARK INTER + INTRA:          -7.706
REMARK INTER:                  -8.130
REMARK INTRA:                   0.424
REMARK UNBOUND:                -0.507
REMARK  Name = 
REMARK  3 active torsions:
REMARK  status: ('A' for Active; 'I' for Inactive)
REMARK    1  A    between atoms: C_2  and  C_4
REMARK    2  A    between atoms: N_8  and  C_9
REMARK    3  A    between atoms: C_9  and  C_10
REMARK                            x       y       z     vdW  Elec       q    Type
REMARK                         _______ _______ _______ _____ _____    ______ ____
ROOT
ATOM      1  C   UNL     1      47.911   5.778  14.732  0.00  0.00    +0.000 A 
ATOM      2  C   UNL     1      47.442   6.140  13.474  0.00  0.00    +0.000 A 
ATOM      3  C   UNL     1      46.647   5.244  12.757  0.00  0.00    +0.000 A 
ATOM      4  C   UNL     1      46.340   4.000  13.301  0.00  0.00    +0.000 A 
ATOM      5  N   UNL     1      45.645   3.010  12.608  0.00  0.00    +0.000 N 
ATOM      6  N   UNL     1      46.792   3.640  14.522  0.00  0.00    +0.000 NA
ATOM      7  C   UNL     1      47.570   4.522  15.206  0.00  0.00    +0.000 A 
ATOM      8  H   UNL     1      45.489   2.238  13.254  0.00  0.00    +0.000 HD
ENDROOT
BRANCH   1  10
ATOM      9  N   UNL     1      48.185   7.409  16.514  0.00  0.00    +0.000 N 
ATOM     10  C   UNL     1      48.781   6.644  15.550  0.00  0.00    +0.000 C 
ATOM     11  O   UNL     1      49.995   6.659  15.399  0.00  0.00    +0.000 OA
ATOM     12  H   UNL     1      48.805   7.930  17.124  0.00  0.00    +0.000 HD
ATOM     13  H   UNL     1      47.240   7.250  16.834  0.00  0.00    +0.000 HD
ENDBRANCH   1  10
BRANCH   5  14
ATOM     14  C   UNL     1      44.578   3.240  11.618  0.00  0.00    +0.000 C 
ATOM     15  C   UNL     1      43.528   4.266  12.050  0.00  0.00    +0.000 C 
ATOM     16  C   UNL     1      43.127   2.847  11.847  0.00  0.00    +0.000 C 
BRANCH  14  17
ATOM     17  C   UNL     1      45.055   3.329  10.156  0.00  0.00    +0.000 A 
ATOM     18  C   UNL     1      45.317   4.565   9.563  0.00  0.00    +0.000 A 
ATOM     19  C   UNL     1      45.842   4.624   8.277  0.00  0.00    +0.000 A 
ATOM     20  C   UNL     1      46.088   3.441   7.589  0.00  0.00    +0.000 A 
ATOM     21  C   UNL     1      45.776   2.251   8.222  0.00  0.00    +0.000 A 
ATOM     22  N   UNL     1      45.268   2.170   9.470  0.00  0.00    +0.000 NA
ENDBRANCH  14  17
ENDBRANCH   5  14
TORSDOF 3
ENDMDL
MODEL 4
REMARK VINA RESULT:    -5.455      4.718      7.765
REMARK INTER + INTRA:          -6.919
REMARK INTER:                  -7.215
REMARK INTRA:                   0.296
REMARK UNBOUND:                -0.507
REMARK  Name = 
REMARK  3 active torsions:
REMARK  status: ('A' for Active; 'I' for Inactive)
REMARK    1  A    between atoms: C_2  and  C_4
REMARK    2  A    between atoms: N_8  and  C_9
REMARK    3  A    between atoms: C_9  and  C_10
REMARK                            x       y       z     vdW  Elec       q    Type
REMARK                         _______ _______ _______ _____ _____    ______ ____
ROOT
ATOM      1  C   UNL     1      48.321   4.293  17.648  0.00  0.00    +0.000 A 
ATOM      2  C   UNL     1      48.330   5.563  17.081  0.00  0.00    +0.000 A 
ATOM      3  C   UNL     1      47.926   5.722  15.754  0.00  0.00    +0.000 A 
ATOM      4  C   UNL     1      47.527   4.614  15.013  0.00  0.00    +0.000 A 
ATOM      5  N   UNL     1      47.213   4.671  13.656  0.00  0.00    +0.000 N 
ATOM      6  N   UNL     1      47.517   3.377  15.555  0.00  0.00    +0.000 NA
ATOM      7  C   UNL     1      47.919   3.238  16.848  0.00  0.00    +0.000 A 
ATOM      8  H   UNL     1      46.883   3.748  13.380  0.00  0.00    +0.000 HD
ENDROOT
BRANCH   1  10
ATOM      9  N   UNL     1      48.264   2.907  19.645  0.00  0.00    +0.000 N 
ATOM     10  C   UNL     1      48.760   4.023  19.030  0.00  0.00    +0.000 C 
ATOM     11  O   UNL     1      49.563   4.748  19.602  0.00  0.00    +0.000 OA
ATOM     12  H   UNL     1      48.643   2.689  20.559  0.00  0.00    +0.000 HD
ATOM     13  H   UNL     1      47.803   2.162  19.141  0.00  0.00    +0.000 HD
ENDBRANCH   1  10
BRANCH   5  14
ATOM     14  C   UNL     1      46.578   5.809  12.967  0.00  0.00    +0.000 C 
ATOM     15  C   UNL     1      47.520   6.599  12.057  0.00  0.00    +0.000 C 
ATOM     16  C   UNL     1      46.929   7.260  13.253  0.00  0.00    +0.000 C 
BRANCH  14  17
ATOM     17  C   UNL     1      45.170   5.528  12.410  0.00  0.00    +0.000 A 
ATOM     18  C   UNL     1      44.988   5.172  11.073  0.00  0.00    +0.000 A 
ATOM     19  C   UNL     1      43.723   4.824  10.610  0.00  0.00    +0.000 A 
ATOM     20  C   UNL     1      42.648   4.850  11.490  0.00  0.00    +0.000 A 
ATOM     21  C   UNL     1      42.891   5.243  12.793  0.00  0.00    +0.000 A 
ATOM     22  N   UNL     1      44.109   5.582  13.265  0.00  0.00    +0.000 NA
ENDBRANCH  14  17
ENDBRANCH   5  14
TORSDOF 3
ENDMDL
MODEL 5
REMARK VINA RESULT:    -5.426      3.039      5.048
REMARK INTER + INTRA:          -6.884
REMARK INTER:                  -7.167
REMARK INTRA:                   0.283
REMARK UNBOUND:                -0.507
REMARK  Name = 
REMARK  3 active torsions:
REMARK  status: ('A' for Active; 'I' for Inactive)
REMARK    1  A    between atoms: C_2  and  C_4
REMARK    2  A    between atoms: N_8  and  C_9
REMARK    3  A    between atoms: C_9  and  C_10
REMARK                            x       y       z     vdW  Elec       q    Type
REMARK                         _______ _______ _______ _____ _____    ______ ____
ROOT
ATOM      1  C   UNL     1      45.030   4.418  10.894  0.00  0.00    +0.000 A 
ATOM      2  C   UNL     1      45.599   5.671  10.690  0.00  0.00    +0.000 A 
ATOM      3  C   UNL     1      46.263   6.300  11.746  0.00  0.00    +0.000 A 
ATOM      4  C   UNL     1      46.341   5.675  12.987  0.00  0.00    +0.000 A 
ATOM      5  N   UNL     1      46.890   6.279  14.116  0.00  0.00    +0.000 N 
ATOM      6  N   UNL     1      45.790   4.459  13.193  0.00  0.00    +0.000 NA
ATOM      7  C   UNL     1      45.142   3.862  12.157  0.00  0.00    +0.000 A 
ATOM      8  H   UNL     1      46.892   5.586  14.862  0.00  0.00    +0.000 HD
ENDROOT
BRANCH   1  10
ATOM      9  N   UNL     1      44.126   4.308   8.640  0.00  0.00    +0.000 N 
ATOM     10  C   UNL     1      44.284   3.691   9.850  0.00  0.00    +0.000 C 
ATOM     11  O   UNL     1      43.849   2.563  10.040  0.00  0.00    +0.000 OA
ATOM     12  H   UNL     1      43.689   3.760   7.907  0.00  0.00    +0.000 HD
ATOM     13  H   UNL     1      44.666   5.115   8.361  0.00  0.00    +0.000 HD
ENDBRANCH   1  10
BRANCH   5  14
ATOM     14  C   UNL     1      48.017   7.229  14.123  0.00  0.00    +0.000 C 
ATOM     15  C   UNL     1      47.601   8.701  14.132  0.00  0.00    +0.000 C 
ATOM     16  C   UNL     1      48.337   8.153  12.959  0.00  0.00    +0.000 C 
BRANCH  14  17
ATOM     17  C   UNL     1      49.184   6.846  15.051  0.00  0.00    +0.000 A 
ATOM     18  C   UNL     1      50.434   7.454  14.917  0.00  0.00    +0.000 A 
ATOM     19  C   UNL     1      51.448   7.172  15.826  0.00  0.00    +0.000 A 
ATOM     20  C   UNL     1      51.205   6.269  16.855  0.00  0.00    +0.000 A 
ATOM     21  C   UNL     1      49.957   5.677  16.912  0.00  0.00    +0.000 A 
ATOM     22  N   UNL     1      48.957   5.938  16.042  0.00  0.00    +0.000 NA
ENDBRANCH  14  17
ENDBRANCH   5  14
TORSDOF 3
ENDMDL
MODEL 6
REMARK VINA RESULT:    -5.319      3.773      6.388
REMARK INTER + INTRA:          -6.758
REMARK INTER:                  -6.819
REMARK INTRA:                   0.061
REMARK UNBOUND:                -0.507
REMARK  Name = 
REMARK  3 active torsions:
REMARK  status: ('A' for Active; 'I' for Inactive)
REMARK    1  A    between atoms: C_2  and  C_4
REMARK    2  A    between atoms: N_8  and  C_9
REMARK    3  A    between atoms: C_9  and  C_10
REMARK                            x       y       z     vdW  Elec       q    Type
REMARK                         _______ _______ _______ _____ _____    ______ ____
ROOT
ATOM      1  C   UNL     1      45.891   5.395  12.068  0.00  0.00    +0.000 A 
ATOM      2  C   UNL     1      46.712   6.358  12.645  0.00  0.00    +0.000 A 
ATOM      3  C   UNL     1      47.195   6.157  13.940  0.00  0.00    +0.000 A 
ATOM      4  C   UNL     1      46.845   5.007  14.641  0.00  0.00    +0.000 A 
ATOM      5  N   UNL     1      47.196   4.783  15.971  0.00  0.00    +0.000 N 
ATOM      6  N   UNL     1      46.048   4.067  14.088  0.00  0.00    +0.000 NA
ATOM      7  C   UNL     1      45.581   4.279  12.828  0.00  0.00    +0.000 A 
ATOM      8  H   UNL     1      46.885   3.843  16.214  0.00  0.00    +0.000 HD
ENDROOT
BRANCH   1  10
ATOM      9  N   UNL     1      43.963   5.751  10.631  0.00  0.00    +0.000 N 
ATOM     10  C   UNL     1      45.309   5.533  10.720  0.00  0.00    +0.000 C 
ATOM     11  O   UNL     1      46.005   5.487   9.714  0.00  0.00    +0.000 OA
ATOM     12  H   UNL     1      43.595   5.932   9.704  0.00  0.00    +0.000 HD
ATOM     13  H   UNL     1      43.400   6.036  11.420  0.00  0.00    +0.000 HD
ENDBRANCH   1  10
BRANCH   5  14
ATOM     14  C   UNL     1      48.439   5.233  16.621  0.00  0.00    +0.000 C 
ATOM     15  C   UNL     1      48.238   6.308  17.690  0.00  0.00    +0.000 C 
ATOM     16  C   UNL     1      49.007   6.633  16.458  0.00  0.00    +0.000 C 
BRANCH  14  17
ATOM     17  C   UNL     1      49.437   4.110  16.964  0.00  0.00    +0.000 A 
ATOM     18  C   UNL     1      49.067   2.768  16.860  0.00  0.00    +0.000 A 
ATOM     19  C   UNL     1      50.007   1.767  17.075  0.00  0.00    +0.000 A 
ATOM     20  C   UNL     1      51.310   2.120  17.408  0.00  0.00    +0.000 A 
ATOM     21  C   UNL     1      51.603   3.466  17.526  0.00  0.00    +0.000 A 
ATOM     22  N   UNL     1      50.707   4.454  17.320  0.00  0.00    +0.000 NA
ENDBRANCH  14  17
ENDBRANCH   5  14
TORSDOF 3
ENDMDL
