MODEL 1
REMARK VINA RESULT:    -8.753      0.000      0.000
REMARK INTER + INTRA:         -12.787
REMARK INTER:                 -11.823
REMARK INTRA:                  -0.964
REMARK UNBOUND:                -0.964
REMARK  Name = 
REMARK  6 active torsions:
REMARK  status: ('A' for Active; 'I' for Inactive)
REMARK    1  A    between atoms: C_2  and  C_25
REMARK    2  A    between atoms: N_3  and  C_4
REMARK    3  A    between atoms: C_4  and  C_5
REMARK    4  A    between atoms: C_8  and  C_9
REMARK    5  A    between atoms: C_9  and  N_10
REMARK    6  A    between atoms: C_11  and  C_13
REMARK                            x       y       z     vdW  Elec       q    Type
REMARK                         _______ _______ _______ _____ _____    ______ ____
ROOT
ATOM      1  C   UNL     1      44.772   6.109  11.137  0.00  0.00    +0.000 A 
ATOM      2  C   UNL     1      44.399   7.415  11.453  0.00  0.00    +0.000 A 
ATOM      3  C   UNL     1      45.229   8.178  12.274  0.00  0.00    +0.000 A 
ATOM      4  C   UNL     1      46.425   7.637  12.747  0.00  0.00    +0.000 A 
ATOM      5  C   UNL     1      46.719   6.330  12.373  0.00  0.00    +0.000 A 
ATOM      6  N   UNL     1      45.933   5.564  11.579  0.00  0.00    +0.000 NA
ENDROOT
BRANCH   1   7
ATOM      7  C   UNL     1      43.863   5.241  10.301  0.00  0.00    +0.000 C 
BRANCH   7  10
ATOM      8  O   UNL     1      44.463   2.504  10.276  0.00  0.00    +0.000 OA
ATOM      9  C   UNL     1      44.855   3.205   9.347  0.00  0.00    +0.000 C 
ATOM     10  N   UNL     1      44.556   4.546   9.237  0.00  0.00    +0.000 N 
ATOM     11  H   UNL     1      45.045   5.078   8.523  0.00  0.00    +0.000 HD
BRANCH   9  12
ATOM     12  C   UNL     1      45.693   2.622   8.250  0.00  0.00    +0.000 A 
ATOM     13  C   UNL     1      45.980   3.403   7.134  0.00  0.00    +0.000 A 
ATOM     14  C   UNL     1      46.779   2.859   6.134  0.00  0.00    +0.000 A 
ATOM     15  C   UNL     1      47.258   1.563   6.280  0.00  0.00    +0.000 A 
ATOM     16  C   UNL     1      46.917   0.856   7.425  0.00  0.00    +0.000 A 
ATOM     17  N   UNL     1      46.144   1.348   8.421  0.00  0.00    +0.000 NA
ENDBRANCH   9  12
ENDBRANCH   7  10
ENDBRANCH   1   7
BRANCH   4  18
ATOM     18  C   UNL     1      47.347   8.404  13.649  0.00  0.00    +0.000 C 
BRANCH  18  19
ATOM     19  N   UNL     1      47.695   7.646  14.826  0.00  0.00    +0.000 N 
ATOM     20  C   UNL     1      48.915   7.026  14.931  0.00  0.00    +0.000 C 
ATOM     21  O   UNL     1      49.768   7.121  14.052  0.00  0.00    +0.000 OA
ATOM     22  H   UNL     1      46.941   7.363  15.444  0.00  0.00    +0.000 HD
BRANCH  20  23
ATOM     23  C   UNL     1      49.179   6.293  16.177  0.00  0.00    +0.000 A 
ATOM     24  C   UNL     1      50.183   6.730  17.032  0.00  0.00    +0.000 A 
ATOM     25  S   UNL     1      50.320   5.803  18.457  0.00  0.00    +0.000 S 
ATOM     26  C   UNL     1      49.081   4.752  17.958  0.00  0.00    +0.000 A 
ATOM     27  N   UNL     1      48.707   3.694  18.728  0.00  0.00    +0.000 NA
ATOM     28  C   UNL     1      47.777   2.962  18.213  0.00  0.00    +0.000 A 
ATOM     29  N   UNL     1      47.182   3.193  17.001  0.00  0.00    +0.000 N 
ATOM     30  C   UNL     1      47.505   4.265  16.202  0.00  0.00    +0.000 A 
ATOM     31  O   UNL     1      46.924   4.472  15.140  0.00  0.00    +0.000 OA
ATOM     32  C   UNL     1      48.554   5.114  16.729  0.00  0.00    +0.000 A 
ATOM     33  H   UNL     1      46.453   2.583  16.658  0.00  0.00    +0.000 HD
ENDBRANCH  20  23
ENDBRANCH  18  19
ENDBRANCH   4  18
TORSDOF 6
ENDMDL
MODEL 2
REMARK VINA RESULT:    -7.812      2.300      2.768
REMARK INTER + INTRA:         -11.517
REMARK INTER:                 -10.788
REMARK INTRA:                  -0.729
REMARK UNBOUND:                -0.964
REMARK  Name = 
REMARK  6 active torsions:
REMARK  status: ('A' for Active; 'I' for Inactive)
REMARK    1  A    between atoms: C_2  and  C_25
REMARK    2  A    between atoms: N_3  and  C_4
REMARK    3  A    between atoms: C_4  and  C_5
REMARK    4  A    between atoms: C_8  and  C_9
REMARK    5  A    between atoms: C_9  and  N_10
REMARK    6  A    between atoms: C_11  and  C_13
REMARK                            x       y       z     vdW  Elec       q    Type
REMARK                         _______ _______ _______ _____ _____    ______ ____
ROOT
ATOM      1  C   UNL     1      45.890   4.676  12.852  0.00  0.00    +0.000 A 
ATOM      2  C   UNL     1      46.611   4.032  13.856  0.00  0.00    +0.000 A 
ATOM      3  C   UNL     1      47.483   4.777  14.649  0.00  0.00    +0.000 A 
ATOM      4  C   UNL     1      47.605   6.152  14.444  0.00  0.00    +0.000 A 
ATOM      5  C   UNL     1      46.840   6.710  13.425  0.00  0.00    +0.000 A 
ATOM      6  N   UNL     1      45.986   6.012  12.638  0.00  0.00    +0.000 NA
ENDROOT
BRANCH   1   7
ATOM      7  C   UNL     1      44.985   3.883  11.939  0.00  0.00    +0.000 C 
BRANCH   7  10
ATOM      8  O   UNL     1      43.855   2.266   9.949  0.00  0.00    +0.000 OA
ATOM      9  C   UNL     1      44.960   2.763   9.752  0.00  0.00    +0.000 C 
ATOM     10  N   UNL     1      45.569   3.623  10.640  0.00  0.00    +0.000 N 
ATOM     11  H   UNL     1      46.540   3.865  10.468  0.00  0.00    +0.000 HD
BRANCH   9  12
ATOM     12  C   UNL     1      45.721   2.462   8.496  0.00  0.00    +0.000 A 
ATOM     13  C   UNL     1      45.847   3.457   7.531  0.00  0.00    +0.000 A 
ATOM     14  C   UNL     1      46.576   3.174   6.380  0.00  0.00    +0.000 A 
ATOM     15  C   UNL     1      47.147   1.915   6.234  0.00  0.00    +0.000 A 
ATOM     16  C   UNL     1      46.964   0.983   7.246  0.00  0.00    +0.000 A 
ATOM     17  N   UNL     1      46.265   1.219   8.380  0.00  0.00    +0.000 NA
ENDBRANCH   9  12
ENDBRANCH   7  10
ENDBRANCH   1   7
BRANCH   4  18
ATOM     18  C   UNL     1      48.542   7.001  15.254  0.00  0.00    +0.000 C 
BRANCH  18  19
ATOM     19  N   UNL     1      49.649   6.232  15.767  0.00  0.00    +0.000 N 
ATOM     20  C   UNL     1      49.655   5.780  17.063  0.00  0.00    +0.000 C 
ATOM     21  O   UNL     1      48.709   5.976  17.821  0.00  0.00    +0.000 OA
ATOM     22  H   UNL     1      50.522   6.261  15.249  0.00  0.00    +0.000 HD
BRANCH  20  23
ATOM     23  C   UNL     1      50.822   4.992  17.483  0.00  0.00    +0.000 A 
ATOM     24  C   UNL     1      51.946   5.640  17.979  0.00  0.00    +0.000 A 
ATOM     25  S   UNL     1      53.186   4.577  18.473  0.00  0.00    +0.000 S 
ATOM     26  C   UNL     1      52.288   3.217  17.990  0.00  0.00    +0.000 A 
ATOM     27  N   UNL     1      52.795   1.961  18.119  0.00  0.00    +0.000 NA
ATOM     28  C   UNL     1      52.019   1.025  17.684  0.00  0.00    +0.000 A 
ATOM     29  N   UNL     1      50.780   1.229  17.137  0.00  0.00    +0.000 N 
ATOM     30  C   UNL     1      50.213   2.476  17.014  0.00  0.00    +0.000 A 
ATOM     31  O   UNL     1      49.082   2.626  16.561  0.00  0.00    +0.000 OA
ATOM     32  C   UNL     1      51.049   3.566  17.477  0.00  0.00    +0.000 A 
ATOM     33  H   UNL     1      50.220   0.450  16.821  0.00  0.00    +0.000 HD
ENDBRANCH  20  23
ENDBRANCH  18  19
ENDBRANCH   4  18
TORSDOF 6
ENDMDL
MODEL 3
REMARK VINA RESULT:    -7.337      4.839      9.617
REMARK INTER + INTRA:         -10.875
REMARK INTER:                 -10.084
REMARK INTRA:                  -0.791
REMARK UNBOUND:                -0.964
REMARK  Name = 
REMARK  6 active torsions:
REMARK  status: ('A' for Active; 'I' for Inactive)
REMARK    1  A    between atoms: C_2  and  C_25
REMARK    2  A    between atoms: N_3  and  C_4
REMARK    3  A    between atoms: C_4  and  C_5
REMARK    4  A    between atoms: C_8  and  C_9
REMARK    5  A    between atoms: C_9  and  N_10
REMARK    6  A    between atoms: C_11  and  C_13
REMARK                            x       y       z     vdW  Elec       q    Type
REMARK                         _______ _______ _______ _____ _____    ______ ____
ROOT
ATOM      1  C   UNL     1      51.291   2.934  17.775  0.00  0.00    +0.000 A 
ATOM      2  C   UNL     1      50.640   1.930  17.058  0.00  0.00    +0.000 A 
ATOM      3  C   UNL     1      49.287   2.082  16.754  0.00  0.00    +0.000 A 
ATOM      4  C   UNL     1      48.612   3.238  17.150  0.00  0.00    +0.000 A 
ATOM      5  C   UNL     1      49.345   4.188  17.853  0.00  0.00    +0.000 A 
ATOM      6  N   UNL     1      50.658   4.069  18.164  0.00  0.00    +0.000 NA
ENDROOT
BRANCH   1   7
ATOM      7  C   UNL     1      52.739   2.768  18.169  0.00  0.00    +0.000 C 
BRANCH   7  10
ATOM      8  O   UNL     1      54.791   1.311  16.938  0.00  0.00    +0.000 OA
ATOM      9  C   UNL     1      54.085   0.751  17.771  0.00  0.00    +0.000 C 
ATOM     10  N   UNL     1      53.095   1.399  18.477  0.00  0.00    +0.000 N 
ATOM     11  H   UNL     1      52.463   0.828  19.031  0.00  0.00    +0.000 HD
BRANCH   9  12
ATOM     12  C   UNL     1      54.275  -0.703  18.081  0.00  0.00    +0.000 A 
ATOM     13  C   UNL     1      55.019  -1.486  17.205  0.00  0.00    +0.000 A 
ATOM     14  C   UNL     1      55.210  -2.829  17.516  0.00  0.00    +0.000 A 
ATOM     15  C   UNL     1      54.650  -3.339  18.681  0.00  0.00    +0.000 A 
ATOM     16  C   UNL     1      53.917  -2.485  19.494  0.00  0.00    +0.000 A 
ATOM     17  N   UNL     1      53.711  -1.174  19.228  0.00  0.00    +0.000 NA
ENDBRANCH   9  12
ENDBRANCH   7  10
ENDBRANCH   1   7
BRANCH   4  18
ATOM     18  C   UNL     1      47.153   3.446  16.869  0.00  0.00    +0.000 C 
BRANCH  18  19
ATOM     19  N   UNL     1      46.942   4.474  15.879  0.00  0.00    +0.000 N 
ATOM     20  C   UNL     1      47.010   4.188  14.538  0.00  0.00    +0.000 C 
ATOM     21  O   UNL     1      47.213   3.048  14.129  0.00  0.00    +0.000 OA
ATOM     22  H   UNL     1      47.006   5.441  16.183  0.00  0.00    +0.000 HD
BRANCH  20  23
ATOM     23  C   UNL     1      46.762   5.300  13.611  0.00  0.00    +0.000 A 
ATOM     24  C   UNL     1      47.795   6.173  13.294  0.00  0.00    +0.000 A 
ATOM     25  S   UNL     1      47.356   7.372  12.163  0.00  0.00    +0.000 S 
ATOM     26  C   UNL     1      45.755   6.803  12.099  0.00  0.00    +0.000 A 
ATOM     27  N   UNL     1      44.824   7.414  11.318  0.00  0.00    +0.000 NA
ATOM     28  C   UNL     1      43.644   6.897  11.390  0.00  0.00    +0.000 A 
ATOM     29  N   UNL     1      43.309   5.820  12.168  0.00  0.00    +0.000 N 
ATOM     30  C   UNL     1      44.221   5.151  12.949  0.00  0.00    +0.000 A 
ATOM     31  O   UNL     1      43.903   4.160  13.602  0.00  0.00    +0.000 OA
ATOM     32  C   UNL     1      45.562   5.699  12.914  0.00  0.00    +0.000 A 
ATOM     33  H   UNL     1      42.365   5.460  12.173  0.00  0.00    +0.000 HD
ENDBRANCH  20  23
ENDBRANCH  18  19
ENDBRANCH   4  18
TORSDOF 6
ENDMDL
MODEL 4
REMARK VINA RESULT:    -7.224      3.311      4.688
REMARK INTER + INTRA:         -10.722
REMARK INTER:                  -9.549
REMARK INTRA:                  -1.173
REMARK UNBOUND:                -0.964
REMARK  Name = 
REMARK  6 active torsions:
REMARK  status: ('A' for Active; 'I' for Inactive)
REMARK    1  A    between atoms: C_2  and  C_25
REMARK    2  A    between atoms: N_3  and  C_4
REMARK    3  A    between atoms: C_4  and  C_5
REMARK    4  A    between atoms: C_8  and  C_9
REMARK    5  A    between atoms: C_9  and  N_10
REMARK    6  A    between atoms: C_11  and  C_13
REMARK                            x       y       z     vdW  Elec       q    Type
REMARK                         _______ _______ _______ _____ _____    ______ ____
ROOT
ATOM      1  C   UNL     1      45.659   5.822  11.720  0.00  0.00    +0.000 A 
ATOM      2  C   UNL     1      46.145   7.128  11.758  0.00  0.00    +0.000 A 
ATOM      3  C   UNL     1      47.067   7.480  12.744  0.00  0.00    +0.000 A 
ATOM      4  C   UNL     1      47.503   6.522  13.660  0.00  0.00    +0.000 A 
ATOM      5  C   UNL     1      46.969   5.244  13.540  0.00  0.00    +0.000 A 
ATOM      6  N   UNL     1      46.073   4.872  12.595  0.00  0.00    +0.000 NA
ENDROOT
BRANCH   1   7
ATOM      7  C   UNL     1      44.615   5.430  10.701  0.00  0.00    +0.000 C 
BRANCH   7  10
ATOM      8  O   UNL     1      44.391   2.679  10.217  0.00  0.00    +0.000 OA
ATOM      9  C   UNL     1      45.050   3.365   9.441  0.00  0.00    +0.000 C 
ATOM     10  N   UNL     1      45.166   4.733   9.558  0.00  0.00    +0.000 N 
ATOM     11  H   UNL     1      45.849   5.198   8.967  0.00  0.00    +0.000 HD
BRANCH   9  12
ATOM     12  C   UNL     1      45.775   2.736   8.291  0.00  0.00    +0.000 A 
ATOM     13  C   UNL     1      46.022   3.498   7.153  0.00  0.00    +0.000 A 
ATOM     14  C   UNL     1      46.717   2.910   6.101  0.00  0.00    +0.000 A 
ATOM     15  C   UNL     1      47.135   1.589   6.220  0.00  0.00    +0.000 A 
ATOM     16  C   UNL     1      46.838   0.904   7.390  0.00  0.00    +0.000 A 
ATOM     17  N   UNL     1      46.167   1.439   8.436  0.00  0.00    +0.000 NA
ENDBRANCH   9  12
ENDBRANCH   7  10
ENDBRANCH   1   7
BRANCH   4  18
ATOM     18  C   UNL     1      48.477   6.849  14.755  0.00  0.00    +0.000 C 
BRANCH  18  19
ATOM     19  N   UNL     1      49.779   7.179  14.229  0.00  0.00    +0.000 N 
ATOM     20  C   UNL     1      50.302   8.439  14.381  0.00  0.00    +0.000 C 
ATOM     21  O   UNL     1      49.707   9.318  14.998  0.00  0.00    +0.000 OA
ATOM     22  H   UNL     1      50.176   6.559  13.530  0.00  0.00    +0.000 HD
BRANCH  20  23
ATOM     23  C   UNL     1      51.643   8.669  13.825  0.00  0.00    +0.000 A 
ATOM     24  C   UNL     1      52.660   9.129  14.651  0.00  0.00    +0.000 A 
ATOM     25  S   UNL     1      54.164   9.288  13.862  0.00  0.00    +0.000 S 
ATOM     26  C   UNL     1      53.497   8.803  12.376  0.00  0.00    +0.000 A 
ATOM     27  N   UNL     1      54.261   8.744  11.251  0.00  0.00    +0.000 NA
ATOM     28  C   UNL     1      53.619   8.390  10.188  0.00  0.00    +0.000 A 
ATOM     29  N   UNL     1      52.284   8.084  10.147  0.00  0.00    +0.000 N 
ATOM     30  C   UNL     1      51.480   8.099  11.263  0.00  0.00    +0.000 A 
ATOM     31  O   UNL     1      50.296   7.776  11.205  0.00  0.00    +0.000 OA
ATOM     32  C   UNL     1      52.149   8.502  12.483  0.00  0.00    +0.000 A 
ATOM     33  H   UNL     1      51.844   7.806   9.282  0.00  0.00    +0.000 HD
ENDBRANCH  20  23
ENDBRANCH  18  19
ENDBRANCH   4  18
TORSDOF 6
ENDMDL
MODEL 5
REMARK VINA RESULT:    -7.028      3.278      8.659
REMARK INTER + INTRA:         -10.457
REMARK INTER:                  -9.526
REMARK INTRA:                  -0.931
REMARK UNBOUND:                -0.964
REMARK  Name = 
REMARK  6 active torsions:
REMARK  status: ('A' for Active; 'I' for Inactive)
REMARK    1  A    between atoms: C_2  and  C_25
REMARK    2  A    between atoms: N_3  and  C_4
REMARK    3  A    between atoms: C_4  and  C_5
REMARK    4  A    between atoms: C_8  and  C_9
REMARK    5  A    between atoms: C_9  and  N_10
REMARK    6  A    between atoms: C_11  and  C_13
REMARK                            x       y       z     vdW  Elec       q    Type
REMARK                         _______ _______ _______ _____ _____    ______ ____
ROOT
ATOM      1  C   UNL     1      49.934   7.133  15.623  0.00  0.00    +0.000 A 
ATOM      2  C   UNL     1      50.380   8.038  14.661  0.00  0.00    +0.000 A 
ATOM      3  C   UNL     1      49.641   8.200  13.488  0.00  0.00    +0.000 A 
ATOM      4  C   UNL     1      48.463   7.475  13.305  0.00  0.00    +0.000 A 
ATOM      5  C   UNL     1      48.092   6.602  14.322  0.00  0.00    +0.000 A 
ATOM      6  N   UNL     1      48.788   6.422  15.471  0.00  0.00    +0.000 NA
ENDROOT
BRANCH   1   7
ATOM      7  C   UNL     1      50.746   6.894  16.874  0.00  0.00    +0.000 C 
BRANCH   7  10
ATOM      8  O   UNL     1      49.724   4.688  18.267  0.00  0.00    +0.000 OA
ATOM      9  C   UNL     1      50.799   4.575  17.684  0.00  0.00    +0.000 C 
ATOM     10  N   UNL     1      51.351   5.580  16.921  0.00  0.00    +0.000 N 
ATOM     11  H   UNL     1      52.308   5.456  16.602  0.00  0.00    +0.000 HD
BRANCH   9  12
ATOM     12  C   UNL     1      51.583   3.300  17.766  0.00  0.00    +0.000 A 
ATOM     13  C   UNL     1      52.863   3.331  18.310  0.00  0.00    +0.000 A 
ATOM     14  C   UNL     1      53.571   2.137  18.404  0.00  0.00    +0.000 A 
ATOM     15  C   UNL     1      52.981   0.963  17.951  0.00  0.00    +0.000 A 
ATOM     16  C   UNL     1      51.701   1.028  17.418  0.00  0.00    +0.000 A 
ATOM     17  N   UNL     1      50.979   2.167  17.310  0.00  0.00    +0.000 NA
ENDBRANCH   9  12
ENDBRANCH   7  10
ENDBRANCH   1   7
BRANCH   4  18
ATOM     18  C   UNL     1      47.639   7.593  12.055  0.00  0.00    +0.000 C 
BRANCH  18  19
ATOM     19  N   UNL     1      46.937   6.368  11.761  0.00  0.00    +0.000 N 
ATOM     20  C   UNL     1      45.568   6.303  11.833  0.00  0.00    +0.000 C 
ATOM     21  O   UNL     1      44.887   7.287  12.111  0.00  0.00    +0.000 OA
ATOM     22  H   UNL     1      47.474   5.506  11.762  0.00  0.00    +0.000 HD
BRANCH  20  23
ATOM     23  C   UNL     1      44.948   5.014  11.498  0.00  0.00    +0.000 A 
ATOM     24  C   UNL     1      44.219   4.330  12.462  0.00  0.00    +0.000 A 
ATOM     25  S   UNL     1      43.520   2.882  11.893  0.00  0.00    +0.000 S 
ATOM     26  C   UNL     1      44.214   3.088  10.354  0.00  0.00    +0.000 A 
ATOM     27  N   UNL     1      44.025   2.166   9.371  0.00  0.00    +0.000 NA
ATOM     28  C   UNL     1      44.634   2.433   8.265  0.00  0.00    +0.000 A 
ATOM     29  N   UNL     1      45.410   3.541   8.049  0.00  0.00    +0.000 N 
ATOM     30  C   UNL     1      45.605   4.514   9.000  0.00  0.00    +0.000 A 
ATOM     31  O   UNL     1      46.270   5.519   8.764  0.00  0.00    +0.000 OA
ATOM     32  C   UNL     1      44.952   4.257  10.268  0.00  0.00    +0.000 A 
ATOM     33  H   UNL     1      45.854   3.693   7.154  0.00  0.00    +0.000 HD
ENDBRANCH  20  23
ENDBRANCH  18  19
ENDBRANCH   4  18
TORSDOF 6
ENDMDL
MODEL 6
REMARK VINA RESULT:    -6.988      3.405      8.279
REMARK INTER + INTRA:         -10.404
REMARK INTER:                  -9.509
REMARK INTRA:                  -0.895
REMARK UNBOUND:                -0.964
REMARK  Name = 
REMARK  6 active torsions:
REMARK  status: ('A' for Active; 'I' for Inactive)
REMARK    1  A    between atoms: C_2  and  C_25
REMARK    2  A    between atoms: N_3  and  C_4
REMARK    3  A    between atoms: C_4  and  C_5
REMARK    4  A    between atoms: C_8  and  C_9
REMARK    5  A    between atoms: C_9  and  N_10
REMARK    6  A    between atoms: C_11  and  C_13
REMARK                            x       y       z     vdW  Elec       q    Type
REMARK                         _______ _______ _______ _____ _____    ______ ____
ROOT
ATOM      1  C   UNL     1      49.084   7.304  16.306  0.00  0.00    +0.000 A 
ATOM      2  C   UNL     1      49.134   8.627  15.868  0.00  0.00    +0.000 A 
ATOM      3  C   UNL     1      48.779   8.919  14.551  0.00  0.00    +0.000 A 
ATOM      4  C   UNL     1      48.361   7.895  13.701  0.00  0.00    +0.000 A 
ATOM      5  C   UNL     1      48.334   6.608  14.228  0.00  0.00    +0.000 A 
ATOM      6  N   UNL     1      48.674   6.292  15.501  0.00  0.00    +0.000 NA
ENDROOT
BRANCH   1   7
ATOM      7  C   UNL     1      49.521   6.951  17.708  0.00  0.00    +0.000 C 
BRANCH   7  10
ATOM      8  O   UNL     1      52.136   6.034  17.289  0.00  0.00    +0.000 OA
ATOM      9  C   UNL     1      51.257   5.219  17.556  0.00  0.00    +0.000 C 
ATOM     10  N   UNL     1      49.958   5.578  17.842  0.00  0.00    +0.000 N 
ATOM     11  H   UNL     1      49.268   4.835  17.902  0.00  0.00    +0.000 HD
BRANCH   9  12
ATOM     12  C   UNL     1      51.563   3.752  17.597  0.00  0.00    +0.000 A 
ATOM     13  C   UNL     1      52.791   3.335  18.099  0.00  0.00    +0.000 A 
ATOM     14  C   UNL     1      53.054   1.970  18.155  0.00  0.00    +0.000 A 
ATOM     15  C   UNL     1      52.088   1.076  17.708  0.00  0.00    +0.000 A 
ATOM     16  C   UNL     1      50.892   1.584  17.218  0.00  0.00    +0.000 A 
ATOM     17  N   UNL     1      50.598   2.902  17.148  0.00  0.00    +0.000 NA
ENDBRANCH   9  12
ENDBRANCH   7  10
ENDBRANCH   1   7
BRANCH   4  18
ATOM     18  C   UNL     1      47.986   8.147  12.270  0.00  0.00    +0.000 C 
BRANCH  18  19
ATOM     19  N   UNL     1      47.378   6.988  11.665  0.00  0.00    +0.000 N 
ATOM     20  C   UNL     1      46.035   6.962  11.382  0.00  0.00    +0.000 C 
ATOM     21  O   UNL     1      45.309   7.929  11.595  0.00  0.00    +0.000 OA
ATOM     22  H   UNL     1      47.894   6.114  11.698  0.00  0.00    +0.000 HD
BRANCH  20  23
ATOM     23  C   UNL     1      45.516   5.741  10.750  0.00  0.00    +0.000 A 
ATOM     24  C   UNL     1      45.741   5.518   9.398  0.00  0.00    +0.000 A 
ATOM     25  S   UNL     1      45.123   4.030   8.837  0.00  0.00    +0.000 S 
ATOM     26  C   UNL     1      44.484   3.656  10.367  0.00  0.00    +0.000 A 
ATOM     27  N   UNL     1      43.792   2.503  10.575  0.00  0.00    +0.000 NA
ATOM     28  C   UNL     1      43.338   2.362  11.775  0.00  0.00    +0.000 A 
ATOM     29  N   UNL     1      43.515   3.267  12.789  0.00  0.00    +0.000 N 
ATOM     30  C   UNL     1      44.232   4.430  12.635  0.00  0.00    +0.000 A 
ATOM     31  O   UNL     1      44.414   5.201  13.573  0.00  0.00    +0.000 OA
ATOM     32  C   UNL     1      44.756   4.643  11.301  0.00  0.00    +0.000 A 
ATOM     33  H   UNL     1      43.138   3.092  13.709  0.00  0.00    +0.000 HD
ENDBRANCH  20  23
ENDBRANCH  18  19
ENDBRANCH   4  18
TORSDOF 6
ENDMDL
MODEL 7
REMARK VINA RESULT:    -6.955      3.923      8.659
REMARK INTER + INTRA:         -10.359
REMARK INTER:                  -9.330
REMARK INTRA:                  -1.029
REMARK UNBOUND:                -0.964
REMARK  Name = 
REMARK  6 active torsions:
REMARK  status: ('A' for Active; 'I' for Inactive)
REMARK    1  A    between atoms: C_2  and  C_25
REMARK    2  A    between atoms: N_3  and  C_4
REMARK    3  A    between atoms: C_4  and  C_5
REMARK    4  A    between atoms: C_8  and  C_9
REMARK    5  A    between atoms: C_9  and  N_10
REMARK    6  A    between atoms: C_11  and  C_13
REMARK                            x       y       z     vdW  Elec       q    Type
REMARK                         _______ _______ _______ _____ _____    ______ ____
ROOT
ATOM      1  C   UNL     1      49.656   4.887  17.647  0.00  0.00    +0.000 A 
ATOM      2  C   UNL     1      50.479   5.928  17.217  0.00  0.00    +0.000 A 
ATOM      3  C   UNL     1      50.086   6.693  16.119  0.00  0.00    +0.000 A 
ATOM      4  C   UNL     1      48.873   6.423  15.483  0.00  0.00    +0.000 A 
ATOM      5  C   UNL     1      48.115   5.372  15.987  0.00  0.00    +0.000 A 
ATOM      6  N   UNL     1      48.469   4.611  17.050  0.00  0.00    +0.000 NA
ENDROOT
BRANCH   1   7
ATOM      7  C   UNL     1      50.085   4.005  18.796  0.00  0.00    +0.000 C 
BRANCH   7  10
ATOM      8  O   UNL     1      50.592   1.742  17.223  0.00  0.00    +0.000 OA
ATOM      9  C   UNL     1      51.520   2.249  17.848  0.00  0.00    +0.000 C 
ATOM     10  N   UNL     1      51.384   3.399  18.596  0.00  0.00    +0.000 N 
ATOM     11  H   UNL     1      52.159   3.660  19.198  0.00  0.00    +0.000 HD
BRANCH   9  12
ATOM     12  C   UNL     1      52.886   1.634  17.821  0.00  0.00    +0.000 A 
ATOM     13  C   UNL     1      53.969   2.417  17.434  0.00  0.00    +0.000 A 
ATOM     14  C   UNL     1      55.236   1.843  17.437  0.00  0.00    +0.000 A 
ATOM     15  C   UNL     1      55.375   0.514  17.820  0.00  0.00    +0.000 A 
ATOM     16  C   UNL     1      54.237  -0.193  18.186  0.00  0.00    +0.000 A 
ATOM     17  N   UNL     1      52.989   0.329  18.199  0.00  0.00    +0.000 NA
ENDBRANCH   9  12
ENDBRANCH   7  10
ENDBRANCH   1   7
BRANCH   4  18
ATOM     18  C   UNL     1      48.409   7.200  14.285  0.00  0.00    +0.000 C 
BRANCH  18  19
ATOM     19  N   UNL     1      47.145   6.714  13.791  0.00  0.00    +0.000 N 
ATOM     20  C   UNL     1      46.826   6.802  12.458  0.00  0.00    +0.000 C 
ATOM     21  O   UNL     1      47.613   7.260  11.633  0.00  0.00    +0.000 OA
ATOM     22  H   UNL     1      46.404   6.555  14.467  0.00  0.00    +0.000 HD
BRANCH  20  23
ATOM     23  C   UNL     1      45.521   6.263  12.053  0.00  0.00    +0.000 A 
ATOM     24  C   UNL     1      44.563   7.112  11.515  0.00  0.00    +0.000 A 
ATOM     25  S   UNL     1      43.129   6.317  11.046  0.00  0.00    +0.000 S 
ATOM     26  C   UNL     1      43.714   4.819  11.597  0.00  0.00    +0.000 A 
ATOM     27  N   UNL     1      42.952   3.695  11.511  0.00  0.00    +0.000 NA
ATOM     28  C   UNL     1      43.508   2.636  11.995  0.00  0.00    +0.000 A 
ATOM     29  N   UNL     1      44.760   2.595  12.552  0.00  0.00    +0.000 N 
ATOM     30  C   UNL     1      45.578   3.698  12.632  0.00  0.00    +0.000 A 
ATOM     31  O   UNL     1      46.713   3.623  13.096  0.00  0.00    +0.000 OA
ATOM     32  C   UNL     1      44.995   4.919  12.113  0.00  0.00    +0.000 A 
ATOM     33  H   UNL     1      45.139   1.729  12.907  0.00  0.00    +0.000 HD
ENDBRANCH  20  23
ENDBRANCH  18  19
ENDBRANCH   4  18
TORSDOF 6
ENDMDL
MODEL 8
REMARK VINA RESULT:    -6.668      4.731      7.490
REMARK INTER + INTRA:          -9.971
REMARK INTER:                  -9.060
REMARK INTRA:                  -0.911
REMARK UNBOUND:                -0.964
REMARK  Name = 
REMARK  6 active torsions:
REMARK  status: ('A' for Active; 'I' for Inactive)
REMARK    1  A    between atoms: C_2  and  C_25
REMARK    2  A    between atoms: N_3  and  C_4
REMARK    3  A    between atoms: C_4  and  C_5
REMARK    4  A    between atoms: C_8  and  C_9
REMARK    5  A    between atoms: C_9  and  N_10
REMARK    6  A    between atoms: C_11  and  C_13
REMARK                            x       y       z     vdW  Elec       q    Type
REMARK                         _______ _______ _______ _____ _____    ______ ____
ROOT
ATOM      1  C   UNL     1      50.519   8.499  12.602  0.00  0.00    +0.000 A 
ATOM      2  C   UNL     1      49.672   9.168  11.718  0.00  0.00    +0.000 A 
ATOM      3  C   UNL     1      48.292   9.037  11.872  0.00  0.00    +0.000 A 
ATOM      4  C   UNL     1      47.779   8.262  12.913  0.00  0.00    +0.000 A 
ATOM      5  C   UNL     1      48.699   7.639  13.750  0.00  0.00    +0.000 A 
ATOM      6  N   UNL     1      50.044   7.746  13.626  0.00  0.00    +0.000 NA
ENDROOT
BRANCH   1   7
ATOM      7  C   UNL     1      52.016   8.574  12.422  0.00  0.00    +0.000 C 
BRANCH   7  10
ATOM      8  O   UNL     1      52.711   9.157   9.771  0.00  0.00    +0.000 OA
ATOM      9  C   UNL     1      52.783   7.994  10.161  0.00  0.00    +0.000 C 
ATOM     10  N   UNL     1      52.525   7.619  11.461  0.00  0.00    +0.000 N 
ATOM     11  H   UNL     1      52.461   6.624  11.658  0.00  0.00    +0.000 HD
BRANCH   9  12
ATOM     12  C   UNL     1      53.176   6.896   9.220  0.00  0.00    +0.000 A 
ATOM     13  C   UNL     1      52.537   6.805   7.988  0.00  0.00    +0.000 A 
ATOM     14  C   UNL     1      52.927   5.796   7.113  0.00  0.00    +0.000 A 
ATOM     15  C   UNL     1      53.932   4.917   7.499  0.00  0.00    +0.000 A 
ATOM     16  C   UNL     1      54.510   5.080   8.751  0.00  0.00    +0.000 A 
ATOM     17  N   UNL     1      54.160   6.048   9.629  0.00  0.00    +0.000 NA
ENDBRANCH   9  12
ENDBRANCH   7  10
ENDBRANCH   1   7
BRANCH   4  18
ATOM     18  C   UNL     1      46.304   8.069  13.114  0.00  0.00    +0.000 C 
BRANCH  18  19
ATOM     19  N   UNL     1      45.884   6.740  12.743  0.00  0.00    +0.000 N 
ATOM     20  C   UNL     1      44.891   6.547  11.814  0.00  0.00    +0.000 C 
ATOM     21  O   UNL     1      44.351   7.488  11.239  0.00  0.00    +0.000 OA
ATOM     22  H   UNL     1      46.141   5.975  13.359  0.00  0.00    +0.000 HD
BRANCH  20  23
ATOM     23  C   UNL     1      44.549   5.155  11.493  0.00  0.00    +0.000 A 
ATOM     24  C   UNL     1      43.817   4.400  12.400  0.00  0.00    +0.000 A 
ATOM     25  S   UNL     1      43.456   2.827  11.849  0.00  0.00    +0.000 S 
ATOM     26  C   UNL     1      44.313   3.079  10.402  0.00  0.00    +0.000 A 
ATOM     27  N   UNL     1      44.419   2.093   9.470  0.00  0.00    +0.000 NA
ATOM     28  C   UNL     1      45.123   2.411   8.435  0.00  0.00    +0.000 A 
ATOM     29  N   UNL     1      45.726   3.626   8.244  0.00  0.00    +0.000 N 
ATOM     30  C   UNL     1      45.621   4.662   9.142  0.00  0.00    +0.000 A 
ATOM     31  O   UNL     1      46.135   5.756   8.924  0.00  0.00    +0.000 OA
ATOM     32  C   UNL     1      44.850   4.354  10.330  0.00  0.00    +0.000 A 
ATOM     33  H   UNL     1      46.258   3.812   7.406  0.00  0.00    +0.000 HD
ENDBRANCH  20  23
ENDBRANCH  18  19
ENDBRANCH   4  18
TORSDOF 6
ENDMDL
MODEL 9
REMARK VINA RESULT:    -6.507      3.216      4.588
REMARK INTER + INTRA:          -9.754
REMARK INTER:                  -8.869
REMARK INTRA:                  -0.885
REMARK UNBOUND:                -0.964
REMARK  Name = 
REMARK  6 active torsions:
REMARK  status: ('A' for Active; 'I' for Inactive)
REMARK    1  A    between atoms: C_2  and  C_25
REMARK    2  A    between atoms: N_3  and  C_4
REMARK    3  A    between atoms: C_4  and  C_5
REMARK    4  A    between atoms: C_8  and  C_9
REMARK    5  A    between atoms: C_9  and  N_10
REMARK    6  A    between atoms: C_11  and  C_13
REMARK                            x       y       z     vdW  Elec       q    Type
REMARK                         _______ _______ _______ _____ _____    ______ ____
ROOT
ATOM      1  C   UNL     1      48.226   7.732  13.410  0.00  0.00    +0.000 A 
ATOM      2  C   UNL     1      48.029   8.891  14.159  0.00  0.00    +0.000 A 
ATOM      3  C   UNL     1      48.391   8.897  15.507  0.00  0.00    +0.000 A 
ATOM      4  C   UNL     1      48.961   7.759  16.078  0.00  0.00    +0.000 A 
ATOM      5  C   UNL     1      49.127   6.653  15.251  0.00  0.00    +0.000 A 
ATOM      6  N   UNL     1      48.785   6.615  13.941  0.00  0.00    +0.000 NA
ENDROOT
BRANCH   1   7
ATOM      7  C   UNL     1      47.787   7.678  11.966  0.00  0.00    +0.000 C 
BRANCH   7  10
ATOM      8  O   UNL     1      45.060   7.515  12.588  0.00  0.00    +0.000 OA
ATOM      9  C   UNL     1      45.609   6.545  12.072  0.00  0.00    +0.000 C 
ATOM     10  N   UNL     1      46.927   6.551  11.671  0.00  0.00    +0.000 N 
ATOM     11  H   UNL     1      47.338   5.664  11.396  0.00  0.00    +0.000 HD
BRANCH   9  12
ATOM     12  C   UNL     1      44.851   5.274  11.835  0.00  0.00    +0.000 A 
ATOM     13  C   UNL     1      44.894   4.691  10.573  0.00  0.00    +0.000 A 
ATOM     14  C   UNL     1      44.207   3.498  10.372  0.00  0.00    +0.000 A 
ATOM     15  C   UNL     1      43.503   2.935  11.430  0.00  0.00    +0.000 A 
ATOM     16  C   UNL     1      43.512   3.591  12.654  0.00  0.00    +0.000 A 
ATOM     17  N   UNL     1      44.169   4.750  12.891  0.00  0.00    +0.000 NA
ENDBRANCH   9  12
ENDBRANCH   7  10
ENDBRANCH   1   7
BRANCH   4  18
ATOM     18  C   UNL     1      49.351   7.702  17.526  0.00  0.00    +0.000 C 
BRANCH  18  19
ATOM     19  N   UNL     1      50.377   6.716  17.763  0.00  0.00    +0.000 N 
ATOM     20  C   UNL     1      50.122   5.598  18.518  0.00  0.00    +0.000 C 
ATOM     21  O   UNL     1      49.009   5.374  18.986  0.00  0.00    +0.000 OA
ATOM     22  H   UNL     1      51.341   6.989  17.593  0.00  0.00    +0.000 HD
BRANCH  20  23
ATOM     23  C   UNL     1      51.229   4.647  18.687  0.00  0.00    +0.000 A 
ATOM     24  C   UNL     1      52.329   5.002  19.457  0.00  0.00    +0.000 A 
ATOM     25  S   UNL     1      53.495   3.765  19.597  0.00  0.00    +0.000 S 
ATOM     26  C   UNL     1      52.599   2.731  18.588  0.00  0.00    +0.000 A 
ATOM     27  N   UNL     1      53.058   1.490  18.272  0.00  0.00    +0.000 NA
ATOM     28  C   UNL     1      52.291   0.825  17.473  0.00  0.00    +0.000 A 
ATOM     29  N   UNL     1      51.105   1.286  16.965  0.00  0.00    +0.000 N 
ATOM     30  C   UNL     1      50.586   2.520  17.280  0.00  0.00    +0.000 A 
ATOM     31  O   UNL     1      49.499   2.889  16.845  0.00  0.00    +0.000 OA
ATOM     32  C   UNL     1      51.414   3.313  18.166  0.00  0.00    +0.000 A 
ATOM     33  H   UNL     1      50.549   0.710  16.349  0.00  0.00    +0.000 HD
ENDBRANCH  20  23
ENDBRANCH  18  19
ENDBRANCH   4  18
TORSDOF 6
ENDMDL
