MODEL 1
REMARK VINA RESULT:    -6.820      0.000      0.000
REMARK INTER + INTRA:          -9.921
REMARK INTER:                  -9.013
REMARK INTRA:                  -0.908
REMARK UNBOUND:                -0.908
REMARK  Name = 
REMARK  7 active torsions:
REMARK  status: ('A' for Active; 'I' for Inactive)
REMARK    1  A    between atoms: C_1  and  C_2
REMARK    2  A    between atoms: C_2  and  N_3
REMARK    3  A    between atoms: C_2  and  C_18
REMARK    4  A    between atoms: C_7  and  C_8
REMARK    5  A    between atoms: C_8  and  N_9
REMARK    6  A    between atoms: N_9  and  C_10
REMARK    7  A    between atoms: C_13  and  N_14
REMARK                            x       y       z     vdW  Elec       q    Type
REMARK                         _______ _______ _______ _____ _____    ______ ____
ROOT
ATOM      1  N   UNL     1      49.862   7.735  14.871  0.00  0.00    +0.000 N 
ATOM      2  C   UNL     1      49.043   7.220  13.860  0.00  0.00    +0.000 A 
ATOM      3  C   UNL     1      48.988   7.885  12.636  0.00  0.00    +0.000 A 
ATOM      4  C   UNL     1      48.045   7.513  11.673  0.00  0.00    +0.000 A 
ATOM      5  C   UNL     1      47.131   6.501  11.958  0.00  0.00    +0.000 A 
ATOM      6  C   UNL     1      47.280   5.864  13.182  0.00  0.00    +0.000 A 
ATOM      7  N   UNL     1      48.210   6.191  14.119  0.00  0.00    +0.000 NA
ATOM      8  H   UNL     1      50.627   8.307  14.517  0.00  0.00    +0.000 HD
ENDROOT
BRANCH   1  10
ATOM      9  C   UNL     1      51.855   6.971  16.065  0.00  0.00    +0.000 C 
ATOM     10  C   UNL     1      50.338   6.802  15.897  0.00  0.00    +0.000 C 
BRANCH  10  11
ATOM     11  C   UNL     1      49.636   6.918  17.250  0.00  0.00    +0.000 A 
ATOM     12  C   UNL     1      49.136   8.120  17.730  0.00  0.00    +0.000 A 
ATOM     13  S   UNL     1      48.523   8.015  19.319  0.00  0.00    +0.000 S 
ATOM     14  C   UNL     1      48.799   6.336  19.375  0.00  0.00    +0.000 A 
ATOM     15  N   UNL     1      48.452   5.608  20.470  0.00  0.00    +0.000 NA
ATOM     16  C   UNL     1      48.634   4.337  20.338  0.00  0.00    +0.000 A 
ATOM     17  N   UNL     1      49.145   3.731  19.217  0.00  0.00    +0.000 N 
ATOM     18  C   UNL     1      49.551   4.433  18.096  0.00  0.00    +0.000 A 
ATOM     19  O   UNL     1      49.987   3.851  17.104  0.00  0.00    +0.000 OA
ATOM     20  C   UNL     1      49.354   5.865  18.197  0.00  0.00    +0.000 A 
ATOM     21  H   UNL     1      49.223   2.727  19.170  0.00  0.00    +0.000 HD
ENDBRANCH  10  11
ENDBRANCH   1  10
BRANCH   5  22
ATOM     22  C   UNL     1      45.999   6.162  11.020  0.00  0.00    +0.000 C 
BRANCH  22  23
ATOM     23  N   UNL     1      44.745   5.934  11.741  0.00  0.00    +0.000 NA
ATOM     24  H   UNL     1      44.393   6.849  12.014  0.00  0.00    +0.000 HD
BRANCH  23  25
ATOM     25  C   UNL     1      43.727   5.264  10.912  0.00  0.00    +0.000 C 
ATOM     26  C   UNL     1      44.412   4.521   9.748  0.00  0.00    +0.000 C 
ATOM     27  C   UNL     1      44.416   3.024  10.092  0.00  0.00    +0.000 C 
ATOM     28  C   UNL     1      43.827   2.894  11.495  0.00  0.00    +0.000 C 
ATOM     29  C   UNL     1      42.950   4.141  11.613  0.00  0.00    +0.000 C 
BRANCH  28  30
ATOM     30  N   UNL     1      44.873   2.853  12.519  0.00  0.00    +0.000 NA
ATOM     31  H   UNL     1      45.445   2.018  12.407  0.00  0.00    +0.000 HD
ATOM     32  H   UNL     1      44.429   2.721  13.430  0.00  0.00    +0.000 HD
ENDBRANCH  28  30
ENDBRANCH  23  25
ENDBRANCH  22  23
ENDBRANCH   5  22
TORSDOF 6
ENDMDL
MODEL 2
REMARK VINA RESULT:    -6.783      3.125      8.282
REMARK INTER + INTRA:          -9.872
REMARK INTER:                  -8.796
REMARK INTRA:                  -1.075
REMARK UNBOUND:                -0.908
REMARK  Name = 
REMARK  7 active torsions:
REMARK  status: ('A' for Active; 'I' for Inactive)
REMARK    1  A    between atoms: C_1  and  C_2
REMARK    2  A    between atoms: C_2  and  N_3
REMARK    3  A    between atoms: C_2  and  C_18
REMARK    4  A    between atoms: C_7  and  C_8
REMARK    5  A    between atoms: C_8  and  N_9
REMARK    6  A    between atoms: N_9  and  C_10
REMARK    7  A    between atoms: C_13  and  N_14
REMARK                            x       y       z     vdW  Elec       q    Type
REMARK                         _______ _______ _______ _____ _____    ______ ____
ROOT
ATOM      1  N   UNL     1      46.846   6.592  11.537  0.00  0.00    +0.000 N 
ATOM      2  C   UNL     1      47.758   6.985  12.524  0.00  0.00    +0.000 A 
ATOM      3  C   UNL     1      48.953   7.587  12.132  0.00  0.00    +0.000 A 
ATOM      4  C   UNL     1      49.965   7.820  13.068  0.00  0.00    +0.000 A 
ATOM      5  C   UNL     1      49.792   7.411  14.387  0.00  0.00    +0.000 A 
ATOM      6  C   UNL     1      48.558   6.857  14.703  0.00  0.00    +0.000 A 
ATOM      7  N   UNL     1      47.551   6.649  13.813  0.00  0.00    +0.000 NA
ATOM      8  H   UNL     1      46.944   7.112  10.667  0.00  0.00    +0.000 HD
ENDROOT
BRANCH   1  10
ATOM      9  C   UNL     1      44.645   7.623  11.270  0.00  0.00    +0.000 C 
ATOM     10  C   UNL     1      45.436   6.482  11.926  0.00  0.00    +0.000 C 
BRANCH  10  11
ATOM     11  C   UNL     1      44.785   5.135  11.616  0.00  0.00    +0.000 A 
ATOM     12  C   UNL     1      43.934   4.495  12.506  0.00  0.00    +0.000 A 
ATOM     13  S   UNL     1      43.447   2.945  11.987  0.00  0.00    +0.000 S 
ATOM     14  C   UNL     1      44.263   3.123  10.505  0.00  0.00    +0.000 A 
ATOM     15  N   UNL     1      44.215   2.146   9.560  0.00  0.00    +0.000 NA
ATOM     16  C   UNL     1      44.801   2.454   8.451  0.00  0.00    +0.000 A 
ATOM     17  N   UNL     1      45.443   3.642   8.209  0.00  0.00    +0.000 N 
ATOM     18  C   UNL     1      45.554   4.648   9.152  0.00  0.00    +0.000 A 
ATOM     19  O   UNL     1      46.122   5.707   8.890  0.00  0.00    +0.000 OA
ATOM     20  C   UNL     1      44.900   4.349  10.409  0.00  0.00    +0.000 A 
ATOM     21  H   UNL     1      45.847   3.830   7.305  0.00  0.00    +0.000 HD
ENDBRANCH  10  11
ENDBRANCH   1  10
BRANCH   5  22
ATOM     22  C   UNL     1      50.904   7.499  15.403  0.00  0.00    +0.000 C 
BRANCH  22  23
ATOM     23  N   UNL     1      51.364   6.174  15.823  0.00  0.00    +0.000 NA
ATOM     24  H   UNL     1      52.293   6.046  15.427  0.00  0.00    +0.000 HD
BRANCH  23  25
ATOM     25  C   UNL     1      51.452   6.041  17.288  0.00  0.00    +0.000 C 
ATOM     26  C   UNL     1      50.263   6.769  17.948  0.00  0.00    +0.000 C 
ATOM     27  C   UNL     1      49.257   5.700  18.399  0.00  0.00    +0.000 C 
ATOM     28  C   UNL     1      49.802   4.355  17.920  0.00  0.00    +0.000 C 
ATOM     29  C   UNL     1      51.306   4.610  17.825  0.00  0.00    +0.000 C 
BRANCH  28  30
ATOM     30  N   UNL     1      49.222   3.966  16.632  0.00  0.00    +0.000 NA
ATOM     31  H   UNL     1      48.314   4.408  16.505  0.00  0.00    +0.000 HD
ATOM     32  H   UNL     1      49.002   2.968  16.665  0.00  0.00    +0.000 HD
ENDBRANCH  28  30
ENDBRANCH  23  25
ENDBRANCH  22  23
ENDBRANCH   5  22
TORSDOF 6
ENDMDL
MODEL 3
REMARK VINA RESULT:    -6.781      3.128      7.740
REMARK INTER + INTRA:          -9.869
REMARK INTER:                  -8.770
REMARK INTRA:                  -1.099
REMARK UNBOUND:                -0.908
REMARK  Name = 
REMARK  7 active torsions:
REMARK  status: ('A' for Active; 'I' for Inactive)
REMARK    1  A    between atoms: C_1  and  C_2
REMARK    2  A    between atoms: C_2  and  N_3
REMARK    3  A    between atoms: C_2  and  C_18
REMARK    4  A    between atoms: C_7  and  C_8
REMARK    5  A    between atoms: C_8  and  N_9
REMARK    6  A    between atoms: N_9  and  C_10
REMARK    7  A    between atoms: C_13  and  N_14
REMARK                            x       y       z     vdW  Elec       q    Type
REMARK                         _______ _______ _______ _____ _____    ______ ____
ROOT
ATOM      1  N   UNL     1      47.272   6.994  11.900  0.00  0.00    +0.000 N 
ATOM      2  C   UNL     1      47.883   6.972  13.158  0.00  0.00    +0.000 A 
ATOM      3  C   UNL     1      49.057   7.700  13.347  0.00  0.00    +0.000 A 
ATOM      4  C   UNL     1      49.795   7.554  14.526  0.00  0.00    +0.000 A 
ATOM      5  C   UNL     1      49.375   6.646  15.494  0.00  0.00    +0.000 A 
ATOM      6  C   UNL     1      48.176   5.992  15.246  0.00  0.00    +0.000 A 
ATOM      7  N   UNL     1      47.429   6.144  14.120  0.00  0.00    +0.000 NA
ATOM      8  H   UNL     1      47.504   7.822  11.353  0.00  0.00    +0.000 HD
ENDROOT
BRANCH   1  10
ATOM      9  C   UNL     1      45.091   7.992  11.420  0.00  0.00    +0.000 C 
ATOM     10  C   UNL     1      45.833   6.715  11.842  0.00  0.00    +0.000 C 
BRANCH  10  11
ATOM     11  C   UNL     1      45.438   5.546  10.940  0.00  0.00    +0.000 A 
ATOM     12  C   UNL     1      45.743   5.512   9.586  0.00  0.00    +0.000 A 
ATOM     13  S   UNL     1      45.076   4.170   8.772  0.00  0.00    +0.000 S 
ATOM     14  C   UNL     1      44.455   3.529  10.221  0.00  0.00    +0.000 A 
ATOM     15  N   UNL     1      43.790   2.342  10.231  0.00  0.00    +0.000 NA
ATOM     16  C   UNL     1      43.457   1.933  11.409  0.00  0.00    +0.000 A 
ATOM     17  N   UNL     1      43.715   2.609  12.575  0.00  0.00    +0.000 N 
ATOM     18  C   UNL     1      44.350   3.838  12.612  0.00  0.00    +0.000 A 
ATOM     19  O   UNL     1      44.580   4.404  13.679  0.00  0.00    +0.000 OA
ATOM     20  C   UNL     1      44.752   4.330  11.310  0.00  0.00    +0.000 A 
ATOM     21  H   UNL     1      43.459   2.211  13.464  0.00  0.00    +0.000 HD
ENDBRANCH  10  11
ENDBRANCH   1  10
BRANCH   5  22
ATOM     22  C   UNL     1      50.210   6.336  16.713  0.00  0.00    +0.000 C 
BRANCH  22  23
ATOM     23  N   UNL     1      50.744   4.974  16.675  0.00  0.00    +0.000 NA
ATOM     24  H   UNL     1      51.746   5.055  16.517  0.00  0.00    +0.000 HD
BRANCH  23  25
ATOM     25  C   UNL     1      50.522   4.241  17.934  0.00  0.00    +0.000 C 
ATOM     26  C   UNL     1      49.131   4.592  18.500  0.00  0.00    +0.000 C 
ATOM     27  C   UNL     1      48.199   3.406  18.212  0.00  0.00    +0.000 C 
ATOM     28  C   UNL     1      49.008   2.402  17.392  0.00  0.00    +0.000 C 
ATOM     29  C   UNL     1      50.449   2.713  17.797  0.00  0.00    +0.000 C 
BRANCH  28  30
ATOM     30  N   UNL     1      48.786   2.574  15.955  0.00  0.00    +0.000 NA
ATOM     31  H   UNL     1      47.939   3.115  15.790  0.00  0.00    +0.000 HD
ATOM     32  H   UNL     1      48.571   1.660  15.550  0.00  0.00    +0.000 HD
ENDBRANCH  28  30
ENDBRANCH  23  25
ENDBRANCH  22  23
ENDBRANCH   5  22
TORSDOF 6
ENDMDL
MODEL 4
REMARK VINA RESULT:    -6.695      2.789      3.861
REMARK INTER + INTRA:          -9.756
REMARK INTER:                  -9.036
REMARK INTRA:                  -0.720
REMARK UNBOUND:                -0.908
REMARK  Name = 
REMARK  7 active torsions:
REMARK  status: ('A' for Active; 'I' for Inactive)
REMARK    1  A    between atoms: C_1  and  C_2
REMARK    2  A    between atoms: C_2  and  N_3
REMARK    3  A    between atoms: C_2  and  C_18
REMARK    4  A    between atoms: C_7  and  C_8
REMARK    5  A    between atoms: C_8  and  N_9
REMARK    6  A    between atoms: N_9  and  C_10
REMARK    7  A    between atoms: C_13  and  N_14
REMARK                            x       y       z     vdW  Elec       q    Type
REMARK                         _______ _______ _______ _____ _____    ______ ____
ROOT
ATOM      1  N   UNL     1      48.876   3.872  16.930  0.00  0.00    +0.000 N 
ATOM      2  C   UNL     1      48.232   4.649  15.961  0.00  0.00    +0.000 A 
ATOM      3  C   UNL     1      47.145   4.105  15.278  0.00  0.00    +0.000 A 
ATOM      4  C   UNL     1      46.597   4.773  14.179  0.00  0.00    +0.000 A 
ATOM      5  C   UNL     1      47.168   5.965  13.741  0.00  0.00    +0.000 A 
ATOM      6  C   UNL     1      48.222   6.458  14.500  0.00  0.00    +0.000 A 
ATOM      7  N   UNL     1      48.748   5.838  15.590  0.00  0.00    +0.000 NA
ATOM      8  H   UNL     1      48.281   3.147  17.327  0.00  0.00    +0.000 HD
ENDROOT
BRANCH   1  10
ATOM      9  C   UNL     1      48.885   4.381  19.322  0.00  0.00    +0.000 C 
ATOM     10  C   UNL     1      49.612   4.579  17.984  0.00  0.00    +0.000 C 
BRANCH  10  11
ATOM     11  C   UNL     1      51.084   4.191  18.115  0.00  0.00    +0.000 A 
ATOM     12  C   UNL     1      52.044   5.062  18.609  0.00  0.00    +0.000 A 
ATOM     13  S   UNL     1      53.632   4.443  18.527  0.00  0.00    +0.000 S 
ATOM     14  C   UNL     1      53.078   2.946  17.936  0.00  0.00    +0.000 A 
ATOM     15  N   UNL     1      53.946   1.930  17.686  0.00  0.00    +0.000 NA
ATOM     16  C   UNL     1      53.379   0.826  17.332  0.00  0.00    +0.000 A 
ATOM     17  N   UNL     1      52.025   0.651  17.189  0.00  0.00    +0.000 N 
ATOM     18  C   UNL     1      51.106   1.666  17.391  0.00  0.00    +0.000 A 
ATOM     19  O   UNL     1      49.898   1.465  17.271  0.00  0.00    +0.000 OA
ATOM     20  C   UNL     1      51.700   2.922  17.802  0.00  0.00    +0.000 A 
ATOM     21  H   UNL     1      51.649  -0.251  16.946  0.00  0.00    +0.000 HD
ENDBRANCH  10  11
ENDBRANCH   1  10
BRANCH   5  22
ATOM     22  C   UNL     1      46.717   6.648  12.474  0.00  0.00    +0.000 C 
BRANCH  22  23
ATOM     23  N   UNL     1      45.273   6.890  12.471  0.00  0.00    +0.000 NA
ATOM     24  H   UNL     1      45.143   7.896  12.562  0.00  0.00    +0.000 HD
BRANCH  23  25
ATOM     25  C   UNL     1      44.623   6.440  11.227  0.00  0.00    +0.000 C 
ATOM     26  C   UNL     1      44.892   4.936  11.017  0.00  0.00    +0.000 C 
ATOM     27  C   UNL     1      43.608   4.179  11.387  0.00  0.00    +0.000 C 
ATOM     28  C   UNL     1      42.620   5.221  11.908  0.00  0.00    +0.000 C 
ATOM     29  C   UNL     1      43.090   6.507  11.229  0.00  0.00    +0.000 C 
BRANCH  28  30
ATOM     30  N   UNL     1      42.658   5.319  13.369  0.00  0.00    +0.000 NA
ATOM     31  H   UNL     1      41.726   5.505  13.736  0.00  0.00    +0.000 HD
ATOM     32  H   UNL     1      43.189   6.154  13.623  0.00  0.00    +0.000 HD
ENDBRANCH  28  30
ENDBRANCH  23  25
ENDBRANCH  22  23
ENDBRANCH   5  22
TORSDOF 6
ENDMDL
MODEL 5
REMARK VINA RESULT:    -6.369      3.191      8.572
REMARK INTER + INTRA:          -9.325
REMARK INTER:                  -8.618
REMARK INTRA:                  -0.707
REMARK UNBOUND:                -0.908
REMARK  Name = 
REMARK  7 active torsions:
REMARK  status: ('A' for Active; 'I' for Inactive)
REMARK    1  A    between atoms: C_1  and  C_2
REMARK    2  A    between atoms: C_2  and  N_3
REMARK    3  A    between atoms: C_2  and  C_18
REMARK    4  A    between atoms: C_7  and  C_8
REMARK    5  A    between atoms: C_8  and  N_9
REMARK    6  A    between atoms: N_9  and  C_10
REMARK    7  A    between atoms: C_13  and  N_14
REMARK                            x       y       z     vdW  Elec       q    Type
REMARK                         _______ _______ _______ _____ _____    ______ ____
ROOT
ATOM      1  N   UNL     1      46.875   5.032  15.013  0.00  0.00    +0.000 N 
ATOM      2  C   UNL     1      47.899   5.044  15.966  0.00  0.00    +0.000 A 
ATOM      3  C   UNL     1      48.177   3.871  16.667  0.00  0.00    +0.000 A 
ATOM      4  C   UNL     1      49.059   3.890  17.752  0.00  0.00    +0.000 A 
ATOM      5  C   UNL     1      49.628   5.095  18.157  0.00  0.00    +0.000 A 
ATOM      6  C   UNL     1      49.331   6.207  17.381  0.00  0.00    +0.000 A 
ATOM      7  N   UNL     1      48.500   6.203  16.305  0.00  0.00    +0.000 NA
ATOM      8  H   UNL     1      46.683   4.105  14.638  0.00  0.00    +0.000 HD
ENDROOT
BRANCH   1  10
ATOM      9  C   UNL     1      48.279   5.884  13.200  0.00  0.00    +0.000 C 
ATOM     10  C   UNL     1      46.940   6.029  13.939  0.00  0.00    +0.000 C 
BRANCH  10  11
ATOM     11  C   UNL     1      45.777   5.986  12.947  0.00  0.00    +0.000 A 
ATOM     12  C   UNL     1      45.225   7.133  12.396  0.00  0.00    +0.000 A 
ATOM     13  S   UNL     1      43.854   6.829  11.427  0.00  0.00    +0.000 S 
ATOM     14  C   UNL     1      44.021   5.147  11.619  0.00  0.00    +0.000 A 
ATOM     15  N   UNL     1      43.170   4.285  10.999  0.00  0.00    +0.000 NA
ATOM     16  C   UNL     1      43.471   3.040  11.157  0.00  0.00    +0.000 A 
ATOM     17  N   UNL     1      44.536   2.579  11.890  0.00  0.00    +0.000 N 
ATOM     18  C   UNL     1      45.403   3.414  12.572  0.00  0.00    +0.000 A 
ATOM     19  O   UNL     1      46.357   2.962  13.204  0.00  0.00    +0.000 OA
ATOM     20  C   UNL     1      45.108   4.823  12.413  0.00  0.00    +0.000 A 
ATOM     21  H   UNL     1      44.733   1.592  11.939  0.00  0.00    +0.000 HD
ENDBRANCH  10  11
ENDBRANCH   1  10
BRANCH   5  22
ATOM     22  C   UNL     1      50.463   5.202  19.409  0.00  0.00    +0.000 C 
BRANCH  22  23
ATOM     23  N   UNL     1      51.306   4.021  19.603  0.00  0.00    +0.000 NA
ATOM     24  H   UNL     1      50.867   3.259  19.091  0.00  0.00    +0.000 HD
BRANCH  23  25
ATOM     25  C   UNL     1      52.675   4.209  19.090  0.00  0.00    +0.000 C 
ATOM     26  C   UNL     1      53.676   3.466  19.998  0.00  0.00    +0.000 C 
ATOM     27  C   UNL     1      54.100   2.183  19.269  0.00  0.00    +0.000 C 
ATOM     28  C   UNL     1      53.279   2.118  17.982  0.00  0.00    +0.000 C 
ATOM     29  C   UNL     1      52.949   3.586  17.714  0.00  0.00    +0.000 C 
BRANCH  28  30
ATOM     30  N   UNL     1      52.076   1.299  18.149  0.00  0.00    +0.000 NA
ATOM     31  H   UNL     1      51.745   0.969  17.245  0.00  0.00    +0.000 HD
ATOM     32  H   UNL     1      51.319   1.901  18.479  0.00  0.00    +0.000 HD
ENDBRANCH  28  30
ENDBRANCH  23  25
ENDBRANCH  22  23
ENDBRANCH   5  22
TORSDOF 6
ENDMDL
MODEL 6
REMARK VINA RESULT:    -6.155      3.399      8.592
REMARK INTER + INTRA:          -9.042
REMARK INTER:                  -8.153
REMARK INTRA:                  -0.889
REMARK UNBOUND:                -0.908
REMARK  Name = 
REMARK  7 active torsions:
REMARK  status: ('A' for Active; 'I' for Inactive)
REMARK    1  A    between atoms: C_1  and  C_2
REMARK    2  A    between atoms: C_2  and  N_3
REMARK    3  A    between atoms: C_2  and  C_18
REMARK    4  A    between atoms: C_7  and  C_8
REMARK    5  A    between atoms: C_8  and  N_9
REMARK    6  A    between atoms: N_9  and  C_10
REMARK    7  A    between atoms: C_13  and  N_14
REMARK                            x       y       z     vdW  Elec       q    Type
REMARK                         _______ _______ _______ _____ _____    ______ ____
ROOT
ATOM      1  N   UNL     1      46.405   4.494  15.345  0.00  0.00    +0.000 N 
ATOM      2  C   UNL     1      47.464   4.512  16.260  0.00  0.00    +0.000 A 
ATOM      3  C   UNL     1      47.307   3.860  17.482  0.00  0.00    +0.000 A 
ATOM      4  C   UNL     1      48.263   4.013  18.491  0.00  0.00    +0.000 A 
ATOM      5  C   UNL     1      49.354   4.853  18.286  0.00  0.00    +0.000 A 
ATOM      6  C   UNL     1      49.456   5.432  17.028  0.00  0.00    +0.000 A 
ATOM      7  N   UNL     1      48.553   5.271  16.024  0.00  0.00    +0.000 NA
ATOM      8  H   UNL     1      45.774   3.705  15.475  0.00  0.00    +0.000 HD
ENDROOT
BRANCH   1  10
ATOM      9  C   UNL     1      46.907   3.297  13.273  0.00  0.00    +0.000 C 
ATOM     10  C   UNL     1      46.732   4.676  13.928  0.00  0.00    +0.000 C 
BRANCH  10  11
ATOM     11  C   UNL     1      45.732   5.519  13.137  0.00  0.00    +0.000 A 
ATOM     12  C   UNL     1      44.564   4.989  12.609  0.00  0.00    +0.000 A 
ATOM     13  S   UNL     1      43.686   6.097  11.654  0.00  0.00    +0.000 S 
ATOM     14  C   UNL     1      44.777   7.353  12.008  0.00  0.00    +0.000 A 
ATOM     15  N   UNL     1      44.578   8.608  11.522  0.00  0.00    +0.000 NA
ATOM     16  C   UNL     1      45.431   9.480  11.946  0.00  0.00    +0.000 A 
ATOM     17  N   UNL     1      46.472   9.207  12.799  0.00  0.00    +0.000 N 
ATOM     18  C   UNL     1      46.738   7.940  13.285  0.00  0.00    +0.000 A 
ATOM     19  O   UNL     1      47.671   7.739  14.062  0.00  0.00    +0.000 OA
ATOM     20  C   UNL     1      45.798   6.931  12.843  0.00  0.00    +0.000 A 
ATOM     21  H   UNL     1      47.077   9.947  13.119  0.00  0.00    +0.000 HD
ENDBRANCH  10  11
ENDBRANCH   1  10
BRANCH   5  22
ATOM     22  C   UNL     1      50.332   5.175  19.388  0.00  0.00    +0.000 C 
BRANCH  22  23
ATOM     23  N   UNL     1      51.228   4.051  19.665  0.00  0.00    +0.000 NA
ATOM     24  H   UNL     1      50.816   3.231  19.226  0.00  0.00    +0.000 HD
BRANCH  23  25
ATOM     25  C   UNL     1      52.580   4.253  19.114  0.00  0.00    +0.000 C 
ATOM     26  C   UNL     1      53.612   3.510  19.987  0.00  0.00    +0.000 C 
ATOM     27  C   UNL     1      54.024   2.235  19.236  0.00  0.00    +0.000 C 
ATOM     28  C   UNL     1      53.167   2.175  17.973  0.00  0.00    +0.000 C 
ATOM     29  C   UNL     1      52.819   3.642  17.726  0.00  0.00    +0.000 C 
BRANCH  28  30
ATOM     30  N   UNL     1      51.975   1.346  18.168  0.00  0.00    +0.000 NA
ATOM     31  H   UNL     1      51.766   0.823  17.320  0.00  0.00    +0.000 HD
ATOM     32  H   UNL     1      51.167   1.963  18.277  0.00  0.00    +0.000 HD
ENDBRANCH  28  30
ENDBRANCH  23  25
ENDBRANCH  22  23
ENDBRANCH   5  22
TORSDOF 6
ENDMDL
MODEL 7
REMARK VINA RESULT:    -6.100      1.546      2.009
REMARK INTER + INTRA:          -8.969
REMARK INTER:                  -8.185
REMARK INTRA:                  -0.784
REMARK UNBOUND:                -0.908
REMARK  Name = 
REMARK  7 active torsions:
REMARK  status: ('A' for Active; 'I' for Inactive)
REMARK    1  A    between atoms: C_1  and  C_2
REMARK    2  A    between atoms: C_2  and  N_3
REMARK    3  A    between atoms: C_2  and  C_18
REMARK    4  A    between atoms: C_7  and  C_8
REMARK    5  A    between atoms: C_8  and  N_9
REMARK    6  A    between atoms: N_9  and  C_10
REMARK    7  A    between atoms: C_13  and  N_14
REMARK                            x       y       z     vdW  Elec       q    Type
REMARK                         _______ _______ _______ _____ _____    ______ ____
ROOT
ATOM      1  N   UNL     1      49.753   7.598  15.584  0.00  0.00    +0.000 N 
ATOM      2  C   UNL     1      48.997   7.259  14.456  0.00  0.00    +0.000 A 
ATOM      3  C   UNL     1      48.726   8.246  13.509  0.00  0.00    +0.000 A 
ATOM      4  C   UNL     1      47.822   7.997  12.471  0.00  0.00    +0.000 A 
ATOM      5  C   UNL     1      47.161   6.773  12.410  0.00  0.00    +0.000 A 
ATOM      6  C   UNL     1      47.519   5.833  13.367  0.00  0.00    +0.000 A 
ATOM      7  N   UNL     1      48.417   6.045  14.365  0.00  0.00    +0.000 NA
ATOM      8  H   UNL     1      50.357   8.405  15.437  0.00  0.00    +0.000 HD
ENDROOT
BRANCH   1  10
ATOM      9  C   UNL     1      51.844   7.045  16.725  0.00  0.00    +0.000 C 
ATOM     10  C   UNL     1      50.479   6.517  16.260  0.00  0.00    +0.000 C 
BRANCH  10  11
ATOM     11  C   UNL     1      49.732   5.870  17.426  0.00  0.00    +0.000 A 
ATOM     12  C   UNL     1      49.672   4.495  17.601  0.00  0.00    +0.000 A 
ATOM     13  S   UNL     1      48.667   4.017  18.894  0.00  0.00    +0.000 S 
ATOM     14  C   UNL     1      48.371   5.634  19.335  0.00  0.00    +0.000 A 
ATOM     15  N   UNL     1      47.599   5.933  20.414  0.00  0.00    +0.000 NA
ATOM     16  C   UNL     1      47.537   7.194  20.686  0.00  0.00    +0.000 A 
ATOM     17  N   UNL     1      48.163   8.182  19.968  0.00  0.00    +0.000 N 
ATOM     18  C   UNL     1      48.924   7.930  18.840  0.00  0.00    +0.000 A 
ATOM     19  O   UNL     1      49.484   8.842  18.233  0.00  0.00    +0.000 OA
ATOM     20  C   UNL     1      49.030   6.525  18.504  0.00  0.00    +0.000 A 
ATOM     21  H   UNL     1      48.102   9.144  20.261  0.00  0.00    +0.000 HD
ENDBRANCH  10  11
ENDBRANCH   1  10
BRANCH   5  22
ATOM     22  C   UNL     1      46.068   6.506  11.405  0.00  0.00    +0.000 C 
BRANCH  22  23
ATOM     23  N   UNL     1      45.083   5.550  11.914  0.00  0.00    +0.000 NA
ATOM     24  H   UNL     1      44.625   5.994  12.707  0.00  0.00    +0.000 HD
BRANCH  23  25
ATOM     25  C   UNL     1      44.060   5.200  10.912  0.00  0.00    +0.000 C 
ATOM     26  C   UNL     1      44.684   4.298   9.828  0.00  0.00    +0.000 C 
ATOM     27  C   UNL     1      44.217   2.860  10.095  0.00  0.00    +0.000 C 
ATOM     28  C   UNL     1      43.402   2.896  11.388  0.00  0.00    +0.000 C 
ATOM     29  C   UNL     1      42.901   4.339  11.434  0.00  0.00    +0.000 C 
BRANCH  28  30
ATOM     30  N   UNL     1      44.223   2.555  12.553  0.00  0.00    +0.000 NA
ATOM     31  H   UNL     1      45.145   2.241  12.256  0.00  0.00    +0.000 HD
ATOM     32  H   UNL     1      43.820   1.730  13.001  0.00  0.00    +0.000 HD
ENDBRANCH  28  30
ENDBRANCH  23  25
ENDBRANCH  22  23
ENDBRANCH   5  22
TORSDOF 6
ENDMDL
MODEL 8
REMARK VINA RESULT:    -5.848      3.188      8.436
REMARK INTER + INTRA:          -8.636
REMARK INTER:                  -7.769
REMARK INTRA:                  -0.868
REMARK UNBOUND:                -0.908
REMARK  Name = 
REMARK  7 active torsions:
REMARK  status: ('A' for Active; 'I' for Inactive)
REMARK    1  A    between atoms: C_1  and  C_2
REMARK    2  A    between atoms: C_2  and  N_3
REMARK    3  A    between atoms: C_2  and  C_18
REMARK    4  A    between atoms: C_7  and  C_8
REMARK    5  A    between atoms: C_8  and  N_9
REMARK    6  A    between atoms: N_9  and  C_10
REMARK    7  A    between atoms: C_13  and  N_14
REMARK                            x       y       z     vdW  Elec       q    Type
REMARK                         _______ _______ _______ _____ _____    ______ ____
ROOT
ATOM      1  N   UNL     1      47.517   6.977  11.775  0.00  0.00    +0.000 N 
ATOM      2  C   UNL     1      48.227   7.110  12.973  0.00  0.00    +0.000 A 
ATOM      3  C   UNL     1      49.417   7.839  12.971  0.00  0.00    +0.000 A 
ATOM      4  C   UNL     1      50.246   7.836  14.097  0.00  0.00    +0.000 A 
ATOM      5  C   UNL     1      49.902   7.069  15.206  0.00  0.00    +0.000 A 
ATOM      6  C   UNL     1      48.683   6.407  15.142  0.00  0.00    +0.000 A 
ATOM      7  N   UNL     1      47.848   6.422  14.069  0.00  0.00    +0.000 NA
ATOM      8  H   UNL     1      47.708   7.722  11.108  0.00  0.00    +0.000 HD
ENDROOT
BRANCH   1  10
ATOM      9  C   UNL     1      45.310   8.010  11.566  0.00  0.00    +0.000 C 
ATOM     10  C   UNL     1      46.077   6.714  11.869  0.00  0.00    +0.000 C 
BRANCH  10  11
ATOM     11  C   UNL     1      45.570   5.576  10.984  0.00  0.00    +0.000 A 
ATOM     12  C   UNL     1      45.799   5.536   9.616  0.00  0.00    +0.000 A 
ATOM     13  S   UNL     1      45.015   4.239   8.833  0.00  0.00    +0.000 S 
ATOM     14  C   UNL     1      44.439   3.622  10.310  0.00  0.00    +0.000 A 
ATOM     15  N   UNL     1      43.710   2.473  10.350  0.00  0.00    +0.000 NA
ATOM     16  C   UNL     1      43.420   2.074  11.543  0.00  0.00    +0.000 A 
ATOM     17  N   UNL     1      43.778   2.726  12.696  0.00  0.00    +0.000 N 
ATOM     18  C   UNL     1      44.481   3.917  12.704  0.00  0.00    +0.000 A 
ATOM     19  O   UNL     1      44.799   4.462  13.761  0.00  0.00    +0.000 OA
ATOM     20  C   UNL     1      44.839   4.397  11.385  0.00  0.00    +0.000 A 
ATOM     21  H   UNL     1      43.549   2.335  13.596  0.00  0.00    +0.000 HD
ENDBRANCH  10  11
ENDBRANCH   1  10
BRANCH   5  22
ATOM     22  C   UNL     1      50.830   6.909  16.385  0.00  0.00    +0.000 C 
BRANCH  22  23
ATOM     23  N   UNL     1      50.519   5.709  17.163  0.00  0.00    +0.000 NA
ATOM     24  H   UNL     1      49.810   5.196  16.643  0.00  0.00    +0.000 HD
BRANCH  23  25
ATOM     25  C   UNL     1      51.691   4.835  17.352  0.00  0.00    +0.000 C 
ATOM     26  C   UNL     1      52.979   5.682  17.332  0.00  0.00    +0.000 C 
ATOM     27  C   UNL     1      53.462   5.827  18.782  0.00  0.00    +0.000 C 
ATOM     28  C   UNL     1      52.412   5.153  19.664  0.00  0.00    +0.000 C 
ATOM     29  C   UNL     1      51.773   4.137  18.717  0.00  0.00    +0.000 C 
BRANCH  28  30
ATOM     30  N   UNL     1      51.440   6.120  20.180  0.00  0.00    +0.000 NA
ATOM     31  H   UNL     1      51.254   5.942  21.165  0.00  0.00    +0.000 HD
ATOM     32  H   UNL     1      50.539   5.944  19.729  0.00  0.00    +0.000 HD
ENDBRANCH  28  30
ENDBRANCH  23  25
ENDBRANCH  22  23
ENDBRANCH   5  22
TORSDOF 6
ENDMDL
MODEL 9
REMARK VINA RESULT:    -5.789      3.075      8.397
REMARK INTER + INTRA:          -8.558
REMARK INTER:                  -7.473
REMARK INTRA:                  -1.086
REMARK UNBOUND:                -0.908
REMARK  Name = 
REMARK  7 active torsions:
REMARK  status: ('A' for Active; 'I' for Inactive)
REMARK    1  A    between atoms: C_1  and  C_2
REMARK    2  A    between atoms: C_2  and  N_3
REMARK    3  A    between atoms: C_2  and  C_18
REMARK    4  A    between atoms: C_7  and  C_8
REMARK    5  A    between atoms: C_8  and  N_9
REMARK    6  A    between atoms: N_9  and  C_10
REMARK    7  A    between atoms: C_13  and  N_14
REMARK                            x       y       z     vdW  Elec       q    Type
REMARK                         _______ _______ _______ _____ _____    ______ ____
ROOT
ATOM      1  N   UNL     1      46.285   4.421  15.230  0.00  0.00    +0.000 N 
ATOM      2  C   UNL     1      47.344   4.398  16.146  0.00  0.00    +0.000 A 
ATOM      3  C   UNL     1      47.179   3.706  17.345  0.00  0.00    +0.000 A 
ATOM      4  C   UNL     1      48.135   3.816  18.359  0.00  0.00    +0.000 A 
ATOM      5  C   UNL     1      49.233   4.654  18.184  0.00  0.00    +0.000 A 
ATOM      6  C   UNL     1      49.343   5.275  16.947  0.00  0.00    +0.000 A 
ATOM      7  N   UNL     1      48.440   5.156  15.937  0.00  0.00    +0.000 NA
ATOM      8  H   UNL     1      45.648   3.633  15.331  0.00  0.00    +0.000 HD
ENDROOT
BRANCH   1  10
ATOM      9  C   UNL     1      46.778   3.292  13.117  0.00  0.00    +0.000 C 
ATOM     10  C   UNL     1      46.617   4.649  13.820  0.00  0.00    +0.000 C 
BRANCH  10  11
ATOM     11  C   UNL     1      45.626   5.529  13.058  0.00  0.00    +0.000 A 
ATOM     12  C   UNL     1      44.441   5.034  12.533  0.00  0.00    +0.000 A 
ATOM     13  S   UNL     1      43.576   6.180  11.611  0.00  0.00    +0.000 S 
ATOM     14  C   UNL     1      44.698   7.406  11.978  0.00  0.00    +0.000 A 
ATOM     15  N   UNL     1      44.521   8.674  11.519  0.00  0.00    +0.000 NA
ATOM     16  C   UNL     1      45.397   9.519  11.951  0.00  0.00    +0.000 A 
ATOM     17  N   UNL     1      46.441   9.207  12.785  0.00  0.00    +0.000 N 
ATOM     18  C   UNL     1      46.686   7.924  13.243  0.00  0.00    +0.000 A 
ATOM     19  O   UNL     1      47.623   7.688  14.005  0.00  0.00    +0.000 OA
ATOM     20  C   UNL     1      45.719   6.945  12.791  0.00  0.00    +0.000 A 
ATOM     21  H   UNL     1      47.066   9.926  13.113  0.00  0.00    +0.000 HD
ENDBRANCH  10  11
ENDBRANCH   1  10
BRANCH   5  22
ATOM     22  C   UNL     1      50.213   4.929  19.298  0.00  0.00    +0.000 C 
BRANCH  22  23
ATOM     23  N   UNL     1      50.325   6.360  19.584  0.00  0.00    +0.000 NA
ATOM     24  H   UNL     1      49.846   6.849  18.830  0.00  0.00    +0.000 HD
BRANCH  23  25
ATOM     25  C   UNL     1      49.700   6.735  20.864  0.00  0.00    +0.000 C 
ATOM     26  C   UNL     1      49.825   8.257  21.076  0.00  0.00    +0.000 C 
ATOM     27  C   UNL     1      48.454   8.882  20.781  0.00  0.00    +0.000 C 
ATOM     28  C   UNL     1      47.550   7.748  20.300  0.00  0.00    +0.000 C 
ATOM     29  C   UNL     1      48.183   6.513  20.941  0.00  0.00    +0.000 C 
BRANCH  28  30
ATOM     30  N   UNL     1      47.521   7.662  18.838  0.00  0.00    +0.000 NA
ATOM     31  H   UNL     1      48.468   7.683  18.464  0.00  0.00    +0.000 HD
ATOM     32  H   UNL     1      47.099   8.519  18.473  0.00  0.00    +0.000 HD
ENDBRANCH  28  30
ENDBRANCH  23  25
ENDBRANCH  22  23
ENDBRANCH   5  22
TORSDOF 6
ENDMDL
