MODEL 1
REMARK VINA RESULT:    -8.240      0.000      0.000
REMARK INTER + INTRA:         -11.700
REMARK INTER:                 -10.648
REMARK INTRA:                  -1.051
REMARK UNBOUND:                -1.051
REMARK  Name = 
REMARK  5 active torsions:
REMARK  status: ('A' for Active; 'I' for Inactive)
REMARK    1  A    between atoms: C_2  and  C_3
REMARK    2  A    between atoms: C_6  and  O_7
REMARK    3  A    between atoms: O_7  and  C_8
REMARK    4  A    between atoms: C_8  and  C_9
REMARK    5  A    between atoms: C_13  and  C_14
REMARK                            x       y       z     vdW  Elec       q    Type
REMARK                         _______ _______ _______ _____ _____    ______ ____
ROOT
ATOM      1  C   UNL     1      44.777   4.469  12.104  0.00  0.00    +0.000 A 
ATOM      2  C   UNL     1      45.539   3.605  12.897  0.00  0.00    +0.000 A 
ATOM      3  C   UNL     1      46.716   4.056  13.488  0.00  0.00    +0.000 A 
ATOM      4  C   UNL     1      47.141   5.371  13.289  0.00  0.00    +0.000 A 
ATOM      5  C   UNL     1      46.407   6.272  12.497  0.00  0.00    +0.000 A 
ATOM      6  C   UNL     1      45.206   5.797  11.932  0.00  0.00    +0.000 A 
ENDROOT
BRANCH   5   7
ATOM      7  C   UNL     1      46.900   7.647  12.234  0.00  0.00    +0.000 A 
ATOM      8  C   UNL     1      48.256   7.910  11.949  0.00  0.00    +0.000 A 
ATOM      9  C   UNL     1      48.716   9.212  11.715  0.00  0.00    +0.000 A 
ATOM     10  C   UNL     1      47.823  10.273  11.751  0.00  0.00    +0.000 A 
ATOM     11  F   UNL     1      48.261  11.516  11.514  0.00  0.00    +0.000 F 
ATOM     12  C   UNL     1      46.485  10.043  12.032  0.00  0.00    +0.000 A 
ATOM     13  F   UNL     1      45.617  11.064  12.069  0.00  0.00    +0.000 F 
ATOM     14  C   UNL     1      46.026   8.751  12.280  0.00  0.00    +0.000 A 
ENDBRANCH   5   7
BRANCH   1  15
ATOM     15  C   UNL     1      43.532   3.975  11.406  0.00  0.00    +0.000 C 
BRANCH  15  16
ATOM     16  O   UNL     1      43.586   4.300  10.018  0.00  0.00    +0.000 OA
BRANCH  16  20
ATOM     17  C   UNL     1      46.515   2.505   7.640  0.00  0.00    +0.000 A 
ATOM     18  C   UNL     1      45.727   1.688   8.456  0.00  0.00    +0.000 A 
ATOM     19  C   UNL     1      44.734   2.251   9.268  0.00  0.00    +0.000 A 
ATOM     20  C   UNL     1      44.524   3.631   9.276  0.00  0.00    +0.000 A 
ATOM     21  C   UNL     1      45.321   4.443   8.459  0.00  0.00    +0.000 A 
ATOM     22  C   UNL     1      46.312   3.886   7.646  0.00  0.00    +0.000 A 
BRANCH  17  24
ATOM     23  N   UNL     1      48.345   1.461   6.126  0.00  0.00    +0.000 NA
ATOM     24  C   UNL     1      47.524   1.923   6.802  0.00  0.00    +0.000 C 
ENDBRANCH  17  24
ENDBRANCH  16  20
ENDBRANCH  15  16
ENDBRANCH   1  15
TORSDOF 5
ENDMDL
MODEL 2
REMARK VINA RESULT:    -8.218      1.298      2.133
REMARK INTER + INTRA:         -11.672
REMARK INTER:                 -10.753
REMARK INTRA:                  -0.918
REMARK UNBOUND:                -1.051
REMARK  Name = 
REMARK  5 active torsions:
REMARK  status: ('A' for Active; 'I' for Inactive)
REMARK    1  A    between atoms: C_2  and  C_3
REMARK    2  A    between atoms: C_6  and  O_7
REMARK    3  A    between atoms: O_7  and  C_8
REMARK    4  A    between atoms: C_8  and  C_9
REMARK    5  A    between atoms: C_13  and  C_14
REMARK                            x       y       z     vdW  Elec       q    Type
REMARK                         _______ _______ _______ _____ _____    ______ ____
ROOT
ATOM      1  C   UNL     1      44.763   5.237  11.721  0.00  0.00    +0.000 A 
ATOM      2  C   UNL     1      45.024   4.330  12.753  0.00  0.00    +0.000 A 
ATOM      3  C   UNL     1      46.138   4.502  13.569  0.00  0.00    +0.000 A 
ATOM      4  C   UNL     1      47.001   5.580  13.360  0.00  0.00    +0.000 A 
ATOM      5  C   UNL     1      46.777   6.514  12.331  0.00  0.00    +0.000 A 
ATOM      6  C   UNL     1      45.629   6.330  11.537  0.00  0.00    +0.000 A 
ENDROOT
BRANCH   5   7
ATOM      7  C   UNL     1      47.735   7.617  12.071  0.00  0.00    +0.000 A 
ATOM      8  C   UNL     1      47.335   8.970  12.085  0.00  0.00    +0.000 A 
ATOM      9  C   UNL     1      48.243  10.005  11.825  0.00  0.00    +0.000 A 
ATOM     10  C   UNL     1      49.570   9.703  11.559  0.00  0.00    +0.000 A 
ATOM     11  F   UNL     1      50.440  10.694  11.324  0.00  0.00    +0.000 F 
ATOM     12  C   UNL     1      49.990   8.382  11.536  0.00  0.00    +0.000 A 
ATOM     13  F   UNL     1      51.271   8.085  11.279  0.00  0.00    +0.000 F 
ATOM     14  C   UNL     1      49.087   7.349  11.779  0.00  0.00    +0.000 A 
ENDBRANCH   5   7
BRANCH   1  15
ATOM     15  C   UNL     1      43.594   5.025  10.789  0.00  0.00    +0.000 C 
BRANCH  15  16
ATOM     16  O   UNL     1      43.583   3.680  10.314  0.00  0.00    +0.000 OA
BRANCH  16  20
ATOM     17  C   UNL     1      46.487   2.444   7.576  0.00  0.00    +0.000 A 
ATOM     18  C   UNL     1      46.102   3.788   7.578  0.00  0.00    +0.000 A 
ATOM     19  C   UNL     1      45.131   4.241   8.480  0.00  0.00    +0.000 A 
ATOM     20  C   UNL     1      44.536   3.360   9.382  0.00  0.00    +0.000 A 
ATOM     21  C   UNL     1      44.923   2.013   9.371  0.00  0.00    +0.000 A 
ATOM     22  C   UNL     1      45.892   1.556   8.474  0.00  0.00    +0.000 A 
BRANCH  17  24
ATOM     23  N   UNL     1      48.303   1.610   5.921  0.00  0.00    +0.000 NA
ATOM     24  C   UNL     1      47.489   1.984   6.657  0.00  0.00    +0.000 C 
ENDBRANCH  17  24
ENDBRANCH  16  20
ENDBRANCH  15  16
ENDBRANCH   1  15
TORSDOF 5
ENDMDL
MODEL 3
REMARK VINA RESULT:    -8.142      3.375      4.433
REMARK INTER + INTRA:         -11.573
REMARK INTER:                 -10.851
REMARK INTRA:                  -0.723
REMARK UNBOUND:                -1.051
REMARK  Name = 
REMARK  5 active torsions:
REMARK  status: ('A' for Active; 'I' for Inactive)
REMARK    1  A    between atoms: C_2  and  C_3
REMARK    2  A    between atoms: C_6  and  O_7
REMARK    3  A    between atoms: O_7  and  C_8
REMARK    4  A    between atoms: C_8  and  C_9
REMARK    5  A    between atoms: C_13  and  C_14
REMARK                            x       y       z     vdW  Elec       q    Type
REMARK                         _______ _______ _______ _____ _____    ______ ____
ROOT
ATOM      1  C   UNL     1      44.958   4.968  11.987  0.00  0.00    +0.000 A 
ATOM      2  C   UNL     1      45.211   6.190  11.358  0.00  0.00    +0.000 A 
ATOM      3  C   UNL     1      46.172   7.055  11.873  0.00  0.00    +0.000 A 
ATOM      4  C   UNL     1      46.886   6.706  13.022  0.00  0.00    +0.000 A 
ATOM      5  C   UNL     1      46.659   5.487  13.689  0.00  0.00    +0.000 A 
ATOM      6  C   UNL     1      45.699   4.620  13.131  0.00  0.00    +0.000 A 
ENDROOT
BRANCH   5   7
ATOM      7  C   UNL     1      47.371   5.154  14.947  0.00  0.00    +0.000 A 
ATOM      8  C   UNL     1      48.351   6.006  15.498  0.00  0.00    +0.000 A 
ATOM      9  C   UNL     1      49.027   5.678  16.680  0.00  0.00    +0.000 A 
ATOM     10  C   UNL     1      48.725   4.495  17.337  0.00  0.00    +0.000 A 
ATOM     11  F   UNL     1      49.362   4.188  18.475  0.00  0.00    +0.000 F 
ATOM     12  C   UNL     1      47.768   3.637  16.818  0.00  0.00    +0.000 A 
ATOM     13  F   UNL     1      47.473   2.492  17.448  0.00  0.00    +0.000 F 
ATOM     14  C   UNL     1      47.104   3.953  15.634  0.00  0.00    +0.000 A 
ENDBRANCH   5   7
BRANCH   1  15
ATOM     15  C   UNL     1      43.873   4.050  11.474  0.00  0.00    +0.000 C 
BRANCH  15  16
ATOM     16  O   UNL     1      43.720   4.211  10.065  0.00  0.00    +0.000 OA
BRANCH  16  20
ATOM     17  C   UNL     1      46.597   2.526   7.547  0.00  0.00    +0.000 A 
ATOM     18  C   UNL     1      45.893   1.683   8.412  0.00  0.00    +0.000 A 
ATOM     19  C   UNL     1      44.920   2.209   9.272  0.00  0.00    +0.000 A 
ATOM     20  C   UNL     1      44.646   3.578   9.279  0.00  0.00    +0.000 A 
ATOM     21  C   UNL     1      45.360   4.417   8.413  0.00  0.00    +0.000 A 
ATOM     22  C   UNL     1      46.330   3.896   7.552  0.00  0.00    +0.000 A 
BRANCH  17  24
ATOM     23  N   UNL     1      48.392   1.544   5.951  0.00  0.00    +0.000 NA
ATOM     24  C   UNL     1      47.586   1.982   6.661  0.00  0.00    +0.000 C 
ENDBRANCH  17  24
ENDBRANCH  16  20
ENDBRANCH  15  16
ENDBRANCH   1  15
TORSDOF 5
ENDMDL
MODEL 4
REMARK VINA RESULT:    -7.893      2.111      2.870
REMARK INTER + INTRA:         -11.251
REMARK INTER:                 -10.319
REMARK INTRA:                  -0.932
REMARK UNBOUND:                -1.051
REMARK  Name = 
REMARK  5 active torsions:
REMARK  status: ('A' for Active; 'I' for Inactive)
REMARK    1  A    between atoms: C_2  and  C_3
REMARK    2  A    between atoms: C_6  and  O_7
REMARK    3  A    between atoms: O_7  and  C_8
REMARK    4  A    between atoms: C_8  and  C_9
REMARK    5  A    between atoms: C_13  and  C_14
REMARK                            x       y       z     vdW  Elec       q    Type
REMARK                         _______ _______ _______ _____ _____    ______ ____
ROOT
ATOM      1  C   UNL     1      44.498   5.115  11.541  0.00  0.00    +0.000 A 
ATOM      2  C   UNL     1      43.567   6.133  11.315  0.00  0.00    +0.000 A 
ATOM      3  C   UNL     1      43.951   7.467  11.424  0.00  0.00    +0.000 A 
ATOM      4  C   UNL     1      45.267   7.792  11.761  0.00  0.00    +0.000 A 
ATOM      5  C   UNL     1      46.234   6.799  12.001  0.00  0.00    +0.000 A 
ATOM      6  C   UNL     1      45.824   5.459  11.859  0.00  0.00    +0.000 A 
ENDROOT
BRANCH   5   7
ATOM      7  C   UNL     1      47.611   7.151  12.426  0.00  0.00    +0.000 A 
ATOM      8  C   UNL     1      48.497   7.850  11.580  0.00  0.00    +0.000 A 
ATOM      9  C   UNL     1      49.800   8.167  11.984  0.00  0.00    +0.000 A 
ATOM     10  C   UNL     1      50.235   7.800  13.249  0.00  0.00    +0.000 A 
ATOM     11  F   UNL     1      51.476   8.115  13.640  0.00  0.00    +0.000 F 
ATOM     12  C   UNL     1      49.386   7.110  14.101  0.00  0.00    +0.000 A 
ATOM     13  F   UNL     1      49.801   6.752  15.324  0.00  0.00    +0.000 F 
ATOM     14  C   UNL     1      48.095   6.779  13.697  0.00  0.00    +0.000 A 
ENDBRANCH   5   7
BRANCH   1  15
ATOM     15  C   UNL     1      44.078   3.665  11.489  0.00  0.00    +0.000 C 
BRANCH  15  16
ATOM     16  O   UNL     1      43.616   3.335  10.179  0.00  0.00    +0.000 OA
BRANCH  16  20
ATOM     17  C   UNL     1      46.583   2.390   7.394  0.00  0.00    +0.000 A 
ATOM     18  C   UNL     1      46.112   3.705   7.445  0.00  0.00    +0.000 A 
ATOM     19  C   UNL     1      45.118   4.062   8.364  0.00  0.00    +0.000 A 
ATOM     20  C   UNL     1      44.584   3.111   9.235  0.00  0.00    +0.000 A 
ATOM     21  C   UNL     1      45.057   1.794   9.174  0.00  0.00    +0.000 A 
ATOM     22  C   UNL     1      46.050   1.433   8.259  0.00  0.00    +0.000 A 
BRANCH  17  24
ATOM     23  N   UNL     1      48.438   1.731   5.703  0.00  0.00    +0.000 NA
ATOM     24  C   UNL     1      47.609   2.030   6.457  0.00  0.00    +0.000 C 
ENDBRANCH  17  24
ENDBRANCH  16  20
ENDBRANCH  15  16
ENDBRANCH   1  15
TORSDOF 5
ENDMDL
MODEL 5
REMARK VINA RESULT:    -7.843      4.165      7.025
REMARK INTER + INTRA:         -11.187
REMARK INTER:                 -10.161
REMARK INTRA:                  -1.026
REMARK UNBOUND:                -1.051
REMARK  Name = 
REMARK  5 active torsions:
REMARK  status: ('A' for Active; 'I' for Inactive)
REMARK    1  A    between atoms: C_2  and  C_3
REMARK    2  A    between atoms: C_6  and  O_7
REMARK    3  A    between atoms: O_7  and  C_8
REMARK    4  A    between atoms: C_8  and  C_9
REMARK    5  A    between atoms: C_13  and  C_14
REMARK                            x       y       z     vdW  Elec       q    Type
REMARK                         _______ _______ _______ _____ _____    ______ ____
ROOT
ATOM      1  C   UNL     1      44.152   5.244  11.329  0.00  0.00    +0.000 A 
ATOM      2  C   UNL     1      43.318   4.337  11.991  0.00  0.00    +0.000 A 
ATOM      3  C   UNL     1      43.275   3.005  11.589  0.00  0.00    +0.000 A 
ATOM      4  C   UNL     1      44.064   2.570  10.521  0.00  0.00    +0.000 A 
ATOM      5  C   UNL     1      44.913   3.450   9.826  0.00  0.00    +0.000 A 
ATOM      6  C   UNL     1      44.956   4.786  10.270  0.00  0.00    +0.000 A 
ENDROOT
BRANCH   5   7
ATOM      7  C   UNL     1      45.695   2.996   8.649  0.00  0.00    +0.000 A 
ATOM      8  C   UNL     1      46.153   3.898   7.665  0.00  0.00    +0.000 A 
ATOM      9  C   UNL     1      46.879   3.461   6.550  0.00  0.00    +0.000 A 
ATOM     10  C   UNL     1      47.171   2.112   6.408  0.00  0.00    +0.000 A 
ATOM     11  F   UNL     1      47.878   1.696   5.349  0.00  0.00    +0.000 F 
ATOM     12  C   UNL     1      46.732   1.203   7.358  0.00  0.00    +0.000 A 
ATOM     13  F   UNL     1      47.010  -0.101   7.225  0.00  0.00    +0.000 F 
ATOM     14  C   UNL     1      45.996   1.633   8.460  0.00  0.00    +0.000 A 
ENDBRANCH   5   7
BRANCH   1  15
ATOM     15  C   UNL     1      44.159   6.704  11.715  0.00  0.00    +0.000 C 
BRANCH  15  16
ATOM     16  O   UNL     1      44.920   6.893  12.907  0.00  0.00    +0.000 OA
BRANCH  16  20
ATOM     17  C   UNL     1      48.962   7.740  12.271  0.00  0.00    +0.000 A 
ATOM     18  C   UNL     1      48.622   6.521  12.865  0.00  0.00    +0.000 A 
ATOM     19  C   UNL     1      47.279   6.200  13.096  0.00  0.00    +0.000 A 
ATOM     20  C   UNL     1      46.266   7.091  12.740  0.00  0.00    +0.000 A 
ATOM     21  C   UNL     1      46.614   8.313  12.150  0.00  0.00    +0.000 A 
ATOM     22  C   UNL     1      47.954   8.638  11.917  0.00  0.00    +0.000 A 
BRANCH  17  24
ATOM     23  N   UNL     1      51.453   8.315  11.826  0.00  0.00    +0.000 NA
ATOM     24  C   UNL     1      50.339   8.062  12.028  0.00  0.00    +0.000 C 
ENDBRANCH  17  24
ENDBRANCH  16  20
ENDBRANCH  15  16
ENDBRANCH   1  15
TORSDOF 5
ENDMDL
MODEL 6
REMARK VINA RESULT:    -7.372      4.753      7.663
REMARK INTER + INTRA:         -10.579
REMARK INTER:                  -9.776
REMARK INTRA:                  -0.803
REMARK UNBOUND:                -1.051
REMARK  Name = 
REMARK  5 active torsions:
REMARK  status: ('A' for Active; 'I' for Inactive)
REMARK    1  A    between atoms: C_2  and  C_3
REMARK    2  A    between atoms: C_6  and  O_7
REMARK    3  A    between atoms: O_7  and  C_8
REMARK    4  A    between atoms: C_8  and  C_9
REMARK    5  A    between atoms: C_13  and  C_14
REMARK                            x       y       z     vdW  Elec       q    Type
REMARK                         _______ _______ _______ _____ _____    ______ ____
ROOT
ATOM      1  C   UNL     1      45.075   6.061  12.037  0.00  0.00    +0.000 A 
ATOM      2  C   UNL     1      43.698   5.973  12.266  0.00  0.00    +0.000 A 
ATOM      3  C   UNL     1      42.916   5.114  11.498  0.00  0.00    +0.000 A 
ATOM      4  C   UNL     1      43.504   4.339  10.496  0.00  0.00    +0.000 A 
ATOM      5  C   UNL     1      44.885   4.400  10.231  0.00  0.00    +0.000 A 
ATOM      6  C   UNL     1      45.655   5.258  11.039  0.00  0.00    +0.000 A 
ENDROOT
BRANCH   5   7
ATOM      7  C   UNL     1      45.491   3.625   9.120  0.00  0.00    +0.000 A 
ATOM      8  C   UNL     1      46.069   4.258   7.999  0.00  0.00    +0.000 A 
ATOM      9  C   UNL     1      46.628   3.520   6.948  0.00  0.00    +0.000 A 
ATOM     10  C   UNL     1      46.627   2.134   7.007  0.00  0.00    +0.000 A 
ATOM     11  F   UNL     1      47.174   1.429   6.008  0.00  0.00    +0.000 F 
ATOM     12  C   UNL     1      46.064   1.486   8.095  0.00  0.00    +0.000 A 
ATOM     13  F   UNL     1      46.060   0.147   8.157  0.00  0.00    +0.000 F 
ATOM     14  C   UNL     1      45.493   2.217   9.135  0.00  0.00    +0.000 A 
ENDBRANCH   5   7
BRANCH   1  15
ATOM     15  C   UNL     1      45.922   7.036  12.820  0.00  0.00    +0.000 C 
BRANCH  15  16
ATOM     16  O   UNL     1      47.243   6.520  12.980  0.00  0.00    +0.000 OA
BRANCH  16  20
ATOM     17  C   UNL     1      48.245   4.884  16.692  0.00  0.00    +0.000 A 
ATOM     18  C   UNL     1      47.369   4.174  15.866  0.00  0.00    +0.000 A 
ATOM     19  C   UNL     1      47.008   4.689  14.614  0.00  0.00    +0.000 A 
ATOM     20  C   UNL     1      47.514   5.914  14.179  0.00  0.00    +0.000 A 
ATOM     21  C   UNL     1      48.387   6.623  15.015  0.00  0.00    +0.000 A 
ATOM     22  C   UNL     1      48.751   6.113  16.264  0.00  0.00    +0.000 A 
BRANCH  17  24
ATOM     23  N   UNL     1      48.931   3.914  18.998  0.00  0.00    +0.000 NA
ATOM     24  C   UNL     1      48.620   4.349  17.969  0.00  0.00    +0.000 C 
ENDBRANCH  17  24
ENDBRANCH  16  20
ENDBRANCH  15  16
ENDBRANCH   1  15
TORSDOF 5
ENDMDL
MODEL 7
REMARK VINA RESULT:    -6.566      5.149      8.216
REMARK INTER + INTRA:          -9.536
REMARK INTER:                  -8.781
REMARK INTRA:                  -0.755
REMARK UNBOUND:                -1.051
REMARK  Name = 
REMARK  5 active torsions:
REMARK  status: ('A' for Active; 'I' for Inactive)
REMARK    1  A    between atoms: C_2  and  C_3
REMARK    2  A    between atoms: C_6  and  O_7
REMARK    3  A    between atoms: O_7  and  C_8
REMARK    4  A    between atoms: C_8  and  C_9
REMARK    5  A    between atoms: C_13  and  C_14
REMARK                            x       y       z     vdW  Elec       q    Type
REMARK                         _______ _______ _______ _____ _____    ______ ____
ROOT
ATOM      1  C   UNL     1      47.055   7.502  13.313  0.00  0.00    +0.000 A 
ATOM      2  C   UNL     1      46.365   8.700  13.102  0.00  0.00    +0.000 A 
ATOM      3  C   UNL     1      45.305   8.746  12.201  0.00  0.00    +0.000 A 
ATOM      4  C   UNL     1      44.927   7.596  11.504  0.00  0.00    +0.000 A 
ATOM      5  C   UNL     1      45.596   6.372  11.684  0.00  0.00    +0.000 A 
ATOM      6  C   UNL     1      46.649   6.348  12.620  0.00  0.00    +0.000 A 
ENDROOT
BRANCH   5   7
ATOM      7  C   UNL     1      45.235   5.172  10.889  0.00  0.00    +0.000 A 
ATOM      8  C   UNL     1      44.587   4.061  11.470  0.00  0.00    +0.000 A 
ATOM      9  C   UNL     1      44.260   2.927  10.716  0.00  0.00    +0.000 A 
ATOM     10  C   UNL     1      44.566   2.890   9.363  0.00  0.00    +0.000 A 
ATOM     11  F   UNL     1      44.241   1.811   8.640  0.00  0.00    +0.000 F 
ATOM     12  C   UNL     1      45.205   3.967   8.767  0.00  0.00    +0.000 A 
ATOM     13  F   UNL     1      45.504   3.937   7.461  0.00  0.00    +0.000 F 
ATOM     14  C   UNL     1      45.545   5.090   9.518  0.00  0.00    +0.000 A 
ENDBRANCH   5   7
BRANCH   1  15
ATOM     15  C   UNL     1      48.247   7.455  14.240  0.00  0.00    +0.000 C 
BRANCH  15  16
ATOM     16  O   UNL     1      48.546   6.103  14.586  0.00  0.00    +0.000 OA
BRANCH  16  20
ATOM     17  C   UNL     1      48.583   5.057  18.631  0.00  0.00    +0.000 A 
ATOM     18  C   UNL     1      49.382   6.125  18.212  0.00  0.00    +0.000 A 
ATOM     19  C   UNL     1      49.397   6.507  16.864  0.00  0.00    +0.000 A 
ATOM     20  C   UNL     1      48.622   5.825  15.926  0.00  0.00    +0.000 A 
ATOM     21  C   UNL     1      47.829   4.752  16.352  0.00  0.00    +0.000 A 
ATOM     22  C   UNL     1      47.809   4.368  17.696  0.00  0.00    +0.000 A 
BRANCH  17  24
ATOM     23  N   UNL     1      48.553   4.370  21.133  0.00  0.00    +0.000 NA
ATOM     24  C   UNL     1      48.563   4.674  20.013  0.00  0.00    +0.000 C 
ENDBRANCH  17  24
ENDBRANCH  16  20
ENDBRANCH  15  16
ENDBRANCH   1  15
TORSDOF 5
ENDMDL
MODEL 8
REMARK VINA RESULT:    -6.464      2.224      3.487
REMARK INTER + INTRA:          -9.405
REMARK INTER:                  -8.539
REMARK INTRA:                  -0.866
REMARK UNBOUND:                -1.051
REMARK  Name = 
REMARK  5 active torsions:
REMARK  status: ('A' for Active; 'I' for Inactive)
REMARK    1  A    between atoms: C_2  and  C_3
REMARK    2  A    between atoms: C_6  and  O_7
REMARK    3  A    between atoms: O_7  and  C_8
REMARK    4  A    between atoms: C_8  and  C_9
REMARK    5  A    between atoms: C_13  and  C_14
REMARK                            x       y       z     vdW  Elec       q    Type
REMARK                         _______ _______ _______ _____ _____    ______ ____
ROOT
ATOM      1  C   UNL     1      45.562   6.762  11.947  0.00  0.00    +0.000 A 
ATOM      2  C   UNL     1      44.797   7.933  11.940  0.00  0.00    +0.000 A 
ATOM      3  C   UNL     1      45.421   9.174  12.035  0.00  0.00    +0.000 A 
ATOM      4  C   UNL     1      46.811   9.254  12.140  0.00  0.00    +0.000 A 
ATOM      5  C   UNL     1      47.617   8.101  12.155  0.00  0.00    +0.000 A 
ATOM      6  C   UNL     1      46.962   6.860  12.031  0.00  0.00    +0.000 A 
ENDROOT
BRANCH   5   7
ATOM      7  C   UNL     1      49.087   8.190  12.336  0.00  0.00    +0.000 A 
ATOM      8  C   UNL     1      49.670   8.397  13.605  0.00  0.00    +0.000 A 
ATOM      9  C   UNL     1      51.058   8.493  13.766  0.00  0.00    +0.000 A 
ATOM     10  C   UNL     1      51.887   8.372  12.661  0.00  0.00    +0.000 A 
ATOM     11  F   UNL     1      53.215   8.450  12.817  0.00  0.00    +0.000 F 
ATOM     12  C   UNL     1      51.342   8.171  11.402  0.00  0.00    +0.000 A 
ATOM     13  F   UNL     1      52.138   8.054  10.331  0.00  0.00    +0.000 F 
ATOM     14  C   UNL     1      49.960   8.090  11.236  0.00  0.00    +0.000 A 
ENDBRANCH   5   7
BRANCH   1  15
ATOM     15  C   UNL     1      44.893   5.408  11.908  0.00  0.00    +0.000 C 
BRANCH  15  16
ATOM     16  O   UNL     1      44.245   5.216  10.651  0.00  0.00    +0.000 OA
BRANCH  16  20
ATOM     17  C   UNL     1      46.117   2.522   8.065  0.00  0.00    +0.000 A 
ATOM     18  C   UNL     1      46.311   3.891   7.856  0.00  0.00    +0.000 A 
ATOM     19  C   UNL     1      45.701   4.826   8.701  0.00  0.00    +0.000 A 
ATOM     20  C   UNL     1      44.890   4.405   9.755  0.00  0.00    +0.000 A 
ATOM     21  C   UNL     1      44.695   3.032   9.955  0.00  0.00    +0.000 A 
ATOM     22  C   UNL     1      45.303   2.095   9.115  0.00  0.00    +0.000 A 
BRANCH  17  24
ATOM     23  N   UNL     1      47.271   0.796   6.509  0.00  0.00    +0.000 NA
ATOM     24  C   UNL     1      46.751   1.566   7.202  0.00  0.00    +0.000 C 
ENDBRANCH  17  24
ENDBRANCH  16  20
ENDBRANCH  15  16
ENDBRANCH   1  15
TORSDOF 5
ENDMDL
MODEL 9
REMARK VINA RESULT:    -6.177      5.701      8.157
REMARK INTER + INTRA:          -9.034
REMARK INTER:                  -8.218
REMARK INTRA:                  -0.816
REMARK UNBOUND:                -1.051
REMARK  Name = 
REMARK  5 active torsions:
REMARK  status: ('A' for Active; 'I' for Inactive)
REMARK    1  A    between atoms: C_2  and  C_3
REMARK    2  A    between atoms: C_6  and  O_7
REMARK    3  A    between atoms: O_7  and  C_8
REMARK    4  A    between atoms: C_8  and  C_9
REMARK    5  A    between atoms: C_13  and  C_14
REMARK                            x       y       z     vdW  Elec       q    Type
REMARK                         _______ _______ _______ _____ _____    ______ ____
ROOT
ATOM      1  C   UNL     1      47.951   4.996  15.902  0.00  0.00    +0.000 A 
ATOM      2  C   UNL     1      48.677   6.191  15.887  0.00  0.00    +0.000 A 
ATOM      3  C   UNL     1      48.570   7.059  14.804  0.00  0.00    +0.000 A 
ATOM      4  C   UNL     1      47.739   6.739  13.728  0.00  0.00    +0.000 A 
ATOM      5  C   UNL     1      46.994   5.546  13.702  0.00  0.00    +0.000 A 
ATOM      6  C   UNL     1      47.101   4.698  14.822  0.00  0.00    +0.000 A 
ENDROOT
BRANCH   5   7
ATOM      7  C   UNL     1      46.166   5.179  12.526  0.00  0.00    +0.000 A 
ATOM      8  C   UNL     1      46.180   5.942  11.338  0.00  0.00    +0.000 A 
ATOM      9  C   UNL     1      45.387   5.597  10.237  0.00  0.00    +0.000 A 
ATOM     10  C   UNL     1      44.574   4.475  10.302  0.00  0.00    +0.000 A 
ATOM     11  F   UNL     1      43.825   4.137   9.243  0.00  0.00    +0.000 F 
ATOM     12  C   UNL     1      44.538   3.709  11.456  0.00  0.00    +0.000 A 
ATOM     13  F   UNL     1      43.755   2.624  11.525  0.00  0.00    +0.000 F 
ATOM     14  C   UNL     1      45.315   4.057  12.560  0.00  0.00    +0.000 A 
ENDBRANCH   5   7
BRANCH   1  15
ATOM     15  C   UNL     1      48.107   4.017  17.042  0.00  0.00    +0.000 C 
BRANCH  15  16
ATOM     16  O   UNL     1      49.211   4.394  17.865  0.00  0.00    +0.000 OA
BRANCH  16  20
ATOM     17  C   UNL     1      52.387   1.690  17.629  0.00  0.00    +0.000 A 
ATOM     18  C   UNL     1      52.641   2.975  18.119  0.00  0.00    +0.000 A 
ATOM     19  C   UNL     1      51.603   3.910  18.213  0.00  0.00    +0.000 A 
ATOM     20  C   UNL     1      50.308   3.574  17.817  0.00  0.00    +0.000 A 
ATOM     21  C   UNL     1      50.063   2.286  17.322  0.00  0.00    +0.000 A 
ATOM     22  C   UNL     1      51.095   1.349  17.227  0.00  0.00    +0.000 A 
BRANCH  17  24
ATOM     23  N   UNL     1      54.306  -0.051  17.475  0.00  0.00    +0.000 NA
ATOM     24  C   UNL     1      53.451   0.731  17.543  0.00  0.00    +0.000 C 
ENDBRANCH  17  24
ENDBRANCH  16  20
ENDBRANCH  15  16
ENDBRANCH   1  15
TORSDOF 5
ENDMDL
