MODEL 1
REMARK VINA RESULT:    -7.464      0.000      0.000
REMARK INTER + INTRA:         -10.211
REMARK INTER:                  -9.646
REMARK INTRA:                  -0.565
REMARK UNBOUND:                -0.565
REMARK  Name = 
REMARK  6 active torsions:
REMARK  status: ('A' for Active; 'I' for Inactive)
REMARK    1  A    between atoms: C_1  and  C_2
REMARK    2  A    between atoms: C_2  and  C_3
REMARK    3  A    between atoms: C_2  and  C_14
REMARK    4  A    between atoms: C_3  and  N_4
REMARK    5  A    between atoms: N_4  and  C_5
REMARK    6  A    between atoms: C_8  and  C_9
REMARK                            x       y       z     vdW  Elec       q    Type
REMARK                         _______ _______ _______ _____ _____    ______ ____
ROOT
ATOM      1  N   UNL     1      43.736   3.509  10.435  0.00  0.00    +0.000 N 
ATOM      2  H   UNL     1      42.770   3.263  10.229  0.00  0.00    +0.000 HD
ENDROOT
BRANCH   1   3
ATOM      3  C   UNL     1      44.617   3.179   9.405  0.00  0.00    +0.000 A 
ATOM      4  C   UNL     1      45.208   1.937   9.212  0.00  0.00    +0.000 A 
ATOM      5  N   UNL     1      46.113   1.639   8.251  0.00  0.00    +0.000 NA
ATOM      6  C   UNL     1      46.471   2.674   7.456  0.00  0.00    +0.000 A 
ATOM      7  N   UNL     1      46.004   3.931   7.551  0.00  0.00    +0.000 NA
ATOM      8  C   UNL     1      45.100   4.145   8.534  0.00  0.00    +0.000 A 
BRANCH   6   9
ATOM      9  C   UNL     1      47.488   2.371   6.379  0.00  0.00    +0.000 C 
ATOM     10  N   UNL     1      47.388   3.135   5.237  0.00  0.00    +0.000 N 
ATOM     11  O   UNL     1      48.356   1.514   6.474  0.00  0.00    +0.000 OA
ATOM     12  H   UNL     1      46.662   3.837   5.156  0.00  0.00    +0.000 HD
ATOM     13  H   UNL     1      48.033   2.970   4.478  0.00  0.00    +0.000 HD
ENDBRANCH   6   9
ENDBRANCH   1   3
BRANCH   1  14
ATOM     14  C   UNL     1      44.123   3.279  11.819  0.00  0.00    +0.000 C 
BRANCH  14  16
ATOM     15  C   UNL     1      42.893   5.339  12.784  0.00  0.00    +0.000 C 
ATOM     16  C   UNL     1      44.170   4.587  12.556  0.00  0.00    +0.000 C 
BRANCH  16  17
ATOM     17  C   UNL     1      45.454   5.316  12.606  0.00  0.00    +0.000 A 
ATOM     18  C   UNL     1      45.794   6.228  11.596  0.00  0.00    +0.000 A 
ATOM     19  C   UNL     1      47.004   6.927  11.642  0.00  0.00    +0.000 A 
ATOM     20  C   UNL     1      47.889   6.727  12.698  0.00  0.00    +0.000 A 
ATOM     21  C   UNL     1      47.566   5.827  13.709  0.00  0.00    +0.000 A 
ATOM     22  C   UNL     1      46.359   5.124  13.661  0.00  0.00    +0.000 A 
ENDBRANCH  16  17
ENDBRANCH  14  16
ENDBRANCH   1  14
TORSDOF 5
ENDMDL
MODEL 2
REMARK VINA RESULT:    -7.333      3.476      6.609
REMARK INTER + INTRA:         -10.041
REMARK INTER:                  -9.640
REMARK INTRA:                  -0.401
REMARK UNBOUND:                -0.565
REMARK  Name = 
REMARK  6 active torsions:
REMARK  status: ('A' for Active; 'I' for Inactive)
REMARK    1  A    between atoms: C_1  and  C_2
REMARK    2  A    between atoms: C_2  and  C_3
REMARK    3  A    between atoms: C_2  and  C_14
REMARK    4  A    between atoms: C_3  and  N_4
REMARK    5  A    between atoms: N_4  and  C_5
REMARK    6  A    between atoms: C_8  and  C_9
REMARK                            x       y       z     vdW  Elec       q    Type
REMARK                         _______ _______ _______ _____ _____    ______ ____
ROOT
ATOM      1  N   UNL     1      45.383   6.001  10.946  0.00  0.00    +0.000 N 
ATOM      2  H   UNL     1      45.108   6.981  10.934  0.00  0.00    +0.000 HD
ENDROOT
BRANCH   1   3
ATOM      3  C   UNL     1      45.910   5.595  12.173  0.00  0.00    +0.000 A 
ATOM      4  C   UNL     1      47.165   5.933  12.665  0.00  0.00    +0.000 A 
ATOM      5  N   UNL     1      47.699   5.484  13.825  0.00  0.00    +0.000 NA
ATOM      6  C   UNL     1      46.930   4.609  14.513  0.00  0.00    +0.000 A 
ATOM      7  N   UNL     1      45.714   4.173  14.138  0.00  0.00    +0.000 NA
ATOM      8  C   UNL     1      45.250   4.673  12.971  0.00  0.00    +0.000 A 
BRANCH   6   9
ATOM      9  C   UNL     1      47.507   4.084  15.808  0.00  0.00    +0.000 C 
ATOM     10  N   UNL     1      47.194   4.813  16.935  0.00  0.00    +0.000 N 
ATOM     11  O   UNL     1      48.209   3.086  15.894  0.00  0.00    +0.000 OA
ATOM     12  H   UNL     1      46.621   5.645  16.861  0.00  0.00    +0.000 HD
ATOM     13  H   UNL     1      47.561   4.517  17.828  0.00  0.00    +0.000 HD
ENDBRANCH   6   9
ENDBRANCH   1   3
BRANCH   1  14
ATOM     14  C   UNL     1      45.995   5.542   9.708  0.00  0.00    +0.000 C 
BRANCH  14  16
ATOM     15  C   UNL     1      43.799   4.176   9.673  0.00  0.00    +0.000 C 
ATOM     16  C   UNL     1      45.160   4.450   9.105  0.00  0.00    +0.000 C 
BRANCH  16  17
ATOM     17  C   UNL     1      45.844   3.391   8.334  0.00  0.00    +0.000 A 
ATOM     18  C   UNL     1      46.654   3.720   7.237  0.00  0.00    +0.000 A 
ATOM     19  C   UNL     1      47.311   2.723   6.509  0.00  0.00    +0.000 A 
ATOM     20  C   UNL     1      47.168   1.385   6.867  0.00  0.00    +0.000 A 
ATOM     21  C   UNL     1      46.370   1.042   7.953  0.00  0.00    +0.000 A 
ATOM     22  C   UNL     1      45.709   2.038   8.679  0.00  0.00    +0.000 A 
ENDBRANCH  16  17
ENDBRANCH  14  16
ENDBRANCH   1  14
TORSDOF 5
ENDMDL
MODEL 3
REMARK VINA RESULT:    -7.192      3.269      6.589
REMARK INTER + INTRA:          -9.860
REMARK INTER:                  -9.601
REMARK INTRA:                  -0.259
REMARK UNBOUND:                -0.565
REMARK  Name = 
REMARK  6 active torsions:
REMARK  status: ('A' for Active; 'I' for Inactive)
REMARK    1  A    between atoms: C_1  and  C_2
REMARK    2  A    between atoms: C_2  and  C_3
REMARK    3  A    between atoms: C_2  and  C_14
REMARK    4  A    between atoms: C_3  and  N_4
REMARK    5  A    between atoms: N_4  and  C_5
REMARK    6  A    between atoms: C_8  and  C_9
REMARK                            x       y       z     vdW  Elec       q    Type
REMARK                         _______ _______ _______ _____ _____    ______ ____
ROOT
ATOM      1  N   UNL     1      44.286   4.532  10.722  0.00  0.00    +0.000 N 
ATOM      2  H   UNL     1      43.494   5.164  10.819  0.00  0.00    +0.000 HD
ENDROOT
BRANCH   1   3
ATOM      3  C   UNL     1      45.115   4.516  11.844  0.00  0.00    +0.000 A 
ATOM      4  C   UNL     1      45.573   3.378  12.496  0.00  0.00    +0.000 A 
ATOM      5  N   UNL     1      46.322   3.368  13.623  0.00  0.00    +0.000 NA
ATOM      6  C   UNL     1      46.596   4.586  14.144  0.00  0.00    +0.000 A 
ATOM      7  N   UNL     1      46.192   5.764  13.635  0.00  0.00    +0.000 NA
ATOM      8  C   UNL     1      45.452   5.687  12.506  0.00  0.00    +0.000 A 
BRANCH   6   9
ATOM      9  C   UNL     1      47.424   4.603  15.409  0.00  0.00    +0.000 C 
ATOM     10  N   UNL     1      47.073   3.670  16.360  0.00  0.00    +0.000 N 
ATOM     11  O   UNL     1      48.350   5.376  15.615  0.00  0.00    +0.000 OA
ATOM     12  H   UNL     1      46.301   3.038  16.192  0.00  0.00    +0.000 HD
ATOM     13  H   UNL     1      47.583   3.642  17.231  0.00  0.00    +0.000 HD
ENDBRANCH   6   9
ENDBRANCH   1   3
BRANCH   1  14
ATOM     14  C   UNL     1      44.871   4.517   9.390  0.00  0.00    +0.000 C 
BRANCH  14  16
ATOM     15  C   UNL     1      44.146   2.046   9.618  0.00  0.00    +0.000 C 
ATOM     16  C   UNL     1      44.843   3.121   8.839  0.00  0.00    +0.000 C 
BRANCH  16  17
ATOM     17  C   UNL     1      45.868   2.740   7.845  0.00  0.00    +0.000 A 
ATOM     18  C   UNL     1      46.517   1.500   7.932  0.00  0.00    +0.000 A 
ATOM     19  C   UNL     1      47.482   1.130   6.990  0.00  0.00    +0.000 A 
ATOM     20  C   UNL     1      47.810   1.993   5.948  0.00  0.00    +0.000 A 
ATOM     21  C   UNL     1      47.174   3.227   5.846  0.00  0.00    +0.000 A 
ATOM     22  C   UNL     1      46.213   3.599   6.791  0.00  0.00    +0.000 A 
ENDBRANCH  16  17
ENDBRANCH  14  16
ENDBRANCH   1  14
TORSDOF 5
ENDMDL
MODEL 4
REMARK VINA RESULT:    -7.124      1.311      2.034
REMARK INTER + INTRA:          -9.771
REMARK INTER:                  -9.201
REMARK INTRA:                  -0.570
REMARK UNBOUND:                -0.565
REMARK  Name = 
REMARK  6 active torsions:
REMARK  status: ('A' for Active; 'I' for Inactive)
REMARK    1  A    between atoms: C_1  and  C_2
REMARK    2  A    between atoms: C_2  and  C_3
REMARK    3  A    between atoms: C_2  and  C_14
REMARK    4  A    between atoms: C_3  and  N_4
REMARK    5  A    between atoms: N_4  and  C_5
REMARK    6  A    between atoms: C_8  and  C_9
REMARK                            x       y       z     vdW  Elec       q    Type
REMARK                         _______ _______ _______ _____ _____    ______ ____
ROOT
ATOM      1  N   UNL     1      43.851   4.977   9.909  0.00  0.00    +0.000 N 
ATOM      2  H   UNL     1      42.945   5.031   9.446  0.00  0.00    +0.000 HD
ENDROOT
BRANCH   1   3
ATOM      3  C   UNL     1      44.763   4.164   9.236  0.00  0.00    +0.000 A 
ATOM      4  C   UNL     1      45.731   4.602   8.341  0.00  0.00    +0.000 A 
ATOM      5  N   UNL     1      46.569   3.804   7.640  0.00  0.00    +0.000 NA
ATOM      6  C   UNL     1      46.394   2.476   7.828  0.00  0.00    +0.000 A 
ATOM      7  N   UNL     1      45.477   1.915   8.637  0.00  0.00    +0.000 NA
ATOM      8  C   UNL     1      44.682   2.781   9.305  0.00  0.00    +0.000 A 
BRANCH   6   9
ATOM      9  C   UNL     1      47.311   1.561   7.049  0.00  0.00    +0.000 C 
ATOM     10  N   UNL     1      48.384   2.176   6.440  0.00  0.00    +0.000 N 
ATOM     11  O   UNL     1      47.149   0.353   6.941  0.00  0.00    +0.000 OA
ATOM     12  H   UNL     1      48.511   3.177   6.522  0.00  0.00    +0.000 HD
ATOM     13  H   UNL     1      49.025   1.617   5.896  0.00  0.00    +0.000 HD
ENDBRANCH   6   9
ENDBRANCH   1   3
BRANCH   1  14
ATOM     14  C   UNL     1      43.770   4.926  11.361  0.00  0.00    +0.000 C 
BRANCH  14  16
ATOM     15  C   UNL     1      45.664   3.983  12.849  0.00  0.00    +0.000 C 
ATOM     16  C   UNL     1      45.144   5.066  11.950  0.00  0.00    +0.000 C 
BRANCH  16  17
ATOM     17  C   UNL     1      45.735   6.417  12.036  0.00  0.00    +0.000 A 
ATOM     18  C   UNL     1      44.945   7.517  12.400  0.00  0.00    +0.000 A 
ATOM     19  C   UNL     1      45.499   8.798  12.491  0.00  0.00    +0.000 A 
ATOM     20  C   UNL     1      46.851   8.996  12.221  0.00  0.00    +0.000 A 
ATOM     21  C   UNL     1      47.649   7.915  11.860  0.00  0.00    +0.000 A 
ATOM     22  C   UNL     1      47.094   6.635  11.765  0.00  0.00    +0.000 A 
ENDBRANCH  16  17
ENDBRANCH  14  16
ENDBRANCH   1  14
TORSDOF 5
ENDMDL
MODEL 5
REMARK VINA RESULT:    -7.077      3.140      6.478
REMARK INTER + INTRA:          -9.711
REMARK INTER:                  -9.245
REMARK INTRA:                  -0.465
REMARK UNBOUND:                -0.565
REMARK  Name = 
REMARK  6 active torsions:
REMARK  status: ('A' for Active; 'I' for Inactive)
REMARK    1  A    between atoms: C_1  and  C_2
REMARK    2  A    between atoms: C_2  and  C_3
REMARK    3  A    between atoms: C_2  and  C_14
REMARK    4  A    between atoms: C_3  and  N_4
REMARK    5  A    between atoms: N_4  and  C_5
REMARK    6  A    between atoms: C_8  and  C_9
REMARK                            x       y       z     vdW  Elec       q    Type
REMARK                         _______ _______ _______ _____ _____    ______ ____
ROOT
ATOM      1  N   UNL     1      44.003   4.509  10.689  0.00  0.00    +0.000 N 
ATOM      2  H   UNL     1      43.087   4.931  10.829  0.00  0.00    +0.000 HD
ENDROOT
BRANCH   1   3
ATOM      3  C   UNL     1      44.937   4.899  11.649  0.00  0.00    +0.000 A 
ATOM      4  C   UNL     1      45.941   5.842  11.466  0.00  0.00    +0.000 A 
ATOM      5  N   UNL     1      46.886   6.169  12.378  0.00  0.00    +0.000 NA
ATOM      6  C   UNL     1      46.835   5.472  13.536  0.00  0.00    +0.000 A 
ATOM      7  N   UNL     1      45.940   4.513  13.833  0.00  0.00    +0.000 NA
ATOM      8  C   UNL     1      45.027   4.249  12.871  0.00  0.00    +0.000 A 
BRANCH   6   9
ATOM      9  C   UNL     1      47.886   5.810  14.569  0.00  0.00    +0.000 C 
ATOM     10  N   UNL     1      47.622   5.372  15.849  0.00  0.00    +0.000 N 
ATOM     11  O   UNL     1      48.913   6.430  14.328  0.00  0.00    +0.000 OA
ATOM     12  H   UNL     1      46.767   4.869  16.048  0.00  0.00    +0.000 HD
ATOM     13  H   UNL     1      48.283   5.580  16.584  0.00  0.00    +0.000 HD
ENDBRANCH   6   9
ENDBRANCH   1   3
BRANCH   1  14
ATOM     14  C   UNL     1      44.400   4.408   9.293  0.00  0.00    +0.000 C 
BRANCH  14  16
ATOM     15  C   UNL     1      44.162   1.900   9.875  0.00  0.00    +0.000 C 
ATOM     16  C   UNL     1      44.637   2.968   8.937  0.00  0.00    +0.000 C 
BRANCH  16  17
ATOM     17  C   UNL     1      45.712   2.654   7.973  0.00  0.00    +0.000 A 
ATOM     18  C   UNL     1      46.405   1.437   8.052  0.00  0.00    +0.000 A 
ATOM     19  C   UNL     1      47.417   1.130   7.137  0.00  0.00    +0.000 A 
ATOM     20  C   UNL     1      47.750   2.033   6.131  0.00  0.00    +0.000 A 
ATOM     21  C   UNL     1      47.070   3.244   6.038  0.00  0.00    +0.000 A 
ATOM     22  C   UNL     1      46.062   3.554   6.955  0.00  0.00    +0.000 A 
ENDBRANCH  16  17
ENDBRANCH  14  16
ENDBRANCH   1  14
TORSDOF 5
ENDMDL
MODEL 6
REMARK VINA RESULT:    -6.711      3.699      6.057
REMARK INTER + INTRA:          -9.238
REMARK INTER:                  -8.653
REMARK INTRA:                  -0.585
REMARK UNBOUND:                -0.565
REMARK  Name = 
REMARK  6 active torsions:
REMARK  status: ('A' for Active; 'I' for Inactive)
REMARK    1  A    between atoms: C_1  and  C_2
REMARK    2  A    between atoms: C_2  and  C_3
REMARK    3  A    between atoms: C_2  and  C_14
REMARK    4  A    between atoms: C_3  and  N_4
REMARK    5  A    between atoms: N_4  and  C_5
REMARK    6  A    between atoms: C_8  and  C_9
REMARK                            x       y       z     vdW  Elec       q    Type
REMARK                         _______ _______ _______ _____ _____    ______ ____
ROOT
ATOM      1  N   UNL     1      44.006   5.227  12.548  0.00  0.00    +0.000 N 
ATOM      2  H   UNL     1      43.306   5.660  13.147  0.00  0.00    +0.000 HD
ENDROOT
BRANCH   1   3
ATOM      3  C   UNL     1      45.310   5.615  12.860  0.00  0.00    +0.000 A 
ATOM      4  C   UNL     1      46.248   4.835  13.525  0.00  0.00    +0.000 A 
ATOM      5  N   UNL     1      47.489   5.239  13.885  0.00  0.00    +0.000 NA
ATOM      6  C   UNL     1      47.787   6.524  13.584  0.00  0.00    +0.000 A 
ATOM      7  N   UNL     1      46.965   7.395  12.973  0.00  0.00    +0.000 NA
ATOM      8  C   UNL     1      45.746   6.913  12.642  0.00  0.00    +0.000 A 
BRANCH   6   9
ATOM      9  C   UNL     1      49.164   7.003  13.984  0.00  0.00    +0.000 C 
ATOM     10  N   UNL     1      49.770   7.869  13.099  0.00  0.00    +0.000 N 
ATOM     11  O   UNL     1      49.738   6.669  15.011  0.00  0.00    +0.000 OA
ATOM     12  H   UNL     1      49.298   8.137  12.245  0.00  0.00    +0.000 HD
ATOM     13  H   UNL     1      50.696   8.214  13.307  0.00  0.00    +0.000 HD
ENDBRANCH   6   9
ENDBRANCH   1   3
BRANCH   1  14
ATOM     14  C   UNL     1      43.600   5.109  11.155  0.00  0.00    +0.000 C 
BRANCH  14  16
ATOM     15  C   UNL     1      43.362   2.579  11.635  0.00  0.00    +0.000 C 
ATOM     16  C   UNL     1      43.754   3.686  10.702  0.00  0.00    +0.000 C 
BRANCH  16  17
ATOM     17  C   UNL     1      44.698   3.399   9.603  0.00  0.00    +0.000 A 
ATOM     18  C   UNL     1      45.039   2.077   9.283  0.00  0.00    +0.000 A 
ATOM     19  C   UNL     1      45.926   1.799   8.239  0.00  0.00    +0.000 A 
ATOM     20  C   UNL     1      46.484   2.838   7.499  0.00  0.00    +0.000 A 
ATOM     21  C   UNL     1      46.155   4.156   7.801  0.00  0.00    +0.000 A 
ATOM     22  C   UNL     1      45.272   4.434   8.849  0.00  0.00    +0.000 A 
ENDBRANCH  16  17
ENDBRANCH  14  16
ENDBRANCH   1  14
TORSDOF 5
ENDMDL
MODEL 7
REMARK VINA RESULT:    -6.597      4.048      6.631
REMARK INTER + INTRA:          -9.091
REMARK INTER:                  -8.567
REMARK INTRA:                  -0.524
REMARK UNBOUND:                -0.565
REMARK  Name = 
REMARK  6 active torsions:
REMARK  status: ('A' for Active; 'I' for Inactive)
REMARK    1  A    between atoms: C_1  and  C_2
REMARK    2  A    between atoms: C_2  and  C_3
REMARK    3  A    between atoms: C_2  and  C_14
REMARK    4  A    between atoms: C_3  and  N_4
REMARK    5  A    between atoms: N_4  and  C_5
REMARK    6  A    between atoms: C_8  and  C_9
REMARK                            x       y       z     vdW  Elec       q    Type
REMARK                         _______ _______ _______ _____ _____    ______ ____
ROOT
ATOM      1  N   UNL     1      46.611   6.591  12.905  0.00  0.00    +0.000 N 
ATOM      2  H   UNL     1      46.826   7.526  13.248  0.00  0.00    +0.000 HD
ENDROOT
BRANCH   1   3
ATOM      3  C   UNL     1      47.096   5.579  13.735  0.00  0.00    +0.000 A 
ATOM      4  C   UNL     1      46.844   4.221  13.587  0.00  0.00    +0.000 A 
ATOM      5  N   UNL     1      47.261   3.250  14.432  0.00  0.00    +0.000 NA
ATOM      6  C   UNL     1      47.947   3.683  15.515  0.00  0.00    +0.000 A 
ATOM      7  N   UNL     1      48.234   4.966  15.797  0.00  0.00    +0.000 NA
ATOM      8  C   UNL     1      47.786   5.874  14.901  0.00  0.00    +0.000 A 
BRANCH   6   9
ATOM      9  C   UNL     1      48.417   2.618  16.480  0.00  0.00    +0.000 C 
ATOM     10  N   UNL     1      47.883   2.690  17.748  0.00  0.00    +0.000 N 
ATOM     11  O   UNL     1      49.216   1.736  16.196  0.00  0.00    +0.000 OA
ATOM     12  H   UNL     1      47.229   3.427  17.984  0.00  0.00    +0.000 HD
ATOM     13  H   UNL     1      48.169   2.013  18.440  0.00  0.00    +0.000 HD
ENDBRANCH   6   9
ENDBRANCH   1   3
BRANCH   1  14
ATOM     14  C   UNL     1      46.714   6.453  11.460  0.00  0.00    +0.000 C 
BRANCH  14  16
ATOM     15  C   UNL     1      44.154   6.821  11.486  0.00  0.00    +0.000 C 
ATOM     16  C   UNL     1      45.359   6.163  10.882  0.00  0.00    +0.000 C 
BRANCH  16  17
ATOM     17  C   UNL     1      45.184   4.924  10.096  0.00  0.00    +0.000 A 
ATOM     18  C   UNL     1      45.664   4.842   8.781  0.00  0.00    +0.000 A 
ATOM     19  C   UNL     1      45.509   3.670   8.034  0.00  0.00    +0.000 A 
ATOM     20  C   UNL     1      44.874   2.564   8.592  0.00  0.00    +0.000 A 
ATOM     21  C   UNL     1      44.393   2.628   9.896  0.00  0.00    +0.000 A 
ATOM     22  C   UNL     1      44.544   3.801  10.641  0.00  0.00    +0.000 A 
ENDBRANCH  16  17
ENDBRANCH  14  16
ENDBRANCH   1  14
TORSDOF 5
ENDMDL
MODEL 8
REMARK VINA RESULT:    -5.995      3.864      6.028
REMARK INTER + INTRA:          -8.313
REMARK INTER:                  -7.771
REMARK INTRA:                  -0.542
REMARK UNBOUND:                -0.565
REMARK  Name = 
REMARK  6 active torsions:
REMARK  status: ('A' for Active; 'I' for Inactive)
REMARK    1  A    between atoms: C_1  and  C_2
REMARK    2  A    between atoms: C_2  and  C_3
REMARK    3  A    between atoms: C_2  and  C_14
REMARK    4  A    between atoms: C_3  and  N_4
REMARK    5  A    between atoms: N_4  and  C_5
REMARK    6  A    between atoms: C_8  and  C_9
REMARK                            x       y       z     vdW  Elec       q    Type
REMARK                         _______ _______ _______ _____ _____    ______ ____
ROOT
ATOM      1  N   UNL     1      45.505   6.013  13.395  0.00  0.00    +0.000 N 
ATOM      2  H   UNL     1      44.810   6.744  13.257  0.00  0.00    +0.000 HD
ENDROOT
BRANCH   1   3
ATOM      3  C   UNL     1      46.805   6.432  13.109  0.00  0.00    +0.000 A 
ATOM      4  C   UNL     1      47.898   6.320  13.959  0.00  0.00    +0.000 A 
ATOM      5  N   UNL     1      49.141   6.787  13.704  0.00  0.00    +0.000 NA
ATOM      6  C   UNL     1      49.282   7.441  12.528  0.00  0.00    +0.000 A 
ATOM      7  N   UNL     1      48.304   7.649  11.627  0.00  0.00    +0.000 NA
ATOM      8  C   UNL     1      47.093   7.147  11.956  0.00  0.00    +0.000 A 
BRANCH   6   9
ATOM      9  C   UNL     1      50.659   7.982  12.221  0.00  0.00    +0.000 C 
ATOM     10  N   UNL     1      51.546   7.980  13.277  0.00  0.00    +0.000 N 
ATOM     11  O   UNL     1      51.006   8.404  11.126  0.00  0.00    +0.000 OA
ATOM     12  H   UNL     1      51.255   7.640  14.185  0.00  0.00    +0.000 HD
ATOM     13  H   UNL     1      52.478   8.340  13.135  0.00  0.00    +0.000 HD
ENDBRANCH   6   9
ENDBRANCH   1   3
BRANCH   1  14
ATOM     14  C   UNL     1      45.063   4.690  12.981  0.00  0.00    +0.000 C 
BRANCH  14  16
ATOM     15  C   UNL     1      42.714   5.096  11.979  0.00  0.00    +0.000 C 
ATOM     16  C   UNL     1      44.172   4.808  11.778  0.00  0.00    +0.000 C 
BRANCH  16  17
ATOM     17  C   UNL     1      44.614   4.181  10.515  0.00  0.00    +0.000 A 
ATOM     18  C   UNL     1      44.307   2.841  10.240  0.00  0.00    +0.000 A 
ATOM     19  C   UNL     1      44.715   2.245   9.043  0.00  0.00    +0.000 A 
ATOM     20  C   UNL     1      45.435   2.980   8.105  0.00  0.00    +0.000 A 
ATOM     21  C   UNL     1      45.746   4.311   8.361  0.00  0.00    +0.000 A 
ATOM     22  C   UNL     1      45.342   4.906   9.560  0.00  0.00    +0.000 A 
ENDBRANCH  16  17
ENDBRANCH  14  16
ENDBRANCH   1  14
TORSDOF 5
ENDMDL
MODEL 9
REMARK VINA RESULT:    -5.925      4.178      6.950
REMARK INTER + INTRA:          -8.222
REMARK INTER:                  -7.861
REMARK INTRA:                  -0.362
REMARK UNBOUND:                -0.565
REMARK  Name = 
REMARK  6 active torsions:
REMARK  status: ('A' for Active; 'I' for Inactive)
REMARK    1  A    between atoms: C_1  and  C_2
REMARK    2  A    between atoms: C_2  and  C_3
REMARK    3  A    between atoms: C_2  and  C_14
REMARK    4  A    between atoms: C_3  and  N_4
REMARK    5  A    between atoms: N_4  and  C_5
REMARK    6  A    between atoms: C_8  and  C_9
REMARK                            x       y       z     vdW  Elec       q    Type
REMARK                         _______ _______ _______ _____ _____    ______ ____
ROOT
ATOM      1  N   UNL     1      45.414   5.492  12.366  0.00  0.00    +0.000 N 
ATOM      2  H   UNL     1      44.487   5.661  12.752  0.00  0.00    +0.000 HD
ENDROOT
BRANCH   1   3
ATOM      3  C   UNL     1      46.443   5.924  13.204  0.00  0.00    +0.000 A 
ATOM      4  C   UNL     1      47.072   7.161  13.141  0.00  0.00    +0.000 A 
ATOM      5  N   UNL     1      48.114   7.550  13.912  0.00  0.00    +0.000 NA
ATOM      6  C   UNL     1      48.572   6.617  14.778  0.00  0.00    +0.000 A 
ATOM      7  N   UNL     1      48.078   5.374  14.920  0.00  0.00    +0.000 NA
ATOM      8  C   UNL     1      47.036   5.065  14.117  0.00  0.00    +0.000 A 
BRANCH   6   9
ATOM      9  C   UNL     1      49.742   7.023  15.645  0.00  0.00    +0.000 C 
ATOM     10  N   UNL     1      49.502   7.022  17.002  0.00  0.00    +0.000 N 
ATOM     11  O   UNL     1      50.842   7.340  15.213  0.00  0.00    +0.000 OA
ATOM     12  H   UNL     1      48.589   6.769  17.358  0.00  0.00    +0.000 HD
ATOM     13  H   UNL     1      50.243   7.296  17.631  0.00  0.00    +0.000 HD
ENDBRANCH   6   9
ENDBRANCH   1   3
BRANCH   1  14
ATOM     14  C   UNL     1      45.507   5.716  10.931  0.00  0.00    +0.000 C 
BRANCH  14  16
ATOM     15  C   UNL     1      43.381   4.248  10.824  0.00  0.00    +0.000 C 
ATOM     16  C   UNL     1      44.669   4.704  10.205  0.00  0.00    +0.000 C 
BRANCH  16  17
ATOM     17  C   UNL     1      45.323   3.850   9.193  0.00  0.00    +0.000 A 
ATOM     18  C   UNL     1      45.984   4.423   8.097  0.00  0.00    +0.000 A 
ATOM     19  C   UNL     1      46.613   3.619   7.140  0.00  0.00    +0.000 A 
ATOM     20  C   UNL     1      46.591   2.233   7.267  0.00  0.00    +0.000 A 
ATOM     21  C   UNL     1      45.942   1.648   8.350  0.00  0.00    +0.000 A 
ATOM     22  C   UNL     1      45.309   2.451   9.304  0.00  0.00    +0.000 A 
ENDBRANCH  16  17
ENDBRANCH  14  16
ENDBRANCH   1  14
TORSDOF 5
ENDMDL
