MODEL 1
REMARK VINA RESULT:    -7.769      0.000      0.000
REMARK INTER + INTRA:         -11.570
REMARK INTER:                 -10.494
REMARK INTRA:                  -1.076
REMARK UNBOUND:                -1.076
REMARK  Name = 
REMARK  7 active torsions:
REMARK  status: ('A' for Active; 'I' for Inactive)
REMARK    1  A    between atoms: C_1  and  C_2
REMARK    2  A    between atoms: C_2  and  C_3
REMARK    3  A    between atoms: C_7  and  C_8
REMARK    4  A    between atoms: C_8  and  C_9
REMARK    5  A    between atoms: C_9  and  N_10
REMARK    6  A    between atoms: N_10  and  C_11
REMARK    7  A    between atoms: C_14  and  C_15
REMARK                            x       y       z     vdW  Elec       q    Type
REMARK                         _______ _______ _______ _____ _____    ______ ____
ROOT
ATOM      1  C   UNL     1      43.142   4.617  11.091  0.00  0.00    +0.000 C 
ENDROOT
BRANCH   1   2
ATOM      2  N   UNL     1      43.781   5.032   9.832  0.00  0.00    +0.000 N 
ATOM      3  H   UNL     1      44.214   5.951   9.904  0.00  0.00    +0.000 HD
BRANCH   2   4
ATOM      4  C   UNL     1      44.646   4.097   9.233  0.00  0.00    +0.000 A 
ATOM      5  C   UNL     1      44.575   2.724   9.482  0.00  0.00    +0.000 A 
ATOM      6  C   UNL     1      45.424   1.830   8.830  0.00  0.00    +0.000 A 
ATOM      7  C   UNL     1      46.318   2.334   7.901  0.00  0.00    +0.000 A 
ATOM      8  N   UNL     1      46.400   3.650   7.572  0.00  0.00    +0.000 NA
ATOM      9  C   UNL     1      45.549   4.483   8.232  0.00  0.00    +0.000 A 
BRANCH   7  10
ATOM     10  C   UNL     1      47.250   1.394   7.198  0.00  0.00    +0.000 C 
ATOM     11  N   UNL     1      48.300   1.979   6.548  0.00  0.00    +0.000 N 
ATOM     12  O   UNL     1      47.092   0.177   7.206  0.00  0.00    +0.000 OA
ATOM     13  H   UNL     1      48.389   2.988   6.552  0.00  0.00    +0.000 HD
ATOM     14  H   UNL     1      48.956   1.405   6.042  0.00  0.00    +0.000 HD
ENDBRANCH   7  10
ENDBRANCH   2   4
ENDBRANCH   1   2
BRANCH   1  15
ATOM     15  C   UNL     1      43.505   5.548  12.255  0.00  0.00    +0.000 C 
BRANCH  15  20
ATOM     16  C   UNL     1      47.195   6.333  12.954  0.00  0.00    +0.000 A 
ATOM     17  C   UNL     1      47.592   5.112  13.532  0.00  0.00    +0.000 A 
ATOM     18  C   UNL     1      46.703   4.042  13.666  0.00  0.00    +0.000 A 
ATOM     19  C   UNL     1      45.388   4.170  13.231  0.00  0.00    +0.000 A 
ATOM     20  C   UNL     1      44.959   5.361  12.637  0.00  0.00    +0.000 A 
ATOM     21  C   UNL     1      45.872   6.424  12.489  0.00  0.00    +0.000 A 
BRANCH  16  23
ATOM     22  C   UNL     1      48.655   7.740  11.495  0.00  0.00    +0.000 C 
ATOM     23  C   UNL     1      48.178   7.519  12.943  0.00  0.00    +0.000 C 
ATOM     24  C   UNL     1      47.541   8.780  13.536  0.00  0.00    +0.000 C 
ATOM     25  C   UNL     1      47.967   8.781  14.997  0.00  0.00    +0.000 C 
ATOM     26  O   UNL     1      48.983   7.786  15.163  0.00  0.00    +0.000 OA
ATOM     27  C   UNL     1      49.409   7.394  13.854  0.00  0.00    +0.000 C 
ENDBRANCH  16  23
ENDBRANCH  15  20
ENDBRANCH   1  15
TORSDOF 6
ENDMDL
MODEL 2
REMARK VINA RESULT:    -7.553      2.442      3.576
REMARK INTER + INTRA:         -11.277
REMARK INTER:                 -10.534
REMARK INTRA:                  -0.744
REMARK UNBOUND:                -1.076
REMARK  Name = 
REMARK  7 active torsions:
REMARK  status: ('A' for Active; 'I' for Inactive)
REMARK    1  A    between atoms: C_1  and  C_2
REMARK    2  A    between atoms: C_2  and  C_3
REMARK    3  A    between atoms: C_7  and  C_8
REMARK    4  A    between atoms: C_8  and  C_9
REMARK    5  A    between atoms: C_9  and  N_10
REMARK    6  A    between atoms: N_10  and  C_11
REMARK    7  A    between atoms: C_14  and  C_15
REMARK                            x       y       z     vdW  Elec       q    Type
REMARK                         _______ _______ _______ _____ _____    ______ ____
ROOT
ATOM      1  C   UNL     1      44.852   4.945  11.713  0.00  0.00    +0.000 C 
ENDROOT
BRANCH   1   2
ATOM      2  N   UNL     1      44.136   4.223  10.650  0.00  0.00    +0.000 N 
ATOM      3  H   UNL     1      43.316   4.731  10.323  0.00  0.00    +0.000 HD
BRANCH   2   4
ATOM      4  C   UNL     1      44.918   3.756   9.577  0.00  0.00    +0.000 A 
ATOM      5  C   UNL     1      45.633   4.605   8.728  0.00  0.00    +0.000 A 
ATOM      6  C   UNL     1      46.431   4.093   7.705  0.00  0.00    +0.000 A 
ATOM      7  C   UNL     1      46.527   2.718   7.573  0.00  0.00    +0.000 A 
ATOM      8  N   UNL     1      45.903   1.837   8.400  0.00  0.00    +0.000 NA
ATOM      9  C   UNL     1      45.138   2.385   9.384  0.00  0.00    +0.000 A 
BRANCH   7  10
ATOM     10  C   UNL     1      47.368   2.146   6.473  0.00  0.00    +0.000 C 
ATOM     11  N   UNL     1      47.417   2.883   5.323  0.00  0.00    +0.000 N 
ATOM     12  O   UNL     1      47.980   1.089   6.589  0.00  0.00    +0.000 OA
ATOM     13  H   UNL     1      46.887   3.744   5.260  0.00  0.00    +0.000 HD
ATOM     14  H   UNL     1      47.952   2.548   4.538  0.00  0.00    +0.000 HD
ENDBRANCH   7  10
ENDBRANCH   2   4
ENDBRANCH   1   2
BRANCH   1  15
ATOM     15  C   UNL     1      45.652   3.995  12.615  0.00  0.00    +0.000 C 
BRANCH  15  20
ATOM     16  C   UNL     1      47.675   4.960  15.729  0.00  0.00    +0.000 A 
ATOM     17  C   UNL     1      48.310   6.122  15.249  0.00  0.00    +0.000 A 
ATOM     18  C   UNL     1      48.070   6.608  13.960  0.00  0.00    +0.000 A 
ATOM     19  C   UNL     1      47.193   5.938  13.114  0.00  0.00    +0.000 A 
ATOM     20  C   UNL     1      46.530   4.790  13.560  0.00  0.00    +0.000 A 
ATOM     21  C   UNL     1      46.765   4.323  14.869  0.00  0.00    +0.000 A 
BRANCH  16  23
ATOM     22  C   UNL     1      47.249   5.139  18.184  0.00  0.00    +0.000 C 
ATOM     23  C   UNL     1      48.067   4.399  17.108  0.00  0.00    +0.000 C 
ATOM     24  C   UNL     1      47.864   2.882  17.175  0.00  0.00    +0.000 C 
ATOM     25  C   UNL     1      49.226   2.291  16.840  0.00  0.00    +0.000 C 
ATOM     26  O   UNL     1      50.187   3.352  16.865  0.00  0.00    +0.000 OA
ATOM     27  C   UNL     1      49.556   4.481  17.480  0.00  0.00    +0.000 C 
ENDBRANCH  16  23
ENDBRANCH  15  20
ENDBRANCH   1  15
TORSDOF 6
ENDMDL
MODEL 3
REMARK VINA RESULT:    -7.276      1.487      2.166
REMARK INTER + INTRA:         -10.904
REMARK INTER:                 -10.026
REMARK INTRA:                  -0.877
REMARK UNBOUND:                -1.076
REMARK  Name = 
REMARK  7 active torsions:
REMARK  status: ('A' for Active; 'I' for Inactive)
REMARK    1  A    between atoms: C_1  and  C_2
REMARK    2  A    between atoms: C_2  and  C_3
REMARK    3  A    between atoms: C_7  and  C_8
REMARK    4  A    between atoms: C_8  and  C_9
REMARK    5  A    between atoms: C_9  and  N_10
REMARK    6  A    between atoms: N_10  and  C_11
REMARK    7  A    between atoms: C_14  and  C_15
REMARK                            x       y       z     vdW  Elec       q    Type
REMARK                         _______ _______ _______ _____ _____    ______ ____
ROOT
ATOM      1  C   UNL     1      44.154   5.181  11.255  0.00  0.00    +0.000 C 
ENDROOT
BRANCH   1   2
ATOM      2  N   UNL     1      43.717   4.800   9.903  0.00  0.00    +0.000 N 
ATOM      3  H   UNL     1      43.394   5.599   9.362  0.00  0.00    +0.000 HD
BRANCH   2   4
ATOM      4  C   UNL     1      44.605   3.998   9.164  0.00  0.00    +0.000 A 
ATOM      5  C   UNL     1      45.561   4.524   8.289  0.00  0.00    +0.000 A 
ATOM      6  C   UNL     1      46.451   3.691   7.611  0.00  0.00    +0.000 A 
ATOM      7  C   UNL     1      46.389   2.329   7.853  0.00  0.00    +0.000 A 
ATOM      8  N   UNL     1      45.522   1.759   8.732  0.00  0.00    +0.000 NA
ATOM      9  C   UNL     1      44.676   2.613   9.372  0.00  0.00    +0.000 A 
BRANCH   7  10
ATOM     10  C   UNL     1      47.326   1.414   7.126  0.00  0.00    +0.000 C 
ATOM     11  N   UNL     1      48.391   2.019   6.520  0.00  0.00    +0.000 N 
ATOM     12  O   UNL     1      47.160   0.199   7.077  0.00  0.00    +0.000 OA
ATOM     13  H   UNL     1      48.487   3.026   6.571  0.00  0.00    +0.000 HD
ATOM     14  H   UNL     1      49.052   1.463   6.001  0.00  0.00    +0.000 HD
ENDBRANCH   7  10
ENDBRANCH   2   4
ENDBRANCH   1   2
BRANCH   1  15
ATOM     15  C   UNL     1      44.882   6.532  11.264  0.00  0.00    +0.000 C 
BRANCH  15  20
ATOM     16  C   UNL     1      48.081   7.559  13.116  0.00  0.00    +0.000 A 
ATOM     17  C   UNL     1      48.191   6.480  14.016  0.00  0.00    +0.000 A 
ATOM     18  C   UNL     1      47.276   5.424  14.008  0.00  0.00    +0.000 A 
ATOM     19  C   UNL     1      46.219   5.424  13.103  0.00  0.00    +0.000 A 
ATOM     20  C   UNL     1      46.085   6.469  12.183  0.00  0.00    +0.000 A 
ATOM     21  C   UNL     1      47.028   7.516  12.188  0.00  0.00    +0.000 A 
BRANCH  16  23
ATOM     22  C   UNL     1      48.569   9.632  14.422  0.00  0.00    +0.000 C 
ATOM     23  C   UNL     1      49.043   8.754  13.248  0.00  0.00    +0.000 C 
ATOM     24  C   UNL     1      50.493   8.289  13.428  0.00  0.00    +0.000 C 
ATOM     25  C   UNL     1      51.084   8.306  12.025  0.00  0.00    +0.000 C 
ATOM     26  O   UNL     1      50.165   8.988  11.165  0.00  0.00    +0.000 OA
ATOM     27  C   UNL     1      49.205   9.641  12.004  0.00  0.00    +0.000 C 
ENDBRANCH  16  23
ENDBRANCH  15  20
ENDBRANCH   1  15
TORSDOF 6
ENDMDL
MODEL 4
REMARK VINA RESULT:    -7.238      1.319      2.042
REMARK INTER + INTRA:         -10.853
REMARK INTER:                  -9.904
REMARK INTRA:                  -0.949
REMARK UNBOUND:                -1.076
REMARK  Name = 
REMARK  7 active torsions:
REMARK  status: ('A' for Active; 'I' for Inactive)
REMARK    1  A    between atoms: C_1  and  C_2
REMARK    2  A    between atoms: C_2  and  C_3
REMARK    3  A    between atoms: C_7  and  C_8
REMARK    4  A    between atoms: C_8  and  C_9
REMARK    5  A    between atoms: C_9  and  N_10
REMARK    6  A    between atoms: N_10  and  C_11
REMARK    7  A    between atoms: C_14  and  C_15
REMARK                            x       y       z     vdW  Elec       q    Type
REMARK                         _______ _______ _______ _____ _____    ______ ____
ROOT
ATOM      1  C   UNL     1      43.683   4.257  11.107  0.00  0.00    +0.000 C 
ENDROOT
BRANCH   1   2
ATOM      2  N   UNL     1      43.790   2.943  10.453  0.00  0.00    +0.000 N 
ATOM      3  H   UNL     1      42.880   2.559  10.209  0.00  0.00    +0.000 HD
BRANCH   2   4
ATOM      4  C   UNL     1      44.695   2.854   9.378  0.00  0.00    +0.000 A 
ATOM      5  C   UNL     1      45.171   3.971   8.687  0.00  0.00    +0.000 A 
ATOM      6  C   UNL     1      46.103   3.836   7.657  0.00  0.00    +0.000 A 
ATOM      7  C   UNL     1      46.572   2.568   7.359  0.00  0.00    +0.000 A 
ATOM      8  N   UNL     1      46.192   1.448   8.029  0.00  0.00    +0.000 NA
ATOM      9  C   UNL     1      45.284   1.631   9.027  0.00  0.00    +0.000 A 
BRANCH   7  10
ATOM     10  C   UNL     1      47.562   2.398   6.248  0.00  0.00    +0.000 C 
ATOM     11  N   UNL     1      47.453   3.289   5.218  0.00  0.00    +0.000 N 
ATOM     12  O   UNL     1      48.422   1.523   6.256  0.00  0.00    +0.000 OA
ATOM     13  H   UNL     1      46.721   3.989   5.240  0.00  0.00    +0.000 HD
ATOM     14  H   UNL     1      48.078   3.222   4.430  0.00  0.00    +0.000 HD
ENDBRANCH   7  10
ENDBRANCH   2   4
ENDBRANCH   1   2
BRANCH   1  15
ATOM     15  C   UNL     1      44.760   4.452  12.183  0.00  0.00    +0.000 C 
BRANCH  15  20
ATOM     16  C   UNL     1      47.018   7.523  12.612  0.00  0.00    +0.000 A 
ATOM     17  C   UNL     1      46.187   8.510  12.046  0.00  0.00    +0.000 A 
ATOM     18  C   UNL     1      44.912   8.204  11.565  0.00  0.00    +0.000 A 
ATOM     19  C   UNL     1      44.436   6.898  11.630  0.00  0.00    +0.000 A 
ATOM     20  C   UNL     1      45.224   5.894  12.200  0.00  0.00    +0.000 A 
ATOM     21  C   UNL     1      46.500   6.220  12.701  0.00  0.00    +0.000 A 
BRANCH  16  23
ATOM     22  C   UNL     1      49.364   7.728  11.778  0.00  0.00    +0.000 C 
ATOM     23  C   UNL     1      48.459   7.889  13.014  0.00  0.00    +0.000 C 
ATOM     24  C   UNL     1      48.535   9.302  13.603  0.00  0.00    +0.000 C 
ATOM     25  C   UNL     1      48.445   9.103  15.109  0.00  0.00    +0.000 C 
ATOM     26  O   UNL     1      48.597   7.705  15.381  0.00  0.00    +0.000 OA
ATOM     27  C   UNL     1      49.067   7.089  14.177  0.00  0.00    +0.000 C 
ENDBRANCH  16  23
ENDBRANCH  15  20
ENDBRANCH   1  15
TORSDOF 6
ENDMDL
MODEL 5
REMARK VINA RESULT:    -6.567      5.274      8.161
REMARK INTER + INTRA:          -9.946
REMARK INTER:                  -9.320
REMARK INTRA:                  -0.626
REMARK UNBOUND:                -1.076
REMARK  Name = 
REMARK  7 active torsions:
REMARK  status: ('A' for Active; 'I' for Inactive)
REMARK    1  A    between atoms: C_1  and  C_2
REMARK    2  A    between atoms: C_2  and  C_3
REMARK    3  A    between atoms: C_7  and  C_8
REMARK    4  A    between atoms: C_8  and  C_9
REMARK    5  A    between atoms: C_9  and  N_10
REMARK    6  A    between atoms: N_10  and  C_11
REMARK    7  A    between atoms: C_14  and  C_15
REMARK                            x       y       z     vdW  Elec       q    Type
REMARK                         _______ _______ _______ _____ _____    ______ ____
ROOT
ATOM      1  C   UNL     1      47.967   5.224  15.909  0.00  0.00    +0.000 C 
ENDROOT
BRANCH   1   2
ATOM      2  N   UNL     1      48.237   4.722  17.266  0.00  0.00    +0.000 N 
ATOM      3  H   UNL     1      47.402   4.346  17.711  0.00  0.00    +0.000 HD
BRANCH   2   4
ATOM      4  C   UNL     1      49.334   3.852  17.402  0.00  0.00    +0.000 A 
ATOM      5  C   UNL     1      49.287   2.502  17.042  0.00  0.00    +0.000 A 
ATOM      6  C   UNL     1      50.414   1.688  17.153  0.00  0.00    +0.000 A 
ATOM      7  C   UNL     1      51.595   2.260  17.596  0.00  0.00    +0.000 A 
ATOM      8  N   UNL     1      51.723   3.577  17.908  0.00  0.00    +0.000 NA
ATOM      9  C   UNL     1      50.597   4.331  17.781  0.00  0.00    +0.000 A 
BRANCH   7  10
ATOM     10  C   UNL     1      52.816   1.402  17.736  0.00  0.00    +0.000 C 
ATOM     11  N   UNL     1      52.591   0.118  18.146  0.00  0.00    +0.000 N 
ATOM     12  O   UNL     1      53.946   1.814  17.495  0.00  0.00    +0.000 OA
ATOM     13  H   UNL     1      51.644  -0.182  18.349  0.00  0.00    +0.000 HD
ATOM     14  H   UNL     1      53.369  -0.508  18.276  0.00  0.00    +0.000 HD
ENDBRANCH   7  10
ENDBRANCH   2   4
ENDBRANCH   1   2
BRANCH   1  15
ATOM     15  C   UNL     1      47.000   4.313  15.141  0.00  0.00    +0.000 C 
BRANCH  15  20
ATOM     16  C   UNL     1      45.227   5.055  11.820  0.00  0.00    +0.000 A 
ATOM     17  C   UNL     1      46.044   6.099  11.343  0.00  0.00    +0.000 A 
ATOM     18  C   UNL     1      47.163   6.536  12.056  0.00  0.00    +0.000 A 
ATOM     19  C   UNL     1      47.491   5.945  13.272  0.00  0.00    +0.000 A 
ATOM     20  C   UNL     1      46.715   4.895  13.771  0.00  0.00    +0.000 A 
ATOM     21  C   UNL     1      45.601   4.449  13.032  0.00  0.00    +0.000 A 
BRANCH  16  23
ATOM     22  C   UNL     1      42.898   5.802  11.313  0.00  0.00    +0.000 C 
ATOM     23  C   UNL     1      43.939   4.695  11.058  0.00  0.00    +0.000 C 
ATOM     24  C   UNL     1      44.210   4.494   9.563  0.00  0.00    +0.000 C 
ATOM     25  C   UNL     1      44.411   2.994   9.401  0.00  0.00    +0.000 C 
ATOM     26  O   UNL     1      44.010   2.360  10.620  0.00  0.00    +0.000 OA
ATOM     27  C   UNL     1      43.304   3.336  11.393  0.00  0.00    +0.000 C 
ENDBRANCH  16  23
ENDBRANCH  15  20
ENDBRANCH   1  15
TORSDOF 6
ENDMDL
MODEL 6
REMARK VINA RESULT:    -6.498      3.559      5.734
REMARK INTER + INTRA:          -9.853
REMARK INTER:                  -9.023
REMARK INTRA:                  -0.830
REMARK UNBOUND:                -1.076
REMARK  Name = 
REMARK  7 active torsions:
REMARK  status: ('A' for Active; 'I' for Inactive)
REMARK    1  A    between atoms: C_1  and  C_2
REMARK    2  A    between atoms: C_2  and  C_3
REMARK    3  A    between atoms: C_7  and  C_8
REMARK    4  A    between atoms: C_8  and  C_9
REMARK    5  A    between atoms: C_9  and  N_10
REMARK    6  A    between atoms: N_10  and  C_11
REMARK    7  A    between atoms: C_14  and  C_15
REMARK                            x       y       z     vdW  Elec       q    Type
REMARK                         _______ _______ _______ _____ _____    ______ ____
ROOT
ATOM      1  C   UNL     1      48.313   7.059  13.462  0.00  0.00    +0.000 C 
ENDROOT
BRANCH   1   2
ATOM      2  N   UNL     1      46.850   7.125  13.608  0.00  0.00    +0.000 N 
ATOM      3  H   UNL     1      46.482   8.051  13.399  0.00  0.00    +0.000 HD
BRANCH   2   4
ATOM      4  C   UNL     1      46.113   6.116  12.960  0.00  0.00    +0.000 A 
ATOM      5  C   UNL     1      45.659   6.229  11.643  0.00  0.00    +0.000 A 
ATOM      6  C   UNL     1      44.971   5.183  11.027  0.00  0.00    +0.000 A 
ATOM      7  C   UNL     1      44.779   4.014  11.743  0.00  0.00    +0.000 A 
ATOM      8  N   UNL     1      45.242   3.818  13.006  0.00  0.00    +0.000 NA
ATOM      9  C   UNL     1      45.910   4.866  13.563  0.00  0.00    +0.000 A 
BRANCH   7  10
ATOM     10  C   UNL     1      44.030   2.882  11.107  0.00  0.00    +0.000 C 
ATOM     11  N   UNL     1      44.626   2.320  10.013  0.00  0.00    +0.000 N 
ATOM     12  O   UNL     1      42.954   2.476  11.535  0.00  0.00    +0.000 OA
ATOM     13  H   UNL     1      45.508   2.692   9.680  0.00  0.00    +0.000 HD
ATOM     14  H   UNL     1      44.169   1.565   9.528  0.00  0.00    +0.000 HD
ENDBRANCH   7  10
ENDBRANCH   2   4
ENDBRANCH   1   2
BRANCH   1  15
ATOM     15  C   UNL     1      49.031   7.976  14.461  0.00  0.00    +0.000 C 
BRANCH  15  20
ATOM     16  C   UNL     1      49.864   5.252  17.032  0.00  0.00    +0.000 A 
ATOM     17  C   UNL     1      51.250   5.466  17.164  0.00  0.00    +0.000 A 
ATOM     18  C   UNL     1      51.902   6.487  16.467  0.00  0.00    +0.000 A 
ATOM     19  C   UNL     1      51.185   7.317  15.611  0.00  0.00    +0.000 A 
ATOM     20  C   UNL     1      49.804   7.147  15.466  0.00  0.00    +0.000 A 
ATOM     21  C   UNL     1      49.156   6.128  16.191  0.00  0.00    +0.000 A 
BRANCH  16  23
ATOM     22  C   UNL     1      49.249   4.276  19.248  0.00  0.00    +0.000 C 
ATOM     23  C   UNL     1      49.217   4.040  17.726  0.00  0.00    +0.000 C 
ATOM     24  C   UNL     1      47.793   3.794  17.213  0.00  0.00    +0.000 C 
ATOM     25  C   UNL     1      47.949   2.751  16.116  0.00  0.00    +0.000 C 
ATOM     26  O   UNL     1      49.281   2.231  16.185  0.00  0.00    +0.000 OA
ATOM     27  C   UNL     1      49.842   2.668  17.428  0.00  0.00    +0.000 C 
ENDBRANCH  16  23
ENDBRANCH  15  20
ENDBRANCH   1  15
TORSDOF 6
ENDMDL
MODEL 7
REMARK VINA RESULT:    -6.273      4.201      7.304
REMARK INTER + INTRA:          -9.549
REMARK INTER:                  -8.229
REMARK INTRA:                  -1.321
REMARK UNBOUND:                -1.076
REMARK  Name = 
REMARK  7 active torsions:
REMARK  status: ('A' for Active; 'I' for Inactive)
REMARK    1  A    between atoms: C_1  and  C_2
REMARK    2  A    between atoms: C_2  and  C_3
REMARK    3  A    between atoms: C_7  and  C_8
REMARK    4  A    between atoms: C_8  and  C_9
REMARK    5  A    between atoms: C_9  and  N_10
REMARK    6  A    between atoms: N_10  and  C_11
REMARK    7  A    between atoms: C_14  and  C_15
REMARK                            x       y       z     vdW  Elec       q    Type
REMARK                         _______ _______ _______ _____ _____    ______ ____
ROOT
ATOM      1  C   UNL     1      49.344   7.542  13.127  0.00  0.00    +0.000 C 
ENDROOT
BRANCH   1   2
ATOM      2  N   UNL     1      49.358   7.705  14.589  0.00  0.00    +0.000 N 
ATOM      3  H   UNL     1      48.965   8.598  14.881  0.00  0.00    +0.000 HD
BRANCH   2   4
ATOM      4  C   UNL     1      48.836   6.637  15.341  0.00  0.00    +0.000 A 
ATOM      5  C   UNL     1      47.936   5.704  14.819  0.00  0.00    +0.000 A 
ATOM      6  C   UNL     1      47.480   4.635  15.590  0.00  0.00    +0.000 A 
ATOM      7  C   UNL     1      47.970   4.499  16.877  0.00  0.00    +0.000 A 
ATOM      8  N   UNL     1      48.889   5.337  17.426  0.00  0.00    +0.000 NA
ATOM      9  C   UNL     1      49.305   6.363  16.634  0.00  0.00    +0.000 A 
BRANCH   7  10
ATOM     10  C   UNL     1      47.484   3.366  17.729  0.00  0.00    +0.000 C 
ATOM     11  N   UNL     1      48.289   3.030  18.781  0.00  0.00    +0.000 N 
ATOM     12  O   UNL     1      46.431   2.776  17.507  0.00  0.00    +0.000 OA
ATOM     13  H   UNL     1      49.158   3.531  18.924  0.00  0.00    +0.000 HD
ATOM     14  H   UNL     1      48.029   2.266  19.385  0.00  0.00    +0.000 HD
ENDBRANCH   7  10
ENDBRANCH   2   4
ENDBRANCH   1   2
BRANCH   1  15
ATOM     15  C   UNL     1      48.772   8.776  12.416  0.00  0.00    +0.000 C 
BRANCH  15  20
ATOM     16  C   UNL     1      45.547   6.961  11.405  0.00  0.00    +0.000 A 
ATOM     17  C   UNL     1      44.626   8.017  11.546  0.00  0.00    +0.000 A 
ATOM     18  C   UNL     1      45.035   9.298  11.927  0.00  0.00    +0.000 A 
ATOM     19  C   UNL     1      46.378   9.555  12.184  0.00  0.00    +0.000 A 
ATOM     20  C   UNL     1      47.325   8.536  12.039  0.00  0.00    +0.000 A 
ATOM     21  C   UNL     1      46.902   7.255  11.634  0.00  0.00    +0.000 A 
BRANCH  16  23
ATOM     22  C   UNL     1      45.567   5.111   9.725  0.00  0.00    +0.000 C 
ATOM     23  C   UNL     1      45.030   5.542  11.103  0.00  0.00    +0.000 C 
ATOM     24  C   UNL     1      45.424   4.556  12.208  0.00  0.00    +0.000 C 
ATOM     25  C   UNL     1      44.222   4.512  13.139  0.00  0.00    +0.000 C 
ATOM     26  O   UNL     1      43.133   5.176  12.489  0.00  0.00    +0.000 OA
ATOM     27  C   UNL     1      43.505   5.354  11.117  0.00  0.00    +0.000 C 
ENDBRANCH  16  23
ENDBRANCH  15  20
ENDBRANCH   1  15
TORSDOF 6
ENDMDL
MODEL 8
REMARK VINA RESULT:    -5.897      3.702      5.927
REMARK INTER + INTRA:          -9.040
REMARK INTER:                  -7.903
REMARK INTRA:                  -1.138
REMARK UNBOUND:                -1.076
REMARK  Name = 
REMARK  7 active torsions:
REMARK  status: ('A' for Active; 'I' for Inactive)
REMARK    1  A    between atoms: C_1  and  C_2
REMARK    2  A    between atoms: C_2  and  C_3
REMARK    3  A    between atoms: C_7  and  C_8
REMARK    4  A    between atoms: C_8  and  C_9
REMARK    5  A    between atoms: C_9  and  N_10
REMARK    6  A    between atoms: N_10  and  C_11
REMARK    7  A    between atoms: C_14  and  C_15
REMARK                            x       y       z     vdW  Elec       q    Type
REMARK                         _______ _______ _______ _____ _____    ______ ____
ROOT
ATOM      1  C   UNL     1      48.301   7.791  14.009  0.00  0.00    +0.000 C 
ENDROOT
BRANCH   1   2
ATOM      2  N   UNL     1      48.279   7.046  12.741  0.00  0.00    +0.000 N 
ATOM      3  H   UNL     1      49.176   6.611  12.533  0.00  0.00    +0.000 HD
BRANCH   2   4
ATOM      4  C   UNL     1      47.213   6.146  12.564  0.00  0.00    +0.000 A 
ATOM      5  C   UNL     1      46.863   5.181  13.514  0.00  0.00    +0.000 A 
ATOM      6  C   UNL     1      45.769   4.339  13.315  0.00  0.00    +0.000 A 
ATOM      7  C   UNL     1      45.013   4.506  12.167  0.00  0.00    +0.000 A 
ATOM      8  N   UNL     1      45.265   5.460  11.232  0.00  0.00    +0.000 NA
ATOM      9  C   UNL     1      46.341   6.259  11.472  0.00  0.00    +0.000 A 
BRANCH   7  10
ATOM     10  C   UNL     1      43.842   3.604  11.926  0.00  0.00    +0.000 C 
ATOM     11  N   UNL     1      43.852   2.425  12.617  0.00  0.00    +0.000 N 
ATOM     12  O   UNL     1      42.925   3.898  11.166  0.00  0.00    +0.000 OA
ATOM     13  H   UNL     1      44.634   2.210  13.225  0.00  0.00    +0.000 HD
ATOM     14  H   UNL     1      43.102   1.765  12.489  0.00  0.00    +0.000 HD
ENDBRANCH   7  10
ENDBRANCH   2   4
ENDBRANCH   1   2
BRANCH   1  15
ATOM     15  C   UNL     1      49.731   8.128  14.454  0.00  0.00    +0.000 C 
BRANCH  15  20
ATOM     16  C   UNL     1      49.602   5.419  17.167  0.00  0.00    +0.000 A 
ATOM     17  C   UNL     1      50.980   5.273  17.422  0.00  0.00    +0.000 A 
ATOM     18  C   UNL     1      51.933   6.051  16.760  0.00  0.00    +0.000 A 
ATOM     19  C   UNL     1      51.533   6.993  15.818  0.00  0.00    +0.000 A 
ATOM     20  C   UNL     1      50.173   7.180  15.549  0.00  0.00    +0.000 A 
ATOM     21  C   UNL     1      49.222   6.403  16.240  0.00  0.00    +0.000 A 
BRANCH  16  23
ATOM     22  C   UNL     1      48.606   3.131  17.040  0.00  0.00    +0.000 C 
ATOM     23  C   UNL     1      48.604   4.453  17.832  0.00  0.00    +0.000 C 
ATOM     24  C   UNL     1      48.936   4.236  19.313  0.00  0.00    +0.000 C 
ATOM     25  C   UNL     1      48.063   5.235  20.059  0.00  0.00    +0.000 C 
ATOM     26  O   UNL     1      47.111   5.770  19.132  0.00  0.00    +0.000 OA
ATOM     27  C   UNL     1      47.155   4.950  17.959  0.00  0.00    +0.000 C 
ENDBRANCH  16  23
ENDBRANCH  15  20
ENDBRANCH   1  15
TORSDOF 6
ENDMDL
MODEL 9
REMARK VINA RESULT:    -5.745      5.031      6.758
REMARK INTER + INTRA:          -8.836
REMARK INTER:                  -8.187
REMARK INTRA:                  -0.650
REMARK UNBOUND:                -1.076
REMARK  Name = 
REMARK  7 active torsions:
REMARK  status: ('A' for Active; 'I' for Inactive)
REMARK    1  A    between atoms: C_1  and  C_2
REMARK    2  A    between atoms: C_2  and  C_3
REMARK    3  A    between atoms: C_7  and  C_8
REMARK    4  A    between atoms: C_8  and  C_9
REMARK    5  A    between atoms: C_9  and  N_10
REMARK    6  A    between atoms: N_10  and  C_11
REMARK    7  A    between atoms: C_14  and  C_15
REMARK                            x       y       z     vdW  Elec       q    Type
REMARK                         _______ _______ _______ _____ _____    ______ ____
ROOT
ATOM      1  C   UNL     1      47.560   4.035  16.080  0.00  0.00    +0.000 C 
ENDROOT
BRANCH   1   2
ATOM      2  N   UNL     1      47.411   5.116  15.093  0.00  0.00    +0.000 N 
ATOM      3  H   UNL     1      48.309   5.486  14.787  0.00  0.00    +0.000 HD
BRANCH   2   4
ATOM      4  C   UNL     1      46.562   4.851  14.002  0.00  0.00    +0.000 A 
ATOM      5  C   UNL     1      46.031   5.856  13.187  0.00  0.00    +0.000 A 
ATOM      6  C   UNL     1      45.230   5.542  12.090  0.00  0.00    +0.000 A 
ATOM      7  C   UNL     1      45.000   4.207  11.805  0.00  0.00    +0.000 A 
ATOM      8  N   UNL     1      45.531   3.182  12.523  0.00  0.00    +0.000 NA
ATOM      9  C   UNL     1      46.309   3.538  13.582  0.00  0.00    +0.000 A 
BRANCH   7  10
ATOM     10  C   UNL     1      44.131   3.847  10.639  0.00  0.00    +0.000 C 
ATOM     11  N   UNL     1      43.743   4.891   9.847  0.00  0.00    +0.000 N 
ATOM     12  O   UNL     1      43.789   2.693  10.398  0.00  0.00    +0.000 OA
ATOM     13  H   UNL     1      44.034   5.832  10.085  0.00  0.00    +0.000 HD
ATOM     14  H   UNL     1      43.145   4.721   9.054  0.00  0.00    +0.000 HD
ENDBRANCH   7  10
ENDBRANCH   2   4
ENDBRANCH   1   2
BRANCH   1  15
ATOM     15  C   UNL     1      48.387   4.476  17.295  0.00  0.00    +0.000 C 
BRANCH  15  20
ATOM     16  C   UNL     1      52.029   3.545  18.061  0.00  0.00    +0.000 A 
ATOM     17  C   UNL     1      52.007   2.184  17.701  0.00  0.00    +0.000 A 
ATOM     18  C   UNL     1      50.855   1.581  17.189  0.00  0.00    +0.000 A 
ATOM     19  C   UNL     1      49.689   2.324  17.033  0.00  0.00    +0.000 A 
ATOM     20  C   UNL     1      49.676   3.683  17.364  0.00  0.00    +0.000 A 
ATOM     21  C   UNL     1      50.851   4.283  17.858  0.00  0.00    +0.000 A 
BRANCH  16  23
ATOM     22  C   UNL     1      53.178   3.895  20.252  0.00  0.00    +0.000 C 
ATOM     23  C   UNL     1      53.286   4.129  18.733  0.00  0.00    +0.000 C 
ATOM     24  C   UNL     1      54.566   3.522  18.148  0.00  0.00    +0.000 C 
ATOM     25  C   UNL     1      55.007   4.504  17.072  0.00  0.00    +0.000 C 
ATOM     26  O   UNL     1      54.230   5.698  17.217  0.00  0.00    +0.000 OA
ATOM     27  C   UNL     1      53.565   5.619  18.482  0.00  0.00    +0.000 C 
ENDBRANCH  16  23
ENDBRANCH  15  20
ENDBRANCH   1  15
TORSDOF 6
ENDMDL
