MODEL 1
REMARK VINA RESULT:    -7.891      0.000      0.000
REMARK INTER + INTRA:         -11.072
REMARK INTER:                 -10.198
REMARK INTRA:                  -0.874
REMARK UNBOUND:                -0.874
REMARK  Name = 
REMARK  6 active torsions:
REMARK  status: ('A' for Active; 'I' for Inactive)
REMARK    1  A    between atoms: C_1  and  C_2
REMARK    2  A    between atoms: N_9  and  C_10
REMARK    3  A    between atoms: C_10  and  C_11
REMARK    4  A    between atoms: C_14  and  C_15
REMARK    5  A    between atoms: C_15  and  N_16
REMARK    6  A    between atoms: C_17  and  C_19
REMARK                            x       y       z     vdW  Elec       q    Type
REMARK                         _______ _______ _______ _____ _____    ______ ____
ROOT
ATOM      1  C   UNL     1      45.267   4.295  11.393  0.00  0.00    +0.000 A 
ATOM      2  C   UNL     1      45.605   4.135  12.735  0.00  0.00    +0.000 A 
ATOM      3  C   UNL     1      46.219   5.190  13.405  0.00  0.00    +0.000 A 
ATOM      4  C   UNL     1      46.476   6.383  12.724  0.00  0.00    +0.000 A 
ATOM      5  C   UNL     1      46.129   6.441  11.380  0.00  0.00    +0.000 A 
ATOM      6  N   UNL     1      45.537   5.430  10.704  0.00  0.00    +0.000 NA
ENDROOT
BRANCH   1   7
ATOM      7  C   UNL     1      44.617   3.166  10.632  0.00  0.00    +0.000 C 
BRANCH   7  16
ATOM      8  C   UNL     1      46.489   0.221   7.944  0.00  0.00    +0.000 C 
ATOM      9  C   UNL     1      46.862   1.466   7.218  0.00  0.00    +0.000 A 
ATOM     10  C   UNL     1      47.800   1.609   6.206  0.00  0.00    +0.000 A 
ATOM     11  C   UNL     1      47.704   2.919   5.699  0.00  0.00    +0.000 A 
ATOM     12  C   UNL     1      46.694   3.540   6.389  0.00  0.00    +0.000 A 
ATOM     13  N   UNL     1      46.201   2.689   7.360  0.00  0.00    +0.000 N 
ATOM     14  C   UNL     1      45.189   3.072   8.262  0.00  0.00    +0.000 C 
ATOM     15  O   UNL     1      44.262   3.767   7.875  0.00  0.00    +0.000 OA
ATOM     16  N   UNL     1      45.462   2.704   9.550  0.00  0.00    +0.000 N 
ATOM     17  H   UNL     1      46.339   2.266   9.793  0.00  0.00    +0.000 HD
ENDBRANCH   7  16
ENDBRANCH   1   7
BRANCH   4  18
ATOM     18  C   UNL     1      47.145   7.542  13.398  0.00  0.00    +0.000 C 
BRANCH  18  19
ATOM     19  N   UNL     1      47.638   7.173  14.701  0.00  0.00    +0.000 N 
ATOM     20  C   UNL     1      48.983   6.994  14.915  0.00  0.00    +0.000 C 
ATOM     21  O   UNL     1      49.792   7.003  13.991  0.00  0.00    +0.000 OA
ATOM     22  H   UNL     1      47.025   7.333  15.495  0.00  0.00    +0.000 HD
BRANCH  20  23
ATOM     23  C   UNL     1      49.407   6.769  16.301  0.00  0.00    +0.000 A 
ATOM     24  C   UNL     1      50.213   7.706  16.935  0.00  0.00    +0.000 A 
ATOM     25  S   UNL     1      50.559   7.323  18.560  0.00  0.00    +0.000 S 
ATOM     26  C   UNL     1      49.599   5.919  18.489  0.00  0.00    +0.000 A 
ATOM     27  N   UNL     1      49.392   5.157  19.596  0.00  0.00    +0.000 NA
ATOM     28  C   UNL     1      48.620   4.140  19.406  0.00  0.00    +0.000 A 
ATOM     29  N   UNL     1      48.063   3.797  18.200  0.00  0.00    +0.000 N 
ATOM     30  C   UNL     1      48.293   4.503  17.044  0.00  0.00    +0.000 A 
ATOM     31  O   UNL     1      47.872   4.111  15.961  0.00  0.00    +0.000 OA
ATOM     32  C   UNL     1      49.091   5.702  17.221  0.00  0.00    +0.000 A 
ATOM     33  H   UNL     1      47.505   2.960  18.110  0.00  0.00    +0.000 HD
ENDBRANCH  20  23
ENDBRANCH  18  19
ENDBRANCH   4  18
TORSDOF 5
ENDMDL
MODEL 2
REMARK VINA RESULT:    -7.565      4.913      9.564
REMARK INTER + INTRA:         -10.650
REMARK INTER:                  -9.858
REMARK INTRA:                  -0.792
REMARK UNBOUND:                -0.874
REMARK  Name = 
REMARK  6 active torsions:
REMARK  status: ('A' for Active; 'I' for Inactive)
REMARK    1  A    between atoms: C_1  and  C_2
REMARK    2  A    between atoms: N_9  and  C_10
REMARK    3  A    between atoms: C_10  and  C_11
REMARK    4  A    between atoms: C_14  and  C_15
REMARK    5  A    between atoms: C_15  and  N_16
REMARK    6  A    between atoms: C_17  and  C_19
REMARK                            x       y       z     vdW  Elec       q    Type
REMARK                         _______ _______ _______ _____ _____    ______ ____
ROOT
ATOM      1  C   UNL     1      51.335   3.289  17.739  0.00  0.00    +0.000 A 
ATOM      2  C   UNL     1      50.580   4.412  18.069  0.00  0.00    +0.000 A 
ATOM      3  C   UNL     1      49.223   4.427  17.758  0.00  0.00    +0.000 A 
ATOM      4  C   UNL     1      48.647   3.319  17.131  0.00  0.00    +0.000 A 
ATOM      5  C   UNL     1      49.484   2.255  16.814  0.00  0.00    +0.000 A 
ATOM      6  N   UNL     1      50.806   2.217  17.100  0.00  0.00    +0.000 NA
ENDROOT
BRANCH   1   7
ATOM      7  C   UNL     1      52.812   3.247  18.045  0.00  0.00    +0.000 C 
BRANCH   7  16
ATOM      8  C   UNL     1      55.485   0.546  15.818  0.00  0.00    +0.000 C 
ATOM      9  C   UNL     1      54.998  -0.411  16.849  0.00  0.00    +0.000 A 
ATOM     10  C   UNL     1      55.118  -1.793  16.849  0.00  0.00    +0.000 A 
ATOM     11  C   UNL     1      54.668  -2.274  18.094  0.00  0.00    +0.000 A 
ATOM     12  C   UNL     1      54.310  -1.178  18.838  0.00  0.00    +0.000 A 
ATOM     13  N   UNL     1      54.452  -0.032  18.079  0.00  0.00    +0.000 N 
ATOM     14  C   UNL     1      54.108   1.245  18.562  0.00  0.00    +0.000 C 
ATOM     15  O   UNL     1      54.347   1.540  19.724  0.00  0.00    +0.000 OA
ATOM     16  N   UNL     1      53.395   1.980  17.656  0.00  0.00    +0.000 N 
ATOM     17  H   UNL     1      53.110   1.583  16.771  0.00  0.00    +0.000 HD
ENDBRANCH   7  16
ENDBRANCH   1   7
BRANCH   4  18
ATOM     18  C   UNL     1      47.194   3.292  16.766  0.00  0.00    +0.000 C 
BRANCH  18  19
ATOM     19  N   UNL     1      46.861   4.373  15.873  0.00  0.00    +0.000 N 
ATOM     20  C   UNL     1      46.848   4.180  14.514  0.00  0.00    +0.000 C 
ATOM     21  O   UNL     1      47.247   3.136  14.005  0.00  0.00    +0.000 OA
ATOM     22  H   UNL     1      46.367   5.168  16.268  0.00  0.00    +0.000 HD
BRANCH  20  23
ATOM     23  C   UNL     1      46.352   5.289  13.693  0.00  0.00    +0.000 A 
ATOM     24  C   UNL     1      47.167   6.388  13.455  0.00  0.00    +0.000 A 
ATOM     25  S   UNL     1      46.462   7.555  12.431  0.00  0.00    +0.000 S 
ATOM     26  C   UNL     1      45.065   6.607  12.225  0.00  0.00    +0.000 A 
ATOM     27  N   UNL     1      44.075   6.994  11.376  0.00  0.00    +0.000 NA
ATOM     28  C   UNL     1      43.088   6.165  11.295  0.00  0.00    +0.000 A 
ATOM     29  N   UNL     1      42.985   5.000  12.011  0.00  0.00    +0.000 N 
ATOM     30  C   UNL     1      43.932   4.599  12.923  0.00  0.00    +0.000 A 
ATOM     31  O   UNL     1      43.761   3.610  13.628  0.00  0.00    +0.000 OA
ATOM     32  C   UNL     1      45.100   5.456  12.994  0.00  0.00    +0.000 A 
ATOM     33  H   UNL     1      42.163   4.420  11.935  0.00  0.00    +0.000 HD
ENDBRANCH  20  23
ENDBRANCH  18  19
ENDBRANCH   4  18
TORSDOF 5
ENDMDL
MODEL 3
REMARK VINA RESULT:    -7.151      3.669      8.873
REMARK INTER + INTRA:         -10.115
REMARK INTER:                  -9.233
REMARK INTRA:                  -0.882
REMARK UNBOUND:                -0.874
REMARK  Name = 
REMARK  6 active torsions:
REMARK  status: ('A' for Active; 'I' for Inactive)
REMARK    1  A    between atoms: C_1  and  C_2
REMARK    2  A    between atoms: N_9  and  C_10
REMARK    3  A    between atoms: C_10  and  C_11
REMARK    4  A    between atoms: C_14  and  C_15
REMARK    5  A    between atoms: C_15  and  N_16
REMARK    6  A    between atoms: C_17  and  C_19
REMARK                            x       y       z     vdW  Elec       q    Type
REMARK                         _______ _______ _______ _____ _____    ______ ____
ROOT
ATOM      1  C   UNL     1      49.958   6.826  16.259  0.00  0.00    +0.000 A 
ATOM      2  C   UNL     1      48.693   6.367  15.901  0.00  0.00    +0.000 A 
ATOM      3  C   UNL     1      48.223   6.620  14.615  0.00  0.00    +0.000 A 
ATOM      4  C   UNL     1      49.028   7.321  13.713  0.00  0.00    +0.000 A 
ATOM      5  C   UNL     1      50.264   7.764  14.167  0.00  0.00    +0.000 A 
ATOM      6  N   UNL     1      50.742   7.536  15.412  0.00  0.00    +0.000 NA
ENDROOT
BRANCH   1   7
ATOM      7  C   UNL     1      50.491   6.583  17.650  0.00  0.00    +0.000 C 
BRANCH   7  16
ATOM      8  C   UNL     1      53.588   3.823  19.131  0.00  0.00    +0.000 C 
ATOM      9  C   UNL     1      52.799   2.865  18.308  0.00  0.00    +0.000 A 
ATOM     10  C   UNL     1      53.171   1.593  17.899  0.00  0.00    +0.000 A 
ATOM     11  C   UNL     1      52.057   0.985  17.287  0.00  0.00    +0.000 A 
ATOM     12  C   UNL     1      51.023   1.883  17.360  0.00  0.00    +0.000 A 
ATOM     13  N   UNL     1      51.468   3.061  17.932  0.00  0.00    +0.000 N 
ATOM     14  C   UNL     1      50.638   4.187  18.090  0.00  0.00    +0.000 C 
ATOM     15  O   UNL     1      49.467   4.040  18.410  0.00  0.00    +0.000 OA
ATOM     16  N   UNL     1      51.250   5.352  17.717  0.00  0.00    +0.000 N 
ATOM     17  H   UNL     1      52.177   5.348  17.313  0.00  0.00    +0.000 HD
ENDBRANCH   7  16
ENDBRANCH   1   7
BRANCH   4  18
ATOM     18  C   UNL     1      48.562   7.629  12.322  0.00  0.00    +0.000 C 
BRANCH  18  19
ATOM     19  N   UNL     1      47.733   6.570  11.804  0.00  0.00    +0.000 N 
ATOM     20  C   UNL     1      46.415   6.800  11.496  0.00  0.00    +0.000 C 
ATOM     21  O   UNL     1      45.861   7.860  11.774  0.00  0.00    +0.000 OA
ATOM     22  H   UNL     1      48.203   5.761  11.408  0.00  0.00    +0.000 HD
BRANCH  20  23
ATOM     23  C   UNL     1      45.691   5.710  10.834  0.00  0.00    +0.000 A 
ATOM     24  C   UNL     1      45.855   5.501   9.471  0.00  0.00    +0.000 A 
ATOM     25  S   UNL     1      44.994   4.156   8.875  0.00  0.00    +0.000 S 
ATOM     26  C   UNL     1      44.415   3.771  10.429  0.00  0.00    +0.000 A 
ATOM     27  N   UNL     1      43.672   2.653  10.642  0.00  0.00    +0.000 NA
ATOM     28  C   UNL     1      43.326   2.469  11.872  0.00  0.00    +0.000 A 
ATOM     29  N   UNL     1      43.627   3.321  12.904  0.00  0.00    +0.000 N 
ATOM     30  C   UNL     1      44.324   4.491  12.725  0.00  0.00    +0.000 A 
ATOM     31  O   UNL     1      44.485   5.287  13.645  0.00  0.00    +0.000 OA
ATOM     32  C   UNL     1      44.805   4.705  11.373  0.00  0.00    +0.000 A 
ATOM     33  H   UNL     1      43.285   3.142  13.836  0.00  0.00    +0.000 HD
ENDBRANCH  20  23
ENDBRANCH  18  19
ENDBRANCH   4  18
TORSDOF 5
ENDMDL
MODEL 4
REMARK VINA RESULT:    -7.052      4.001      8.551
REMARK INTER + INTRA:          -9.987
REMARK INTER:                  -9.356
REMARK INTRA:                  -0.631
REMARK UNBOUND:                -0.874
REMARK  Name = 
REMARK  6 active torsions:
REMARK  status: ('A' for Active; 'I' for Inactive)
REMARK    1  A    between atoms: C_1  and  C_2
REMARK    2  A    between atoms: N_9  and  C_10
REMARK    3  A    between atoms: C_10  and  C_11
REMARK    4  A    between atoms: C_14  and  C_15
REMARK    5  A    between atoms: C_15  and  N_16
REMARK    6  A    between atoms: C_17  and  C_19
REMARK                            x       y       z     vdW  Elec       q    Type
REMARK                         _______ _______ _______ _____ _____    ______ ____
ROOT
ATOM      1  C   UNL     1      49.264   6.854  17.393  0.00  0.00    +0.000 A 
ATOM      2  C   UNL     1      48.884   8.194  17.418  0.00  0.00    +0.000 A 
ATOM      3  C   UNL     1      48.406   8.782  16.250  0.00  0.00    +0.000 A 
ATOM      4  C   UNL     1      48.311   8.018  15.083  0.00  0.00    +0.000 A 
ATOM      5  C   UNL     1      48.740   6.698  15.145  0.00  0.00    +0.000 A 
ATOM      6  N   UNL     1      49.213   6.104  16.265  0.00  0.00    +0.000 NA
ENDROOT
BRANCH   1   7
ATOM      7  C   UNL     1      49.802   6.192  18.636  0.00  0.00    +0.000 C 
BRANCH   7  16
ATOM      8  C   UNL     1      49.679   2.221  16.732  0.00  0.00    +0.000 C 
ATOM      9  C   UNL     1      51.017   2.126  17.377  0.00  0.00    +0.000 A 
ATOM     10  C   UNL     1      51.787   0.988  17.570  0.00  0.00    +0.000 A 
ATOM     11  C   UNL     1      53.044   1.386  18.064  0.00  0.00    +0.000 A 
ATOM     12  C   UNL     1      53.028   2.756  18.136  0.00  0.00    +0.000 A 
ATOM     13  N   UNL     1      51.780   3.228  17.773  0.00  0.00    +0.000 N 
ATOM     14  C   UNL     1      51.450   4.596  17.801  0.00  0.00    +0.000 C 
ATOM     15  O   UNL     1      52.274   5.429  17.454  0.00  0.00    +0.000 OA
ATOM     16  N   UNL     1      50.228   4.834  18.368  0.00  0.00    +0.000 N 
ATOM     17  H   UNL     1      49.685   4.082  18.771  0.00  0.00    +0.000 HD
ENDBRANCH   7  16
ENDBRANCH   1   7
BRANCH   4  18
ATOM     18  C   UNL     1      47.815   8.608  13.798  0.00  0.00    +0.000 C 
BRANCH  18  19
ATOM     19  N   UNL     1      46.582   7.989  13.383  0.00  0.00    +0.000 N 
ATOM     20  C   UNL     1      46.567   7.080  12.354  0.00  0.00    +0.000 C 
ATOM     21  O   UNL     1      47.562   6.864  11.666  0.00  0.00    +0.000 OA
ATOM     22  H   UNL     1      45.804   8.014  14.035  0.00  0.00    +0.000 HD
BRANCH  20  23
ATOM     23  C   UNL     1      45.299   6.389  12.100  0.00  0.00    +0.000 A 
ATOM     24  C   UNL     1      44.218   7.098  11.590  0.00  0.00    +0.000 A 
ATOM     25  S   UNL     1      42.845   6.133  11.294  0.00  0.00    +0.000 S 
ATOM     26  C   UNL     1      43.663   4.724  11.783  0.00  0.00    +0.000 A 
ATOM     27  N   UNL     1      43.072   3.502  11.690  0.00  0.00    +0.000 NA
ATOM     28  C   UNL     1      43.818   2.518  12.068  0.00  0.00    +0.000 A 
ATOM     29  N   UNL     1      45.090   2.648  12.563  0.00  0.00    +0.000 N 
ATOM     30  C   UNL     1      45.705   3.866  12.731  0.00  0.00    +0.000 A 
ATOM     31  O   UNL     1      46.799   3.960  13.277  0.00  0.00    +0.000 OA
ATOM     32  C   UNL     1      44.938   4.998  12.246  0.00  0.00    +0.000 A 
ATOM     33  H   UNL     1      45.603   1.841  12.885  0.00  0.00    +0.000 HD
ENDBRANCH  20  23
ENDBRANCH  18  19
ENDBRANCH   4  18
TORSDOF 5
ENDMDL
MODEL 5
REMARK VINA RESULT:    -7.002      3.748      5.203
REMARK INTER + INTRA:          -9.923
REMARK INTER:                  -9.467
REMARK INTRA:                  -0.456
REMARK UNBOUND:                -0.874
REMARK  Name = 
REMARK  6 active torsions:
REMARK  status: ('A' for Active; 'I' for Inactive)
REMARK    1  A    between atoms: C_1  and  C_2
REMARK    2  A    between atoms: N_9  and  C_10
REMARK    3  A    between atoms: C_10  and  C_11
REMARK    4  A    between atoms: C_14  and  C_15
REMARK    5  A    between atoms: C_15  and  N_16
REMARK    6  A    between atoms: C_17  and  C_19
REMARK                            x       y       z     vdW  Elec       q    Type
REMARK                         _______ _______ _______ _____ _____    ______ ____
ROOT
ATOM      1  C   UNL     1      47.466   5.523  14.511  0.00  0.00    +0.000 A 
ATOM      2  C   UNL     1      47.015   4.255  14.870  0.00  0.00    +0.000 A 
ATOM      3  C   UNL     1      47.488   3.677  16.045  0.00  0.00    +0.000 A 
ATOM      4  C   UNL     1      48.397   4.380  16.840  0.00  0.00    +0.000 A 
ATOM      5  C   UNL     1      48.813   5.627  16.389  0.00  0.00    +0.000 A 
ATOM      6  N   UNL     1      48.373   6.208  15.249  0.00  0.00    +0.000 NA
ENDROOT
BRANCH   1   7
ATOM      7  C   UNL     1      46.987   6.169  13.236  0.00  0.00    +0.000 C 
BRANCH   7  16
ATOM      8  C   UNL     1      44.121   3.000  12.166  0.00  0.00    +0.000 C 
ATOM      9  C   UNL     1      44.583   3.363  10.799  0.00  0.00    +0.000 A 
ATOM     10  C   UNL     1      44.391   2.654   9.622  0.00  0.00    +0.000 A 
ATOM     11  C   UNL     1      44.848   3.448   8.551  0.00  0.00    +0.000 A 
ATOM     12  C   UNL     1      45.281   4.632   9.090  0.00  0.00    +0.000 A 
ATOM     13  N   UNL     1      45.180   4.583  10.468  0.00  0.00    +0.000 N 
ATOM     14  C   UNL     1      45.602   5.640  11.297  0.00  0.00    +0.000 C 
ATOM     15  O   UNL     1      45.408   6.797  10.954  0.00  0.00    +0.000 OA
ATOM     16  N   UNL     1      46.328   5.210  12.373  0.00  0.00    +0.000 N 
ATOM     17  H   UNL     1      46.569   4.235  12.484  0.00  0.00    +0.000 HD
ENDBRANCH   7  16
ENDBRANCH   1   7
BRANCH   4  18
ATOM     18  C   UNL     1      48.945   3.797  18.107  0.00  0.00    +0.000 C 
BRANCH  18  19
ATOM     19  N   UNL     1      50.319   3.395  17.944  0.00  0.00    +0.000 N 
ATOM     20  C   UNL     1      51.317   4.003  18.665  0.00  0.00    +0.000 C 
ATOM     21  O   UNL     1      51.101   4.990  19.363  0.00  0.00    +0.000 OA
ATOM     22  H   UNL     1      50.493   2.488  17.521  0.00  0.00    +0.000 HD
BRANCH  20  23
ATOM     23  C   UNL     1      52.661   3.428  18.548  0.00  0.00    +0.000 A 
ATOM     24  C   UNL     1      53.770   4.201  18.866  0.00  0.00    +0.000 A 
ATOM     25  S   UNL     1      55.249   3.363  18.738  0.00  0.00    +0.000 S 
ATOM     26  C   UNL     1      54.455   1.921  18.306  0.00  0.00    +0.000 A 
ATOM     27  N   UNL     1      55.148   0.764  18.135  0.00  0.00    +0.000 NA
ATOM     28  C   UNL     1      54.417  -0.258  17.839  0.00  0.00    +0.000 A 
ATOM     29  N   UNL     1      53.057  -0.220  17.665  0.00  0.00    +0.000 N 
ATOM     30  C   UNL     1      52.323   0.937  17.770  0.00  0.00    +0.000 A 
ATOM     31  O   UNL     1      51.126   0.961  17.503  0.00  0.00    +0.000 OA
ATOM     32  C   UNL     1      53.088   2.099  18.180  0.00  0.00    +0.000 A 
ATOM     33  H   UNL     1      52.550  -1.048  17.388  0.00  0.00    +0.000 HD
ENDBRANCH  20  23
ENDBRANCH  18  19
ENDBRANCH   4  18
TORSDOF 5
ENDMDL
MODEL 6
REMARK VINA RESULT:    -6.974      1.486      2.169
REMARK INTER + INTRA:          -9.886
REMARK INTER:                  -9.117
REMARK INTRA:                  -0.769
REMARK UNBOUND:                -0.874
REMARK  Name = 
REMARK  6 active torsions:
REMARK  status: ('A' for Active; 'I' for Inactive)
REMARK    1  A    between atoms: C_1  and  C_2
REMARK    2  A    between atoms: N_9  and  C_10
REMARK    3  A    between atoms: C_10  and  C_11
REMARK    4  A    between atoms: C_14  and  C_15
REMARK    5  A    between atoms: C_15  and  N_16
REMARK    6  A    between atoms: C_17  and  C_19
REMARK                            x       y       z     vdW  Elec       q    Type
REMARK                         _______ _______ _______ _____ _____    ______ ____
ROOT
ATOM      1  C   UNL     1      45.365   3.988  11.695  0.00  0.00    +0.000 A 
ATOM      2  C   UNL     1      45.982   3.585  12.876  0.00  0.00    +0.000 A 
ATOM      3  C   UNL     1      46.662   4.530  13.639  0.00  0.00    +0.000 A 
ATOM      4  C   UNL     1      46.705   5.860  13.211  0.00  0.00    +0.000 A 
ATOM      5  C   UNL     1      46.085   6.165  12.005  0.00  0.00    +0.000 A 
ATOM      6  N   UNL     1      45.423   5.265  11.242  0.00  0.00    +0.000 NA
ENDROOT
BRANCH   1   7
ATOM      7  C   UNL     1      44.636   2.986  10.835  0.00  0.00    +0.000 C 
BRANCH   7  16
ATOM      8  C   UNL     1      46.372   0.133   7.964  0.00  0.00    +0.000 C 
ATOM      9  C   UNL     1      46.781   1.402   7.303  0.00  0.00    +0.000 A 
ATOM     10  C   UNL     1      47.713   1.569   6.289  0.00  0.00    +0.000 A 
ATOM     11  C   UNL     1      47.659   2.908   5.857  0.00  0.00    +0.000 A 
ATOM     12  C   UNL     1      46.679   3.524   6.593  0.00  0.00    +0.000 A 
ATOM     13  N   UNL     1      46.166   2.638   7.522  0.00  0.00    +0.000 N 
ATOM     14  C   UNL     1      45.178   3.005   8.456  0.00  0.00    +0.000 C 
ATOM     15  O   UNL     1      44.272   3.754   8.120  0.00  0.00    +0.000 OA
ATOM     16  N   UNL     1      45.451   2.557   9.718  0.00  0.00    +0.000 N 
ATOM     17  H   UNL     1      46.315   2.074   9.926  0.00  0.00    +0.000 HD
ENDBRANCH   7  16
ENDBRANCH   1   7
BRANCH   4  18
ATOM     18  C   UNL     1      47.434   6.912  13.991  0.00  0.00    +0.000 C 
BRANCH  18  19
ATOM     19  N   UNL     1      47.844   6.414  15.280  0.00  0.00    +0.000 N 
ATOM     20  C   UNL     1      49.150   6.524  15.689  0.00  0.00    +0.000 C 
ATOM     21  O   UNL     1      50.034   6.916  14.933  0.00  0.00    +0.000 OA
ATOM     22  H   UNL     1      47.117   6.256  15.971  0.00  0.00    +0.000 HD
BRANCH  20  23
ATOM     23  C   UNL     1      49.445   6.130  17.070  0.00  0.00    +0.000 A 
ATOM     24  C   UNL     1      49.273   4.808  17.461  0.00  0.00    +0.000 A 
ATOM     25  S   UNL     1      49.723   4.508  19.078  0.00  0.00    +0.000 S 
ATOM     26  C   UNL     1      50.215   6.123  19.296  0.00  0.00    +0.000 A 
ATOM     27  N   UNL     1      50.794   6.527  20.458  0.00  0.00    +0.000 NA
ATOM     28  C   UNL     1      51.145   7.769  20.475  0.00  0.00    +0.000 A 
ATOM     29  N   UNL     1      50.939   8.653  19.447  0.00  0.00    +0.000 N 
ATOM     30  C   UNL     1      50.304   8.304  18.279  0.00  0.00    +0.000 A 
ATOM     31  O   UNL     1      50.035   9.140  17.423  0.00  0.00    +0.000 OA
ATOM     32  C   UNL     1      49.961   6.898  18.179  0.00  0.00    +0.000 A 
ATOM     33  H   UNL     1      51.195   9.625  19.543  0.00  0.00    +0.000 HD
ENDBRANCH  20  23
ENDBRANCH  18  19
ENDBRANCH   4  18
TORSDOF 5
ENDMDL
MODEL 7
REMARK VINA RESULT:    -6.871      3.093      9.080
REMARK INTER + INTRA:          -9.754
REMARK INTER:                  -9.359
REMARK INTRA:                  -0.395
REMARK UNBOUND:                -0.874
REMARK  Name = 
REMARK  6 active torsions:
REMARK  status: ('A' for Active; 'I' for Inactive)
REMARK    1  A    between atoms: C_1  and  C_2
REMARK    2  A    between atoms: N_9  and  C_10
REMARK    3  A    between atoms: C_10  and  C_11
REMARK    4  A    between atoms: C_14  and  C_15
REMARK    5  A    between atoms: C_15  and  N_16
REMARK    6  A    between atoms: C_17  and  C_19
REMARK                            x       y       z     vdW  Elec       q    Type
REMARK                         _______ _______ _______ _____ _____    ______ ____
ROOT
ATOM      1  C   UNL     1      49.954   7.699  15.967  0.00  0.00    +0.000 A 
ATOM      2  C   UNL     1      49.314   8.933  15.896  0.00  0.00    +0.000 A 
ATOM      3  C   UNL     1      48.245   9.090  15.019  0.00  0.00    +0.000 A 
ATOM      4  C   UNL     1      47.833   8.008  14.235  0.00  0.00    +0.000 A 
ATOM      5  C   UNL     1      48.549   6.823  14.352  0.00  0.00    +0.000 A 
ATOM      6  N   UNL     1      49.594   6.646  15.192  0.00  0.00    +0.000 NA
ENDROOT
BRANCH   1   7
ATOM      7  C   UNL     1      51.128   7.501  16.894  0.00  0.00    +0.000 C 
BRANCH   7  16
ATOM      8  C   UNL     1      53.540   4.019  18.104  0.00  0.00    +0.000 C 
ATOM      9  C   UNL     1      52.275   3.314  17.757  0.00  0.00    +0.000 A 
ATOM     10  C   UNL     1      52.088   1.953  17.565  0.00  0.00    +0.000 A 
ATOM     11  C   UNL     1      50.708   1.714  17.420  0.00  0.00    +0.000 A 
ATOM     12  C   UNL     1      50.079   2.926  17.554  0.00  0.00    +0.000 A 
ATOM     13  N   UNL     1      51.020   3.927  17.706  0.00  0.00    +0.000 N 
ATOM     14  C   UNL     1      50.671   5.287  17.814  0.00  0.00    +0.000 C 
ATOM     15  O   UNL     1      49.681   5.611  18.453  0.00  0.00    +0.000 OA
ATOM     16  N   UNL     1      51.454   6.097  17.039  0.00  0.00    +0.000 N 
ATOM     17  H   UNL     1      52.153   5.710  16.419  0.00  0.00    +0.000 HD
ENDBRANCH   7  16
ENDBRANCH   1   7
BRANCH   4  18
ATOM     18  C   UNL     1      46.695   8.130  13.268  0.00  0.00    +0.000 C 
BRANCH  18  19
ATOM     19  N   UNL     1      46.077   6.850  13.026  0.00  0.00    +0.000 N 
ATOM     20  C   UNL     1      45.260   6.662  11.940  0.00  0.00    +0.000 C 
ATOM     21  O   UNL     1      44.916   7.594  11.219  0.00  0.00    +0.000 OA
ATOM     22  H   UNL     1      46.480   6.042  13.492  0.00  0.00    +0.000 HD
BRANCH  20  23
ATOM     23  C   UNL     1      44.798   5.292  11.689  0.00  0.00    +0.000 A 
ATOM     24  C   UNL     1      44.103   4.608  12.678  0.00  0.00    +0.000 A 
ATOM     25  S   UNL     1      43.584   3.056  12.201  0.00  0.00    +0.000 S 
ATOM     26  C   UNL     1      44.221   3.265  10.637  0.00  0.00    +0.000 A 
ATOM     27  N   UNL     1      44.040   2.322   9.675  0.00  0.00    +0.000 NA
ATOM     28  C   UNL     1      44.550   2.624   8.528  0.00  0.00    +0.000 A 
ATOM     29  N   UNL     1      45.256   3.770   8.265  0.00  0.00    +0.000 N 
ATOM     30  C   UNL     1      45.515   4.723   9.221  0.00  0.00    +0.000 A 
ATOM     31  O   UNL     1      46.241   5.683   8.987  0.00  0.00    +0.000 OA
ATOM     32  C   UNL     1      44.894   4.467  10.508  0.00  0.00    +0.000 A 
ATOM     33  H   UNL     1      45.670   3.924   7.358  0.00  0.00    +0.000 HD
ENDBRANCH  20  23
ENDBRANCH  18  19
ENDBRANCH   4  18
TORSDOF 5
ENDMDL
MODEL 8
REMARK VINA RESULT:    -6.647      2.133      2.747
REMARK INTER + INTRA:          -9.463
REMARK INTER:                  -8.713
REMARK INTRA:                  -0.751
REMARK UNBOUND:                -0.874
REMARK  Name = 
REMARK  6 active torsions:
REMARK  status: ('A' for Active; 'I' for Inactive)
REMARK    1  A    between atoms: C_1  and  C_2
REMARK    2  A    between atoms: N_9  and  C_10
REMARK    3  A    between atoms: C_10  and  C_11
REMARK    4  A    between atoms: C_14  and  C_15
REMARK    5  A    between atoms: C_15  and  N_16
REMARK    6  A    between atoms: C_17  and  C_19
REMARK                            x       y       z     vdW  Elec       q    Type
REMARK                         _______ _______ _______ _____ _____    ______ ____
ROOT
ATOM      1  C   UNL     1      45.248   3.789  11.961  0.00  0.00    +0.000 A 
ATOM      2  C   UNL     1      46.065   3.153  12.892  0.00  0.00    +0.000 A 
ATOM      3  C   UNL     1      46.753   3.924  13.825  0.00  0.00    +0.000 A 
ATOM      4  C   UNL     1      46.605   5.314  13.813  0.00  0.00    +0.000 A 
ATOM      5  C   UNL     1      45.791   5.863  12.830  0.00  0.00    +0.000 A 
ATOM      6  N   UNL     1      45.116   5.137  11.909  0.00  0.00    +0.000 NA
ENDROOT
BRANCH   1   7
ATOM      7  C   UNL     1      44.503   2.985  10.925  0.00  0.00    +0.000 C 
BRANCH   7  16
ATOM      8  C   UNL     1      46.302   0.249   7.979  0.00  0.00    +0.000 C 
ATOM      9  C   UNL     1      46.814   1.538   7.438  0.00  0.00    +0.000 A 
ATOM     10  C   UNL     1      47.820   1.726   6.502  0.00  0.00    +0.000 A 
ATOM     11  C   UNL     1      47.856   3.092   6.163  0.00  0.00    +0.000 A 
ATOM     12  C   UNL     1      46.857   3.705   6.875  0.00  0.00    +0.000 A 
ATOM     13  N   UNL     1      46.241   2.785   7.703  0.00  0.00    +0.000 N 
ATOM     14  C   UNL     1      45.209   3.137   8.594  0.00  0.00    +0.000 C 
ATOM     15  O   UNL     1      44.363   3.951   8.253  0.00  0.00    +0.000 OA
ATOM     16  N   UNL     1      45.374   2.591   9.837  0.00  0.00    +0.000 N 
ATOM     17  H   UNL     1      46.199   2.053  10.065  0.00  0.00    +0.000 HD
ENDBRANCH   7  16
ENDBRANCH   1   7
BRANCH   4  18
ATOM     18  C   UNL     1      47.333   6.188  14.789  0.00  0.00    +0.000 C 
BRANCH  18  19
ATOM     19  N   UNL     1      48.436   5.486  15.394  0.00  0.00    +0.000 N 
ATOM     20  C   UNL     1      48.276   4.829  16.589  0.00  0.00    +0.000 C 
ATOM     21  O   UNL     1      47.245   4.926  17.249  0.00  0.00    +0.000 OA
ATOM     22  H   UNL     1      49.222   5.248  14.797  0.00  0.00    +0.000 HD
BRANCH  20  23
ATOM     23  C   UNL     1      49.407   4.019  17.054  0.00  0.00    +0.000 A 
ATOM     24  C   UNL     1      49.299   2.634  17.077  0.00  0.00    +0.000 A 
ATOM     25  S   UNL     1      50.723   1.844  17.582  0.00  0.00    +0.000 S 
ATOM     26  C   UNL     1      51.552   3.322  17.733  0.00  0.00    +0.000 A 
ATOM     27  N   UNL     1      52.874   3.354  18.053  0.00  0.00    +0.000 NA
ATOM     28  C   UNL     1      53.382   4.540  18.104  0.00  0.00    +0.000 A 
ATOM     29  N   UNL     1      52.680   5.699  17.898  0.00  0.00    +0.000 N 
ATOM     30  C   UNL     1      51.332   5.718  17.631  0.00  0.00    +0.000 A 
ATOM     31  O   UNL     1      50.709   6.772  17.560  0.00  0.00    +0.000 OA
ATOM     32  C   UNL     1      50.730   4.407  17.485  0.00  0.00    +0.000 A 
ATOM     33  H   UNL     1      53.128   6.598  18.000  0.00  0.00    +0.000 HD
ENDBRANCH  20  23
ENDBRANCH  18  19
ENDBRANCH   4  18
TORSDOF 5
ENDMDL
MODEL 9
REMARK VINA RESULT:    -6.629      6.138      8.551
REMARK INTER + INTRA:          -9.441
REMARK INTER:                  -8.503
REMARK INTRA:                  -0.938
REMARK UNBOUND:                -0.874
REMARK  Name = 
REMARK  6 active torsions:
REMARK  status: ('A' for Active; 'I' for Inactive)
REMARK    1  A    between atoms: C_1  and  C_2
REMARK    2  A    between atoms: N_9  and  C_10
REMARK    3  A    between atoms: C_10  and  C_11
REMARK    4  A    between atoms: C_14  and  C_15
REMARK    5  A    between atoms: C_15  and  N_16
REMARK    6  A    between atoms: C_17  and  C_19
REMARK                            x       y       z     vdW  Elec       q    Type
REMARK                         _______ _______ _______ _____ _____    ______ ____
ROOT
ATOM      1  C   UNL     1      48.820   3.324  17.020  0.00  0.00    +0.000 A 
ATOM      2  C   UNL     1      49.453   4.298  17.788  0.00  0.00    +0.000 A 
ATOM      3  C   UNL     1      50.781   4.107  18.161  0.00  0.00    +0.000 A 
ATOM      4  C   UNL     1      51.451   2.950  17.754  0.00  0.00    +0.000 A 
ATOM      5  C   UNL     1      50.731   2.019  17.014  0.00  0.00    +0.000 A 
ATOM      6  N   UNL     1      49.440   2.178  16.643  0.00  0.00    +0.000 NA
ENDROOT
BRANCH   1   7
ATOM      7  C   UNL     1      47.378   3.492  16.614  0.00  0.00    +0.000 C 
BRANCH   7  16
ATOM      8  C   UNL     1      48.563   6.982  14.201  0.00  0.00    +0.000 C 
ATOM      9  C   UNL     1      47.361   6.565  13.428  0.00  0.00    +0.000 A 
ATOM     10  C   UNL     1      46.679   7.291  12.463  0.00  0.00    +0.000 A 
ATOM     11  C   UNL     1      45.713   6.449  11.879  0.00  0.00    +0.000 A 
ATOM     12  C   UNL     1      45.843   5.221  12.476  0.00  0.00    +0.000 A 
ATOM     13  N   UNL     1      46.807   5.282  13.465  0.00  0.00    +0.000 N 
ATOM     14  C   UNL     1      47.122   4.183  14.287  0.00  0.00    +0.000 C 
ATOM     15  O   UNL     1      47.152   3.057  13.811  0.00  0.00    +0.000 OA
ATOM     16  N   UNL     1      47.230   4.523  15.607  0.00  0.00    +0.000 N 
ATOM     17  H   UNL     1      47.030   5.462  15.922  0.00  0.00    +0.000 HD
ENDBRANCH   7  16
ENDBRANCH   1   7
BRANCH   4  18
ATOM     18  C   UNL     1      52.875   2.692  18.140  0.00  0.00    +0.000 C 
BRANCH  18  19
ATOM     19  N   UNL     1      53.279   1.356  17.779  0.00  0.00    +0.000 N 
ATOM     20  C   UNL     1      54.141   0.646  18.578  0.00  0.00    +0.000 C 
ATOM     21  O   UNL     1      54.702   1.159  19.542  0.00  0.00    +0.000 OA
ATOM     22  H   UNL     1      52.705   0.862  17.103  0.00  0.00    +0.000 HD
BRANCH  20  23
ATOM     23  C   UNL     1      54.377  -0.755  18.213  0.00  0.00    +0.000 A 
ATOM     24  C   UNL     1      53.988  -1.768  19.079  0.00  0.00    +0.000 A 
ATOM     25  S   UNL     1      54.276  -3.335  18.474  0.00  0.00    +0.000 S 
ATOM     26  C   UNL     1      54.881  -2.716  17.009  0.00  0.00    +0.000 A 
ATOM     27  N   UNL     1      55.233  -3.546  15.991  0.00  0.00    +0.000 NA
ATOM     28  C   UNL     1      55.647  -2.940  14.928  0.00  0.00    +0.000 A 
ATOM     29  N   UNL     1      55.772  -1.580  14.803  0.00  0.00    +0.000 N 
ATOM     30  C   UNL     1      55.485  -0.707  15.825  0.00  0.00    +0.000 A 
ATOM     31  O   UNL     1      55.710   0.494  15.723  0.00  0.00    +0.000 OA
ATOM     32  C   UNL     1      54.940  -1.334  17.015  0.00  0.00    +0.000 A 
ATOM     33  H   UNL     1      56.147  -1.172  13.959  0.00  0.00    +0.000 HD
ENDBRANCH  20  23
ENDBRANCH  18  19
ENDBRANCH   4  18
TORSDOF 5
ENDMDL
