MODEL 1
REMARK VINA RESULT:    -8.545      0.000      0.000
REMARK INTER + INTRA:         -11.842
REMARK INTER:                 -11.043
REMARK INTRA:                  -0.799
REMARK UNBOUND:                -0.799
REMARK  Name = 
REMARK  5 active torsions:
REMARK  status: ('A' for Active; 'I' for Inactive)
REMARK    1  A    between atoms: C_2  and  C_18
REMARK    2  A    between atoms: N_3  and  C_4
REMARK    3  A    between atoms: C_4  and  C_5
REMARK    4  A    between atoms: C_8  and  C_9
REMARK    5  A    between atoms: C_9  and  C_10
REMARK                            x       y       z     vdW  Elec       q    Type
REMARK                         _______ _______ _______ _____ _____    ______ ____
ROOT
ATOM      1  O   UNL     1      46.953   3.676  14.182  0.00  0.00    +0.000 OA
ATOM      2  C   UNL     1      46.830   4.897  14.133  0.00  0.00    +0.000 C 
ATOM      3  N   UNL     1      45.654   5.498  13.764  0.00  0.00    +0.000 N 
ATOM      4  H   UNL     1      45.651   6.493  13.565  0.00  0.00    +0.000 HD
ENDROOT
BRANCH   2   5
ATOM      5  C   UNL     1      47.925   5.795  14.521  0.00  0.00    +0.000 A 
ATOM      6  C   UNL     1      48.507   6.624  13.571  0.00  0.00    +0.000 A 
ATOM      7  S   UNL     1      49.775   7.584  14.189  0.00  0.00    +0.000 S 
ATOM      8  C   UNL     1      49.558   6.960  15.756  0.00  0.00    +0.000 A 
ATOM      9  N   UNL     1      50.320   7.397  16.795  0.00  0.00    +0.000 NA
ATOM     10  C   UNL     1      50.017   6.875  17.938  0.00  0.00    +0.000 A 
ATOM     11  N   UNL     1      49.030   5.944  18.131  0.00  0.00    +0.000 N 
ATOM     12  C   UNL     1      48.291   5.415  17.100  0.00  0.00    +0.000 A 
ATOM     13  O   UNL     1      47.515   4.483  17.291  0.00  0.00    +0.000 OA
ATOM     14  C   UNL     1      48.554   6.011  15.804  0.00  0.00    +0.000 A 
ATOM     15  H   UNL     1      48.866   5.551  19.047  0.00  0.00    +0.000 HD
ENDBRANCH   2   5
BRANCH   3  16
ATOM     16  C   UNL     1      44.513   4.752  13.300  0.00  0.00    +0.000 C 
BRANCH  16  17
ATOM     17  C   UNL     1      44.581   4.514  11.821  0.00  0.00    +0.000 A 
ATOM     18  C   UNL     1      45.332   5.334  10.975  0.00  0.00    +0.000 A 
ATOM     19  C   UNL     1      45.372   5.066   9.608  0.00  0.00    +0.000 A 
ATOM     20  C   UNL     1      44.656   3.978   9.114  0.00  0.00    +0.000 A 
ATOM     21  N   UNL     1      43.935   3.159   9.921  0.00  0.00    +0.000 NA
ATOM     22  C   UNL     1      43.923   3.437  11.244  0.00  0.00    +0.000 A 
BRANCH  20  23
ATOM     23  C   UNL     1      44.688   3.637   7.641  0.00  0.00    +0.000 C 
BRANCH  23  24
ATOM     24  C   UNL     1      45.908   2.846   7.227  0.00  0.00    +0.000 A 
ATOM     25  C   UNL     1      46.702   3.270   6.156  0.00  0.00    +0.000 A 
ATOM     26  C   UNL     1      47.805   2.510   5.799  0.00  0.00    +0.000 A 
ATOM     27  N   UNL     1      48.174   1.378   6.433  0.00  0.00    +0.000 NA
ATOM     28  C   UNL     1      47.408   0.995   7.477  0.00  0.00    +0.000 A 
ATOM     29  C   UNL     1      46.282   1.684   7.907  0.00  0.00    +0.000 A 
ENDBRANCH  23  24
ENDBRANCH  20  23
ENDBRANCH  16  17
ENDBRANCH   3  16
TORSDOF 5
ENDMDL
MODEL 2
REMARK VINA RESULT:    -8.464      1.752      2.554
REMARK INTER + INTRA:         -11.737
REMARK INTER:                 -11.113
REMARK INTRA:                  -0.624
REMARK UNBOUND:                -0.799
REMARK  Name = 
REMARK  5 active torsions:
REMARK  status: ('A' for Active; 'I' for Inactive)
REMARK    1  A    between atoms: C_2  and  C_18
REMARK    2  A    between atoms: N_3  and  C_4
REMARK    3  A    between atoms: C_4  and  C_5
REMARK    4  A    between atoms: C_8  and  C_9
REMARK    5  A    between atoms: C_9  and  C_10
REMARK                            x       y       z     vdW  Elec       q    Type
REMARK                         _______ _______ _______ _____ _____    ______ ____
ROOT
ATOM      1  O   UNL     1      48.802   7.116  12.911  0.00  0.00    +0.000 OA
ATOM      2  C   UNL     1      48.046   6.791  13.823  0.00  0.00    +0.000 C 
ATOM      3  N   UNL     1      46.682   6.825  13.687  0.00  0.00    +0.000 N 
ATOM      4  H   UNL     1      46.102   6.723  14.514  0.00  0.00    +0.000 HD
ENDROOT
BRANCH   2   5
ATOM      5  C   UNL     1      48.559   6.293  15.106  0.00  0.00    +0.000 A 
ATOM      6  C   UNL     1      49.576   6.980  15.756  0.00  0.00    +0.000 A 
ATOM      7  S   UNL     1      50.063   6.251  17.220  0.00  0.00    +0.000 S 
ATOM      8  C   UNL     1      48.899   5.021  17.059  0.00  0.00    +0.000 A 
ATOM      9  N   UNL     1      48.759   4.061  18.013  0.00  0.00    +0.000 NA
ATOM     10  C   UNL     1      47.807   3.217  17.787  0.00  0.00    +0.000 A 
ATOM     11  N   UNL     1      46.992   3.239  16.685  0.00  0.00    +0.000 N 
ATOM     12  C   UNL     1      47.151   4.139  15.659  0.00  0.00    +0.000 A 
ATOM     13  O   UNL     1      46.496   4.040  14.624  0.00  0.00    +0.000 OA
ATOM     14  C   UNL     1      48.170   5.144  15.891  0.00  0.00    +0.000 A 
ATOM     15  H   UNL     1      46.287   2.529  16.552  0.00  0.00    +0.000 HD
ENDBRANCH   2   5
BRANCH   3  16
ATOM     16  C   UNL     1      46.031   7.345  12.513  0.00  0.00    +0.000 C 
BRANCH  16  17
ATOM     17  C   UNL     1      45.638   6.244  11.574  0.00  0.00    +0.000 A 
ATOM     18  C   UNL     1      44.841   5.173  11.984  0.00  0.00    +0.000 A 
ATOM     19  C   UNL     1      44.493   4.179  11.071  0.00  0.00    +0.000 A 
ATOM     20  C   UNL     1      44.954   4.278   9.760  0.00  0.00    +0.000 A 
ATOM     21  N   UNL     1      45.715   5.320   9.337  0.00  0.00    +0.000 NA
ATOM     22  C   UNL     1      46.027   6.275  10.241  0.00  0.00    +0.000 A 
BRANCH  20  23
ATOM     23  C   UNL     1      44.585   3.234   8.730  0.00  0.00    +0.000 C 
BRANCH  23  24
ATOM     24  C   UNL     1      45.778   2.613   8.040  0.00  0.00    +0.000 A 
ATOM     25  C   UNL     1      46.076   1.257   8.216  0.00  0.00    +0.000 A 
ATOM     26  C   UNL     1      47.186   0.728   7.577  0.00  0.00    +0.000 A 
ATOM     27  N   UNL     1      48.003   1.443   6.775  0.00  0.00    +0.000 NA
ATOM     28  C   UNL     1      47.689   2.745   6.601  0.00  0.00    +0.000 A 
ATOM     29  C   UNL     1      46.603   3.368   7.202  0.00  0.00    +0.000 A 
ENDBRANCH  23  24
ENDBRANCH  20  23
ENDBRANCH  16  17
ENDBRANCH   3  16
TORSDOF 5
ENDMDL
MODEL 3
REMARK VINA RESULT:    -8.395      1.898      2.556
REMARK INTER + INTRA:         -11.648
REMARK INTER:                 -10.827
REMARK INTRA:                  -0.821
REMARK UNBOUND:                -0.799
REMARK  Name = 
REMARK  5 active torsions:
REMARK  status: ('A' for Active; 'I' for Inactive)
REMARK    1  A    between atoms: C_2  and  C_18
REMARK    2  A    between atoms: N_3  and  C_4
REMARK    3  A    between atoms: C_4  and  C_5
REMARK    4  A    between atoms: C_8  and  C_9
REMARK    5  A    between atoms: C_9  and  C_10
REMARK                            x       y       z     vdW  Elec       q    Type
REMARK                         _______ _______ _______ _____ _____    ______ ____
ROOT
ATOM      1  O   UNL     1      48.666   6.068  13.784  0.00  0.00    +0.000 OA
ATOM      2  C   UNL     1      47.662   5.730  14.406  0.00  0.00    +0.000 C 
ATOM      3  N   UNL     1      46.396   5.976  13.938  0.00  0.00    +0.000 N 
ATOM      4  H   UNL     1      45.606   5.843  14.560  0.00  0.00    +0.000 HD
ENDROOT
BRANCH   2   5
ATOM      5  C   UNL     1      47.754   4.990  15.671  0.00  0.00    +0.000 A 
ATOM      6  C   UNL     1      47.376   3.655  15.719  0.00  0.00    +0.000 A 
ATOM      7  S   UNL     1      47.528   2.958  17.269  0.00  0.00    +0.000 S 
ATOM      8  C   UNL     1      48.150   4.402  17.917  0.00  0.00    +0.000 A 
ATOM      9  N   UNL     1      48.525   4.478  19.223  0.00  0.00    +0.000 NA
ATOM     10  C   UNL     1      49.024   5.619  19.571  0.00  0.00    +0.000 A 
ATOM     11  N   UNL     1      49.167   6.694  18.733  0.00  0.00    +0.000 N 
ATOM     12  C   UNL     1      48.728   6.688  17.431  0.00  0.00    +0.000 A 
ATOM     13  O   UNL     1      48.743   7.712  16.753  0.00  0.00    +0.000 OA
ATOM     14  C   UNL     1      48.212   5.412  16.974  0.00  0.00    +0.000 A 
ATOM     15  H   UNL     1      49.535   7.569  19.077  0.00  0.00    +0.000 HD
ENDBRANCH   2   5
BRANCH   3  16
ATOM     16  C   UNL     1      46.144   6.742  12.745  0.00  0.00    +0.000 C 
BRANCH  16  17
ATOM     17  C   UNL     1      45.749   5.857  11.600  0.00  0.00    +0.000 A 
ATOM     18  C   UNL     1      45.020   4.681  11.794  0.00  0.00    +0.000 A 
ATOM     19  C   UNL     1      44.667   3.897  10.697  0.00  0.00    +0.000 A 
ATOM     20  C   UNL     1      45.054   4.308   9.424  0.00  0.00    +0.000 A 
ATOM     21  N   UNL     1      45.748   5.455   9.212  0.00  0.00    +0.000 NA
ATOM     22  C   UNL     1      46.066   6.202  10.294  0.00  0.00    +0.000 A 
BRANCH  20  23
ATOM     23  C   UNL     1      44.675   3.500   8.203  0.00  0.00    +0.000 C 
BRANCH  23  24
ATOM     24  C   UNL     1      45.835   2.751   7.586  0.00  0.00    +0.000 A 
ATOM     25  C   UNL     1      46.219   1.499   8.080  0.00  0.00    +0.000 A 
ATOM     26  C   UNL     1      47.295   0.851   7.496  0.00  0.00    +0.000 A 
ATOM     27  N   UNL     1      48.000   1.351   6.459  0.00  0.00    +0.000 NA
ATOM     28  C   UNL     1      47.604   2.550   5.982  0.00  0.00    +0.000 A 
ATOM     29  C   UNL     1      46.543   3.279   6.503  0.00  0.00    +0.000 A 
ENDBRANCH  23  24
ENDBRANCH  20  23
ENDBRANCH  16  17
ENDBRANCH   3  16
TORSDOF 5
ENDMDL
MODEL 4
REMARK VINA RESULT:    -8.357      1.731      2.627
REMARK INTER + INTRA:         -11.599
REMARK INTER:                 -10.938
REMARK INTRA:                  -0.660
REMARK UNBOUND:                -0.799
REMARK  Name = 
REMARK  5 active torsions:
REMARK  status: ('A' for Active; 'I' for Inactive)
REMARK    1  A    between atoms: C_2  and  C_18
REMARK    2  A    between atoms: N_3  and  C_4
REMARK    3  A    between atoms: C_4  and  C_5
REMARK    4  A    between atoms: C_8  and  C_9
REMARK    5  A    between atoms: C_9  and  C_10
REMARK                            x       y       z     vdW  Elec       q    Type
REMARK                         _______ _______ _______ _____ _____    ______ ____
ROOT
ATOM      1  O   UNL     1      47.305   3.977  14.150  0.00  0.00    +0.000 OA
ATOM      2  C   UNL     1      47.119   5.186  14.038  0.00  0.00    +0.000 C 
ATOM      3  N   UNL     1      45.902   5.707  13.680  0.00  0.00    +0.000 N 
ATOM      4  H   UNL     1      45.841   6.688  13.426  0.00  0.00    +0.000 HD
ENDROOT
BRANCH   2   5
ATOM      5  C   UNL     1      48.181   6.158  14.332  0.00  0.00    +0.000 A 
ATOM      6  C   UNL     1      48.730   6.214  15.605  0.00  0.00    +0.000 A 
ATOM      7  S   UNL     1      49.934   7.412  15.776  0.00  0.00    +0.000 S 
ATOM      8  C   UNL     1      49.795   7.862  14.142  0.00  0.00    +0.000 A 
ATOM      9  N   UNL     1      50.586   8.835  13.615  0.00  0.00    +0.000 NA
ATOM     10  C   UNL     1      50.409   9.043  12.351  0.00  0.00    +0.000 A 
ATOM     11  N   UNL     1      49.501   8.375  11.572  0.00  0.00    +0.000 N 
ATOM     12  C   UNL     1      48.626   7.444  12.079  0.00  0.00    +0.000 A 
ATOM     13  O   UNL     1      47.733   6.969  11.382  0.00  0.00    +0.000 OA
ATOM     14  C   UNL     1      48.823   7.132  13.482  0.00  0.00    +0.000 A 
ATOM     15  H   UNL     1      49.389   8.609  10.596  0.00  0.00    +0.000 HD
ENDBRANCH   2   5
BRANCH   3  16
ATOM     16  C   UNL     1      44.784   4.882  13.303  0.00  0.00    +0.000 C 
BRANCH  16  17
ATOM     17  C   UNL     1      44.780   4.610  11.827  0.00  0.00    +0.000 A 
ATOM     18  C   UNL     1      45.368   5.488  10.914  0.00  0.00    +0.000 A 
ATOM     19  C   UNL     1      45.348   5.186   9.553  0.00  0.00    +0.000 A 
ATOM     20  C   UNL     1      44.735   4.007   9.134  0.00  0.00    +0.000 A 
ATOM     21  N   UNL     1      44.172   3.134  10.007  0.00  0.00    +0.000 NA
ATOM     22  C   UNL     1      44.217   3.446  11.322  0.00  0.00    +0.000 A 
BRANCH  20  23
ATOM     23  C   UNL     1      44.707   3.629   7.670  0.00  0.00    +0.000 C 
BRANCH  23  24
ATOM     24  C   UNL     1      45.920   2.846   7.222  0.00  0.00    +0.000 A 
ATOM     25  C   UNL     1      46.665   3.260   6.112  0.00  0.00    +0.000 A 
ATOM     26  C   UNL     1      47.763   2.508   5.725  0.00  0.00    +0.000 A 
ATOM     27  N   UNL     1      48.172   1.393   6.365  0.00  0.00    +0.000 NA
ATOM     28  C   UNL     1      47.454   1.020   7.446  0.00  0.00    +0.000 A 
ATOM     29  C   UNL     1      46.337   1.702   7.908  0.00  0.00    +0.000 A 
ENDBRANCH  23  24
ENDBRANCH  20  23
ENDBRANCH  16  17
ENDBRANCH   3  16
TORSDOF 5
ENDMDL
MODEL 5
REMARK VINA RESULT:    -7.675      2.250      2.880
REMARK INTER + INTRA:         -10.717
REMARK INTER:                  -9.888
REMARK INTRA:                  -0.829
REMARK UNBOUND:                -0.799
REMARK  Name = 
REMARK  5 active torsions:
REMARK  status: ('A' for Active; 'I' for Inactive)
REMARK    1  A    between atoms: C_2  and  C_18
REMARK    2  A    between atoms: N_3  and  C_4
REMARK    3  A    between atoms: C_4  and  C_5
REMARK    4  A    between atoms: C_8  and  C_9
REMARK    5  A    between atoms: C_9  and  C_10
REMARK                            x       y       z     vdW  Elec       q    Type
REMARK                         _______ _______ _______ _____ _____    ______ ____
ROOT
ATOM      1  O   UNL     1      46.130   8.969  12.971  0.00  0.00    +0.000 OA
ATOM      2  C   UNL     1      47.113   8.235  13.047  0.00  0.00    +0.000 C 
ATOM      3  N   UNL     1      47.001   6.870  13.109  0.00  0.00    +0.000 N 
ATOM      4  H   UNL     1      47.819   6.320  13.351  0.00  0.00    +0.000 HD
ENDROOT
BRANCH   2   5
ATOM      5  C   UNL     1      48.479   8.775  13.021  0.00  0.00    +0.000 A 
ATOM      6  C   UNL     1      48.777   9.860  12.207  0.00  0.00    +0.000 A 
ATOM      7  S   UNL     1      50.411  10.342  12.286  0.00  0.00    +0.000 S 
ATOM      8  C   UNL     1      50.765   9.150  13.446  0.00  0.00    +0.000 A 
ATOM      9  N   UNL     1      52.013   9.035  13.973  0.00  0.00    +0.000 NA
ATOM     10  C   UNL     1      52.131   8.119  14.878  0.00  0.00    +0.000 A 
ATOM     11  N   UNL     1      51.114   7.298  15.290  0.00  0.00    +0.000 N 
ATOM     12  C   UNL     1      49.860   7.323  14.727  0.00  0.00    +0.000 A 
ATOM     13  O   UNL     1      49.017   6.480  15.021  0.00  0.00    +0.000 OA
ATOM     14  C   UNL     1      49.661   8.373  13.747  0.00  0.00    +0.000 A 
ATOM     15  H   UNL     1      51.280   6.579  15.979  0.00  0.00    +0.000 HD
ENDBRANCH   2   5
BRANCH   3  16
ATOM     16  C   UNL     1      45.732   6.198  13.204  0.00  0.00    +0.000 C 
BRANCH  16  17
ATOM     17  C   UNL     1      45.428   5.427  11.953  0.00  0.00    +0.000 A 
ATOM     18  C   UNL     1      44.765   4.198  11.986  0.00  0.00    +0.000 A 
ATOM     19  C   UNL     1      44.496   3.524  10.796  0.00  0.00    +0.000 A 
ATOM     20  C   UNL     1      44.900   4.098   9.592  0.00  0.00    +0.000 A 
ATOM     21  N   UNL     1      45.530   5.298   9.537  0.00  0.00    +0.000 NA
ATOM     22  C   UNL     1      45.767   5.935  10.706  0.00  0.00    +0.000 A 
BRANCH  20  23
ATOM     23  C   UNL     1      44.611   3.413   8.275  0.00  0.00    +0.000 C 
BRANCH  23  24
ATOM     24  C   UNL     1      45.810   2.710   7.680  0.00  0.00    +0.000 A 
ATOM     25  C   UNL     1      46.136   1.405   8.065  0.00  0.00    +0.000 A 
ATOM     26  C   UNL     1      47.250   0.801   7.506  0.00  0.00    +0.000 A 
ATOM     27  N   UNL     1      48.047   1.393   6.592  0.00  0.00    +0.000 NA
ATOM     28  C   UNL     1      47.706   2.645   6.217  0.00  0.00    +0.000 A 
ATOM     29  C   UNL     1      46.614   3.336   6.723  0.00  0.00    +0.000 A 
ENDBRANCH  23  24
ENDBRANCH  20  23
ENDBRANCH  16  17
ENDBRANCH   3  16
TORSDOF 5
ENDMDL
MODEL 6
REMARK VINA RESULT:    -7.201      3.992      9.391
REMARK INTER + INTRA:         -10.105
REMARK INTER:                  -9.469
REMARK INTRA:                  -0.636
REMARK UNBOUND:                -0.799
REMARK  Name = 
REMARK  5 active torsions:
REMARK  status: ('A' for Active; 'I' for Inactive)
REMARK    1  A    between atoms: C_2  and  C_18
REMARK    2  A    between atoms: N_3  and  C_4
REMARK    3  A    between atoms: C_4  and  C_5
REMARK    4  A    between atoms: C_8  and  C_9
REMARK    5  A    between atoms: C_9  and  C_10
REMARK                            x       y       z     vdW  Elec       q    Type
REMARK                         _______ _______ _______ _____ _____    ______ ____
ROOT
ATOM      1  O   UNL     1      47.235   3.189  13.983  0.00  0.00    +0.000 OA
ATOM      2  C   UNL     1      46.726   4.215  14.427  0.00  0.00    +0.000 C 
ATOM      3  N   UNL     1      46.712   4.502  15.768  0.00  0.00    +0.000 N 
ATOM      4  H   UNL     1      46.129   5.262  16.104  0.00  0.00    +0.000 HD
ENDROOT
BRANCH   2   5
ATOM      5  C   UNL     1      46.143   5.230  13.540  0.00  0.00    +0.000 A 
ATOM      6  C   UNL     1      46.857   6.385  13.250  0.00  0.00    +0.000 A 
ATOM      7  S   UNL     1      46.023   7.462  12.222  0.00  0.00    +0.000 S 
ATOM      8  C   UNL     1      44.702   6.400  12.091  0.00  0.00    +0.000 A 
ATOM      9  N   UNL     1      43.630   6.710  11.312  0.00  0.00    +0.000 NA
ATOM     10  C   UNL     1      42.719   5.794  11.266  0.00  0.00    +0.000 A 
ATOM     11  N   UNL     1      42.778   4.603  11.941  0.00  0.00    +0.000 N 
ATOM     12  C   UNL     1      43.801   4.283  12.801  0.00  0.00    +0.000 A 
ATOM     13  O   UNL     1      43.751   3.272  13.496  0.00  0.00    +0.000 OA
ATOM     14  C   UNL     1      44.877   5.254  12.845  0.00  0.00    +0.000 A 
ATOM     15  H   UNL     1      42.016   3.943  11.888  0.00  0.00    +0.000 HD
ENDBRANCH   2   5
BRANCH   3  16
ATOM     16  C   UNL     1      47.190   3.579  16.765  0.00  0.00    +0.000 C 
BRANCH  16  17
ATOM     17  C   UNL     1      48.655   3.768  17.026  0.00  0.00    +0.000 A 
ATOM     18  C   UNL     1      49.501   2.690  17.298  0.00  0.00    +0.000 A 
ATOM     19  C   UNL     1      50.858   2.916  17.523  0.00  0.00    +0.000 A 
ATOM     20  C   UNL     1      51.341   4.222  17.474  0.00  0.00    +0.000 A 
ATOM     21  N   UNL     1      50.538   5.280  17.196  0.00  0.00    +0.000 NA
ATOM     22  C   UNL     1      49.229   5.031  16.969  0.00  0.00    +0.000 A 
BRANCH  20  23
ATOM     23  C   UNL     1      52.809   4.511  17.692  0.00  0.00    +0.000 C 
BRANCH  23  24
ATOM     24  C   UNL     1      53.479   3.559  18.656  0.00  0.00    +0.000 A 
ATOM     25  C   UNL     1      53.520   3.843  20.026  0.00  0.00    +0.000 A 
ATOM     26  C   UNL     1      54.155   2.951  20.875  0.00  0.00    +0.000 A 
ATOM     27  N   UNL     1      54.735   1.804  20.463  0.00  0.00    +0.000 NA
ATOM     28  C   UNL     1      54.668   1.536  19.141  0.00  0.00    +0.000 A 
ATOM     29  C   UNL     1      54.060   2.368  18.211  0.00  0.00    +0.000 A 
ENDBRANCH  23  24
ENDBRANCH  20  23
ENDBRANCH  16  17
ENDBRANCH   3  16
TORSDOF 5
ENDMDL
MODEL 7
REMARK VINA RESULT:    -7.033      3.165      8.445
REMARK INTER + INTRA:          -9.887
REMARK INTER:                  -9.104
REMARK INTRA:                  -0.783
REMARK UNBOUND:                -0.799
REMARK  Name = 
REMARK  5 active torsions:
REMARK  status: ('A' for Active; 'I' for Inactive)
REMARK    1  A    between atoms: C_2  and  C_18
REMARK    2  A    between atoms: N_3  and  C_4
REMARK    3  A    between atoms: C_4  and  C_5
REMARK    4  A    between atoms: C_8  and  C_9
REMARK    5  A    between atoms: C_9  and  C_10
REMARK                            x       y       z     vdW  Elec       q    Type
REMARK                         _______ _______ _______ _____ _____    ______ ____
ROOT
ATOM      1  O   UNL     1      45.873   7.910  11.846  0.00  0.00    +0.000 OA
ATOM      2  C   UNL     1      46.433   6.834  11.650  0.00  0.00    +0.000 C 
ATOM      3  N   UNL     1      47.688   6.566  12.133  0.00  0.00    +0.000 N 
ATOM      4  H   UNL     1      48.179   5.743  11.798  0.00  0.00    +0.000 HD
ENDROOT
BRANCH   2   5
ATOM      5  C   UNL     1      45.767   5.743  10.927  0.00  0.00    +0.000 A 
ATOM      6  C   UNL     1      45.953   5.607   9.558  0.00  0.00    +0.000 A 
ATOM      7  S   UNL     1      45.090   4.301   8.879  0.00  0.00    +0.000 S 
ATOM      8  C   UNL     1      44.479   3.843  10.398  0.00  0.00    +0.000 A 
ATOM      9  N   UNL     1      43.675   2.753  10.530  0.00  0.00    +0.000 NA
ATOM     10  C   UNL     1      43.321   2.492  11.745  0.00  0.00    +0.000 A 
ATOM     11  N   UNL     1      43.687   3.233  12.839  0.00  0.00    +0.000 N 
ATOM     12  C   UNL     1      44.429   4.387  12.744  0.00  0.00    +0.000 A 
ATOM     13  O   UNL     1      44.617   5.100  13.725  0.00  0.00    +0.000 OA
ATOM     14  C   UNL     1      44.899   4.692  11.406  0.00  0.00    +0.000 A 
ATOM     15  H   UNL     1      43.349   2.994  13.759  0.00  0.00    +0.000 HD
ENDBRANCH   2   5
BRANCH   3  16
ATOM     16  C   UNL     1      48.489   7.554  12.806  0.00  0.00    +0.000 C 
BRANCH  16  17
ATOM     17  C   UNL     1      48.999   7.040  14.120  0.00  0.00    +0.000 A 
ATOM     18  C   UNL     1      50.216   7.466  14.657  0.00  0.00    +0.000 A 
ATOM     19  C   UNL     1      50.642   6.967  15.887  0.00  0.00    +0.000 A 
ATOM     20  C   UNL     1      49.837   6.047  16.556  0.00  0.00    +0.000 A 
ATOM     21  N   UNL     1      48.644   5.634  16.059  0.00  0.00    +0.000 NA
ATOM     22  C   UNL     1      48.251   6.143  14.870  0.00  0.00    +0.000 A 
BRANCH  20  23
ATOM     23  C   UNL     1      50.250   5.495  17.902  0.00  0.00    +0.000 C 
BRANCH  23  24
ATOM     24  C   UNL     1      50.930   4.147  17.823  0.00  0.00    +0.000 A 
ATOM     25  C   UNL     1      50.227   3.018  17.389  0.00  0.00    +0.000 A 
ATOM     26  C   UNL     1      50.883   1.799  17.343  0.00  0.00    +0.000 A 
ATOM     27  N   UNL     1      52.178   1.629  17.684  0.00  0.00    +0.000 NA
ATOM     28  C   UNL     1      52.846   2.733  18.082  0.00  0.00    +0.000 A 
ATOM     29  C   UNL     1      52.277   3.996  18.167  0.00  0.00    +0.000 A 
ENDBRANCH  23  24
ENDBRANCH  20  23
ENDBRANCH  16  17
ENDBRANCH   3  16
TORSDOF 5
ENDMDL
MODEL 8
REMARK VINA RESULT:    -6.967      4.056      8.769
REMARK INTER + INTRA:          -9.802
REMARK INTER:                  -8.923
REMARK INTRA:                  -0.879
REMARK UNBOUND:                -0.799
REMARK  Name = 
REMARK  5 active torsions:
REMARK  status: ('A' for Active; 'I' for Inactive)
REMARK    1  A    between atoms: C_2  and  C_18
REMARK    2  A    between atoms: N_3  and  C_4
REMARK    3  A    between atoms: C_4  and  C_5
REMARK    4  A    between atoms: C_8  and  C_9
REMARK    5  A    between atoms: C_9  and  C_10
REMARK                            x       y       z     vdW  Elec       q    Type
REMARK                         _______ _______ _______ _____ _____    ______ ____
ROOT
ATOM      1  O   UNL     1      47.188   3.091  13.901  0.00  0.00    +0.000 OA
ATOM      2  C   UNL     1      46.741   4.135  14.370  0.00  0.00    +0.000 C 
ATOM      3  N   UNL     1      46.803   4.419  15.710  0.00  0.00    +0.000 N 
ATOM      4  H   UNL     1      46.266   5.201  16.073  0.00  0.00    +0.000 HD
ENDROOT
BRANCH   2   5
ATOM      5  C   UNL     1      46.156   5.174  13.511  0.00  0.00    +0.000 A 
ATOM      6  C   UNL     1      46.900   6.300  13.187  0.00  0.00    +0.000 A 
ATOM      7  S   UNL     1      46.060   7.411  12.200  0.00  0.00    +0.000 S 
ATOM      8  C   UNL     1      44.693   6.401  12.133  0.00  0.00    +0.000 A 
ATOM      9  N   UNL     1      43.598   6.754  11.407  0.00  0.00    +0.000 NA
ATOM     10  C   UNL     1      42.650   5.874  11.405  0.00  0.00    +0.000 A 
ATOM     11  N   UNL     1      42.696   4.680  12.076  0.00  0.00    +0.000 N 
ATOM     12  C   UNL     1      43.746   4.320  12.886  0.00  0.00    +0.000 A 
ATOM     13  O   UNL     1      43.690   3.310  13.583  0.00  0.00    +0.000 OA
ATOM     14  C   UNL     1      44.860   5.248  12.878  0.00  0.00    +0.000 A 
ATOM     15  H   UNL     1      41.907   4.051  12.060  0.00  0.00    +0.000 HD
ENDBRANCH   2   5
BRANCH   3  16
ATOM     16  C   UNL     1      47.291   3.477  16.682  0.00  0.00    +0.000 C 
BRANCH  16  17
ATOM     17  C   UNL     1      48.657   3.858  17.173  0.00  0.00    +0.000 A 
ATOM     18  C   UNL     1      49.686   2.921  17.293  0.00  0.00    +0.000 A 
ATOM     19  C   UNL     1      50.941   3.326  17.744  0.00  0.00    +0.000 A 
ATOM     20  C   UNL     1      51.140   4.666  18.068  0.00  0.00    +0.000 A 
ATOM     21  N   UNL     1      50.158   5.595  17.943  0.00  0.00    +0.000 NA
ATOM     22  C   UNL     1      48.954   5.176  17.492  0.00  0.00    +0.000 A 
BRANCH  20  23
ATOM     23  C   UNL     1      52.491   5.154  18.542  0.00  0.00    +0.000 C 
BRANCH  23  24
ATOM     24  C   UNL     1      53.507   5.302  17.432  0.00  0.00    +0.000 A 
ATOM     25  C   UNL     1      53.361   6.298  16.461  0.00  0.00    +0.000 A 
ATOM     26  C   UNL     1      54.306   6.393  15.452  0.00  0.00    +0.000 A 
ATOM     27  N   UNL     1      55.380   5.582  15.351  0.00  0.00    +0.000 NA
ATOM     28  C   UNL     1      55.516   4.639  16.308  0.00  0.00    +0.000 A 
ATOM     29  C   UNL     1      54.620   4.461  17.354  0.00  0.00    +0.000 A 
ENDBRANCH  23  24
ENDBRANCH  20  23
ENDBRANCH  16  17
ENDBRANCH   3  16
TORSDOF 5
ENDMDL
MODEL 9
REMARK VINA RESULT:    -6.636      2.371      3.788
REMARK INTER + INTRA:          -9.374
REMARK INTER:                  -8.649
REMARK INTRA:                  -0.725
REMARK UNBOUND:                -0.799
REMARK  Name = 
REMARK  5 active torsions:
REMARK  status: ('A' for Active; 'I' for Inactive)
REMARK    1  A    between atoms: C_2  and  C_18
REMARK    2  A    between atoms: N_3  and  C_4
REMARK    3  A    between atoms: C_4  and  C_5
REMARK    4  A    between atoms: C_8  and  C_9
REMARK    5  A    between atoms: C_9  and  C_10
REMARK                            x       y       z     vdW  Elec       q    Type
REMARK                         _______ _______ _______ _____ _____    ______ ____
ROOT
ATOM      1  O   UNL     1      49.201   9.064  16.179  0.00  0.00    +0.000 OA
ATOM      2  C   UNL     1      48.738   7.953  16.424  0.00  0.00    +0.000 C 
ATOM      3  N   UNL     1      48.497   7.029  15.440  0.00  0.00    +0.000 N 
ATOM      4  H   UNL     1      47.952   6.202  15.662  0.00  0.00    +0.000 HD
ENDROOT
BRANCH   2   5
ATOM      5  C   UNL     1      48.460   7.523  17.801  0.00  0.00    +0.000 A 
ATOM      6  C   UNL     1      47.792   8.376  18.669  0.00  0.00    +0.000 A 
ATOM      7  S   UNL     1      47.573   7.725  20.231  0.00  0.00    +0.000 S 
ATOM      8  C   UNL     1      48.318   6.263  19.785  0.00  0.00    +0.000 A 
ATOM      9  N   UNL     1      48.431   5.237  20.672  0.00  0.00    +0.000 NA
ATOM     10  C   UNL     1      48.975   4.168  20.188  0.00  0.00    +0.000 A 
ATOM     11  N   UNL     1      49.430   4.041  18.902  0.00  0.00    +0.000 N 
ATOM     12  C   UNL     1      49.411   5.076  17.998  0.00  0.00    +0.000 A 
ATOM     13  O   UNL     1      49.955   4.970  16.902  0.00  0.00    +0.000 OA
ATOM     14  C   UNL     1      48.758   6.280  18.475  0.00  0.00    +0.000 A 
ATOM     15  H   UNL     1      49.877   3.189  18.596  0.00  0.00    +0.000 HD
ENDBRANCH   2   5
BRANCH   3  16
ATOM     16  C   UNL     1      48.663   7.324  14.040  0.00  0.00    +0.000 C 
BRANCH  16  17
ATOM     17  C   UNL     1      47.575   6.698  13.218  0.00  0.00    +0.000 A 
ATOM     18  C   UNL     1      47.105   7.288  12.043  0.00  0.00    +0.000 A 
ATOM     19  C   UNL     1      46.100   6.663  11.308  0.00  0.00    +0.000 A 
ATOM     20  C   UNL     1      45.583   5.453  11.768  0.00  0.00    +0.000 A 
ATOM     21  N   UNL     1      46.037   4.855  12.898  0.00  0.00    +0.000 NA
ATOM     22  C   UNL     1      47.021   5.479  13.585  0.00  0.00    +0.000 A 
BRANCH  20  23
ATOM     23  C   UNL     1      44.506   4.728  10.992  0.00  0.00    +0.000 C 
BRANCH  23  24
ATOM     24  C   UNL     1      45.036   3.914   9.834  0.00  0.00    +0.000 A 
ATOM     25  C   UNL     1      45.610   4.544   8.724  0.00  0.00    +0.000 A 
ATOM     26  C   UNL     1      46.072   3.763   7.677  0.00  0.00    +0.000 A 
ATOM     27  N   UNL     1      46.014   2.415   7.663  0.00  0.00    +0.000 NA
ATOM     28  C   UNL     1      45.475   1.823   8.750  0.00  0.00    +0.000 A 
ATOM     29  C   UNL     1      44.980   2.518   9.845  0.00  0.00    +0.000 A 
ENDBRANCH  23  24
ENDBRANCH  20  23
ENDBRANCH  16  17
ENDBRANCH   3  16
TORSDOF 5
ENDMDL
