MODEL 1
REMARK VINA RESULT:    -8.886      0.000      0.000
REMARK INTER + INTRA:         -12.045
REMARK INTER:                 -11.483
REMARK INTRA:                  -0.562
REMARK UNBOUND:                -0.562
REMARK  Name = 
REMARK  5 active torsions:
REMARK  status: ('A' for Active; 'I' for Inactive)
REMARK    1  A    between atoms: C_2  and  C_18
REMARK    2  A    between atoms: N_3  and  C_4
REMARK    3  A    between atoms: C_4  and  C_5
REMARK    4  A    between atoms: N_8  and  C_9
REMARK    5  A    between atoms: C_9  and  C_10
REMARK                            x       y       z     vdW  Elec       q    Type
REMARK                         _______ _______ _______ _____ _____    ______ ____
ROOT
ATOM      1  O   UNL     1      48.360   5.919  12.881  0.00  0.00    +0.000 OA
ATOM      2  C   UNL     1      47.752   6.050  13.937  0.00  0.00    +0.000 C 
ATOM      3  N   UNL     1      46.384   6.159  14.008  0.00  0.00    +0.000 N 
ATOM      4  H   UNL     1      45.948   6.187  14.921  0.00  0.00    +0.000 HD
ENDROOT
BRANCH   2   5
ATOM      5  C   UNL     1      48.444   6.169  15.225  0.00  0.00    +0.000 A 
ATOM      6  C   UNL     1      49.401   7.149  15.430  0.00  0.00    +0.000 A 
ATOM      7  S   UNL     1      50.011   7.175  17.025  0.00  0.00    +0.000 S 
ATOM      8  C   UNL     1      49.056   5.842  17.477  0.00  0.00    +0.000 A 
ATOM      9  N   UNL     1      49.085   5.344  18.744  0.00  0.00    +0.000 NA
ATOM     10  C   UNL     1      48.327   4.315  18.933  0.00  0.00    +0.000 A 
ATOM     11  N   UNL     1      47.553   3.728  17.963  0.00  0.00    +0.000 N 
ATOM     12  C   UNL     1      47.490   4.194  16.674  0.00  0.00    +0.000 A 
ATOM     13  O   UNL     1      46.770   3.653  15.838  0.00  0.00    +0.000 OA
ATOM     14  C   UNL     1      48.298   5.371  16.419  0.00  0.00    +0.000 A 
ATOM     15  H   UNL     1      46.986   2.919  18.175  0.00  0.00    +0.000 HD
ENDBRANCH   2   5
BRANCH   3  16
ATOM     16  C   UNL     1      45.500   5.979  12.879  0.00  0.00    +0.000 C 
BRANCH  16  17
ATOM     17  C   UNL     1      44.584   4.750  13.031  0.00  0.00    +0.000 C 
ATOM     18  C   UNL     1      45.210   3.455  12.503  0.00  0.00    +0.000 C 
ATOM     19  C   UNL     1      45.388   3.470  10.982  0.00  0.00    +0.000 C 
ATOM     20  N   UNL     1      44.151   3.776  10.244  0.00  0.00    +0.000 NA
ATOM     21  C   UNL     1      43.452   4.965  10.763  0.00  0.00    +0.000 C 
ATOM     22  C   UNL     1      43.258   4.942  12.283  0.00  0.00    +0.000 C 
BRANCH  20  23
ATOM     23  C   UNL     1      44.425   3.969   8.798  0.00  0.00    +0.000 C 
BRANCH  23  24
ATOM     24  C   UNL     1      45.502   3.068   8.249  0.00  0.00    +0.000 A 
ATOM     25  C   UNL     1      46.490   3.541   7.383  0.00  0.00    +0.000 A 
ATOM     26  C   UNL     1      47.415   2.653   6.840  0.00  0.00    +0.000 A 
ATOM     27  C   UNL     1      47.331   1.317   7.195  0.00  0.00    +0.000 A 
ATOM     28  N   UNL     1      46.415   0.825   8.056  0.00  0.00    +0.000 NA
ATOM     29  C   UNL     1      45.527   1.710   8.564  0.00  0.00    +0.000 A 
ENDBRANCH  23  24
ENDBRANCH  20  23
ENDBRANCH  16  17
ENDBRANCH   3  16
TORSDOF 5
ENDMDL
MODEL 2
REMARK VINA RESULT:    -8.226      2.080      3.410
REMARK INTER + INTRA:         -11.192
REMARK INTER:                 -10.574
REMARK INTRA:                  -0.618
REMARK UNBOUND:                -0.562
REMARK  Name = 
REMARK  5 active torsions:
REMARK  status: ('A' for Active; 'I' for Inactive)
REMARK    1  A    between atoms: C_2  and  C_18
REMARK    2  A    between atoms: N_3  and  C_4
REMARK    3  A    between atoms: C_4  and  C_5
REMARK    4  A    between atoms: N_8  and  C_9
REMARK    5  A    between atoms: C_9  and  C_10
REMARK                            x       y       z     vdW  Elec       q    Type
REMARK                         _______ _______ _______ _____ _____    ______ ____
ROOT
ATOM      1  O   UNL     1      47.378   4.104  14.043  0.00  0.00    +0.000 OA
ATOM      2  C   UNL     1      47.220   5.319  14.037  0.00  0.00    +0.000 C 
ATOM      3  N   UNL     1      46.060   5.924  13.613  0.00  0.00    +0.000 N 
ATOM      4  H   UNL     1      45.975   6.927  13.710  0.00  0.00    +0.000 HD
ENDROOT
BRANCH   2   5
ATOM      5  C   UNL     1      48.288   6.247  14.424  0.00  0.00    +0.000 A 
ATOM      6  C   UNL     1      48.729   6.315  15.735  0.00  0.00    +0.000 A 
ATOM      7  S   UNL     1      50.043   7.386  15.951  0.00  0.00    +0.000 S 
ATOM      8  C   UNL     1      50.026   7.833  14.310  0.00  0.00    +0.000 A 
ATOM      9  N   UNL     1      50.923   8.728  13.808  0.00  0.00    +0.000 NA
ATOM     10  C   UNL     1      50.774   8.989  12.552  0.00  0.00    +0.000 A 
ATOM     11  N   UNL     1      49.796   8.449  11.754  0.00  0.00    +0.000 N 
ATOM     12  C   UNL     1      48.872   7.543  12.213  0.00  0.00    +0.000 A 
ATOM     13  O   UNL     1      48.024   7.067  11.463  0.00  0.00    +0.000 OA
ATOM     14  C   UNL     1      49.020   7.190  13.612  0.00  0.00    +0.000 A 
ATOM     15  H   UNL     1      49.729   8.700  10.778  0.00  0.00    +0.000 HD
ENDBRANCH   2   5
BRANCH   3  16
ATOM     16  C   UNL     1      44.852   5.206  13.275  0.00  0.00    +0.000 C 
BRANCH  16  17
ATOM     17  C   UNL     1      44.119   5.812  12.063  0.00  0.00    +0.000 C 
ATOM     18  C   UNL     1      42.910   4.987  11.608  0.00  0.00    +0.000 C 
ATOM     19  C   UNL     1      43.315   3.630  11.026  0.00  0.00    +0.000 C 
ATOM     20  N   UNL     1      44.306   3.723   9.941  0.00  0.00    +0.000 NA
ATOM     21  C   UNL     1      45.456   4.578  10.285  0.00  0.00    +0.000 C 
ATOM     22  C   UNL     1      45.051   5.943  10.851  0.00  0.00    +0.000 C 
BRANCH  20  23
ATOM     23  C   UNL     1      44.801   2.378   9.553  0.00  0.00    +0.000 C 
BRANCH  23  24
ATOM     24  C   UNL     1      45.701   2.377   8.343  0.00  0.00    +0.000 A 
ATOM     25  C   UNL     1      45.768   3.466   7.472  0.00  0.00    +0.000 A 
ATOM     26  C   UNL     1      46.554   3.386   6.325  0.00  0.00    +0.000 A 
ATOM     27  C   UNL     1      47.263   2.218   6.095  0.00  0.00    +0.000 A 
ATOM     28  N   UNL     1      47.254   1.157   6.929  0.00  0.00    +0.000 NA
ATOM     29  C   UNL     1      46.478   1.263   8.032  0.00  0.00    +0.000 A 
ENDBRANCH  23  24
ENDBRANCH  20  23
ENDBRANCH  16  17
ENDBRANCH   3  16
TORSDOF 5
ENDMDL
MODEL 3
REMARK VINA RESULT:    -7.859      1.790      2.380
REMARK INTER + INTRA:         -10.718
REMARK INTER:                 -10.705
REMARK INTRA:                  -0.014
REMARK UNBOUND:                -0.562
REMARK  Name = 
REMARK  5 active torsions:
REMARK  status: ('A' for Active; 'I' for Inactive)
REMARK    1  A    between atoms: C_2  and  C_18
REMARK    2  A    between atoms: N_3  and  C_4
REMARK    3  A    between atoms: C_4  and  C_5
REMARK    4  A    between atoms: N_8  and  C_9
REMARK    5  A    between atoms: C_9  and  C_10
REMARK                            x       y       z     vdW  Elec       q    Type
REMARK                         _______ _______ _______ _____ _____    ______ ____
ROOT
ATOM      1  O   UNL     1      46.720   3.478  16.278  0.00  0.00    +0.000 OA
ATOM      2  C   UNL     1      47.436   4.409  15.928  0.00  0.00    +0.000 C 
ATOM      3  N   UNL     1      47.282   5.068  14.731  0.00  0.00    +0.000 N 
ATOM      4  H   UNL     1      47.861   5.876  14.547  0.00  0.00    +0.000 HD
ENDROOT
BRANCH   2   5
ATOM      5  C   UNL     1      48.573   4.864  16.736  0.00  0.00    +0.000 A 
ATOM      6  C   UNL     1      48.667   6.182  17.151  0.00  0.00    +0.000 A 
ATOM      7  S   UNL     1      50.013   6.478  18.160  0.00  0.00    +0.000 S 
ATOM      8  C   UNL     1      50.543   4.867  18.028  0.00  0.00    +0.000 A 
ATOM      9  N   UNL     1      51.661   4.431  18.674  0.00  0.00    +0.000 NA
ATOM     10  C   UNL     1      51.954   3.191  18.460  0.00  0.00    +0.000 A 
ATOM     11  N   UNL     1      51.239   2.350  17.643  0.00  0.00    +0.000 N 
ATOM     12  C   UNL     1      50.107   2.743  16.973  0.00  0.00    +0.000 A 
ATOM     13  O   UNL     1      49.483   1.955  16.266  0.00  0.00    +0.000 OA
ATOM     14  C   UNL     1      49.716   4.119  17.209  0.00  0.00    +0.000 A 
ATOM     15  H   UNL     1      51.526   1.391  17.512  0.00  0.00    +0.000 HD
ENDBRANCH   2   5
BRANCH   3  16
ATOM     16  C   UNL     1      46.178   4.847  13.825  0.00  0.00    +0.000 C 
BRANCH  16  17
ATOM     17  C   UNL     1      45.755   6.127  13.080  0.00  0.00    +0.000 C 
ATOM     18  C   UNL     1      44.237   6.260  12.910  0.00  0.00    +0.000 C 
ATOM     19  C   UNL     1      43.660   5.199  11.970  0.00  0.00    +0.000 C 
ATOM     20  N   UNL     1      44.318   5.153  10.653  0.00  0.00    +0.000 NA
ATOM     21  C   UNL     1      45.789   5.114  10.747  0.00  0.00    +0.000 C 
ATOM     22  C   UNL     1      46.368   6.187  11.674  0.00  0.00    +0.000 C 
BRANCH  20  23
ATOM     23  C   UNL     1      43.852   3.987   9.863  0.00  0.00    +0.000 C 
BRANCH  23  24
ATOM     24  C   UNL     1      44.919   3.358   9.002  0.00  0.00    +0.000 A 
ATOM     25  C   UNL     1      45.585   4.078   8.008  0.00  0.00    +0.000 A 
ATOM     26  C   UNL     1      46.504   3.432   7.187  0.00  0.00    +0.000 A 
ATOM     27  C   UNL     1      46.741   2.084   7.398  0.00  0.00    +0.000 A 
ATOM     28  N   UNL     1      46.146   1.360   8.369  0.00  0.00    +0.000 NA
ATOM     29  C   UNL     1      45.254   2.013   9.148  0.00  0.00    +0.000 A 
ENDBRANCH  23  24
ENDBRANCH  20  23
ENDBRANCH  16  17
ENDBRANCH   3  16
TORSDOF 5
ENDMDL
MODEL 4
REMARK VINA RESULT:    -7.693      1.574      2.053
REMARK INTER + INTRA:         -10.503
REMARK INTER:                  -9.580
REMARK INTRA:                  -0.923
REMARK UNBOUND:                -0.562
REMARK  Name = 
REMARK  5 active torsions:
REMARK  status: ('A' for Active; 'I' for Inactive)
REMARK    1  A    between atoms: C_2  and  C_18
REMARK    2  A    between atoms: N_3  and  C_4
REMARK    3  A    between atoms: C_4  and  C_5
REMARK    4  A    between atoms: N_8  and  C_9
REMARK    5  A    between atoms: C_9  and  C_10
REMARK                            x       y       z     vdW  Elec       q    Type
REMARK                         _______ _______ _______ _____ _____    ______ ____
ROOT
ATOM      1  O   UNL     1      47.544   7.018  11.413  0.00  0.00    +0.000 OA
ATOM      2  C   UNL     1      47.483   7.176  12.626  0.00  0.00    +0.000 C 
ATOM      3  N   UNL     1      46.302   7.147  13.330  0.00  0.00    +0.000 N 
ATOM      4  H   UNL     1      46.339   7.208  14.338  0.00  0.00    +0.000 HD
ENDROOT
BRANCH   2   5
ATOM      5  C   UNL     1      48.670   7.479  13.434  0.00  0.00    +0.000 A 
ATOM      6  C   UNL     1      49.581   8.436  13.025  0.00  0.00    +0.000 A 
ATOM      7  S   UNL     1      50.834   8.703  14.156  0.00  0.00    +0.000 S 
ATOM      8  C   UNL     1      50.227   7.506  15.202  0.00  0.00    +0.000 A 
ATOM      9  N   UNL     1      50.833   7.226  16.389  0.00  0.00    +0.000 NA
ATOM     10  C   UNL     1      50.275   6.278  17.065  0.00  0.00    +0.000 A 
ATOM     11  N   UNL     1      49.172   5.571  16.653  0.00  0.00    +0.000 N 
ATOM     12  C   UNL     1      48.527   5.818  15.466  0.00  0.00    +0.000 A 
ATOM     13  O   UNL     1      47.532   5.175  15.141  0.00  0.00    +0.000 OA
ATOM     14  C   UNL     1      49.097   6.899  14.686  0.00  0.00    +0.000 A 
ATOM     15  H   UNL     1      48.788   4.835  17.227  0.00  0.00    +0.000 HD
ENDBRANCH   2   5
BRANCH   3  16
ATOM     16  C   UNL     1      45.029   6.777  12.754  0.00  0.00    +0.000 C 
BRANCH  16  17
ATOM     17  C   UNL     1      44.591   5.353  13.144  0.00  0.00    +0.000 C 
ATOM     18  C   UNL     1      45.538   4.263  12.630  0.00  0.00    +0.000 C 
ATOM     19  C   UNL     1      45.516   4.142  11.104  0.00  0.00    +0.000 C 
ATOM     20  N   UNL     1      44.167   3.950  10.544  0.00  0.00    +0.000 NA
ATOM     21  C   UNL     1      43.186   4.916  11.069  0.00  0.00    +0.000 C 
ATOM     22  C   UNL     1      43.195   5.025  12.597  0.00  0.00    +0.000 C 
BRANCH  20  23
ATOM     23  C   UNL     1      44.187   4.036   9.063  0.00  0.00    +0.000 C 
BRANCH  23  24
ATOM     24  C   UNL     1      45.251   3.190   8.410  0.00  0.00    +0.000 A 
ATOM     25  C   UNL     1      45.320   1.809   8.607  0.00  0.00    +0.000 A 
ATOM     26  C   UNL     1      46.368   1.084   8.046  0.00  0.00    +0.000 A 
ATOM     27  C   UNL     1      47.309   1.765   7.291  0.00  0.00    +0.000 A 
ATOM     28  N   UNL     1      47.259   3.091   7.047  0.00  0.00    +0.000 NA
ATOM     29  C   UNL     1      46.232   3.770   7.608  0.00  0.00    +0.000 A 
ENDBRANCH  23  24
ENDBRANCH  20  23
ENDBRANCH  16  17
ENDBRANCH   3  16
TORSDOF 5
ENDMDL
MODEL 5
REMARK VINA RESULT:    -7.556      2.931      3.514
REMARK INTER + INTRA:         -10.326
REMARK INTER:                  -9.602
REMARK INTRA:                  -0.724
REMARK UNBOUND:                -0.562
REMARK  Name = 
REMARK  5 active torsions:
REMARK  status: ('A' for Active; 'I' for Inactive)
REMARK    1  A    between atoms: C_2  and  C_18
REMARK    2  A    between atoms: N_3  and  C_4
REMARK    3  A    between atoms: C_4  and  C_5
REMARK    4  A    between atoms: N_8  and  C_9
REMARK    5  A    between atoms: C_9  and  C_10
REMARK                            x       y       z     vdW  Elec       q    Type
REMARK                         _______ _______ _______ _____ _____    ______ ____
ROOT
ATOM      1  O   UNL     1      44.989   7.584  10.879  0.00  0.00    +0.000 OA
ATOM      2  C   UNL     1      45.490   7.619  11.997  0.00  0.00    +0.000 C 
ATOM      3  N   UNL     1      45.019   6.879  13.056  0.00  0.00    +0.000 N 
ATOM      4  H   UNL     1      45.533   6.902  13.927  0.00  0.00    +0.000 HD
ENDROOT
BRANCH   2   5
ATOM      5  C   UNL     1      46.607   8.513  12.323  0.00  0.00    +0.000 A 
ATOM      6  C   UNL     1      46.506   9.879  12.120  0.00  0.00    +0.000 A 
ATOM      7  S   UNL     1      47.878  10.745  12.656  0.00  0.00    +0.000 S 
ATOM      8  C   UNL     1      48.672   9.315  13.125  0.00  0.00    +0.000 A 
ATOM      9  N   UNL     1      49.913   9.343  13.687  0.00  0.00    +0.000 NA
ATOM     10  C   UNL     1      50.400   8.180  13.969  0.00  0.00    +0.000 A 
ATOM     11  N   UNL     1      49.764   6.988  13.723  0.00  0.00    +0.000 N 
ATOM     12  C   UNL     1      48.514   6.910  13.160  0.00  0.00    +0.000 A 
ATOM     13  O   UNL     1      47.970   5.824  12.974  0.00  0.00    +0.000 OA
ATOM     14  C   UNL     1      47.909   8.192  12.857  0.00  0.00    +0.000 A 
ATOM     15  H   UNL     1      50.203   6.111  13.961  0.00  0.00    +0.000 HD
ENDBRANCH   2   5
BRANCH   3  16
ATOM     16  C   UNL     1      43.991   5.870  12.941  0.00  0.00    +0.000 C 
BRANCH  16  17
ATOM     17  C   UNL     1      44.506   4.456  13.271  0.00  0.00    +0.000 C 
ATOM     18  C   UNL     1      45.811   4.100  12.549  0.00  0.00    +0.000 C 
ATOM     19  C   UNL     1      45.624   3.971  11.035  0.00  0.00    +0.000 C 
ATOM     20  N   UNL     1      44.554   3.034  10.648  0.00  0.00    +0.000 NA
ATOM     21  C   UNL     1      43.295   3.269  11.375  0.00  0.00    +0.000 C 
ATOM     22  C   UNL     1      43.479   3.381  12.892  0.00  0.00    +0.000 C 
BRANCH  20  23
ATOM     23  C   UNL     1      44.291   3.099   9.189  0.00  0.00    +0.000 C 
BRANCH  23  24
ATOM     24  C   UNL     1      45.458   2.678   8.332  0.00  0.00    +0.000 A 
ATOM     25  C   UNL     1      46.074   3.559   7.440  0.00  0.00    +0.000 A 
ATOM     26  C   UNL     1      47.095   3.101   6.613  0.00  0.00    +0.000 A 
ATOM     27  C   UNL     1      47.480   1.774   6.716  0.00  0.00    +0.000 A 
ATOM     28  N   UNL     1      46.936   0.900   7.589  0.00  0.00    +0.000 NA
ATOM     29  C   UNL     1      45.943   1.372   8.376  0.00  0.00    +0.000 A 
ENDBRANCH  23  24
ENDBRANCH  20  23
ENDBRANCH  16  17
ENDBRANCH   3  16
TORSDOF 5
ENDMDL
MODEL 6
REMARK VINA RESULT:    -7.409      2.632      3.392
REMARK INTER + INTRA:         -10.136
REMARK INTER:                 -10.077
REMARK INTRA:                  -0.059
REMARK UNBOUND:                -0.562
REMARK  Name = 
REMARK  5 active torsions:
REMARK  status: ('A' for Active; 'I' for Inactive)
REMARK    1  A    between atoms: C_2  and  C_18
REMARK    2  A    between atoms: N_3  and  C_4
REMARK    3  A    between atoms: C_4  and  C_5
REMARK    4  A    between atoms: N_8  and  C_9
REMARK    5  A    between atoms: C_9  and  C_10
REMARK                            x       y       z     vdW  Elec       q    Type
REMARK                         _______ _______ _______ _____ _____    ______ ____
ROOT
ATOM      1  O   UNL     1      45.699   7.973  13.255  0.00  0.00    +0.000 OA
ATOM      2  C   UNL     1      46.700   7.371  12.884  0.00  0.00    +0.000 C 
ATOM      3  N   UNL     1      46.714   6.018  12.638  0.00  0.00    +0.000 N 
ATOM      4  H   UNL     1      47.556   5.605  12.260  0.00  0.00    +0.000 HD
ENDROOT
BRANCH   2   5
ATOM      5  C   UNL     1      47.999   8.035  12.731  0.00  0.00    +0.000 A 
ATOM      6  C   UNL     1      48.210   8.958  11.722  0.00  0.00    +0.000 A 
ATOM      7  S   UNL     1      49.755   9.684  11.782  0.00  0.00    +0.000 S 
ATOM      8  C   UNL     1      50.210   8.746  13.126  0.00  0.00    +0.000 A 
ATOM      9  N   UNL     1      51.436   8.880  13.705  0.00  0.00    +0.000 NA
ATOM     10  C   UNL     1      51.649   8.085  14.700  0.00  0.00    +0.000 A 
ATOM     11  N   UNL     1      50.751   7.154  15.160  0.00  0.00    +0.000 N 
ATOM     12  C   UNL     1      49.505   6.982  14.611  0.00  0.00    +0.000 A 
ATOM     13  O   UNL     1      48.722   6.150  15.063  0.00  0.00    +0.000 OA
ATOM     14  C   UNL     1      49.204   7.877  13.510  0.00  0.00    +0.000 A 
ATOM     15  H   UNL     1      50.983   6.556  15.940  0.00  0.00    +0.000 HD
ENDBRANCH   2   5
BRANCH   3  16
ATOM     16  C   UNL     1      45.533   5.185  12.637  0.00  0.00    +0.000 C 
BRANCH  16  17
ATOM     17  C   UNL     1      44.492   5.630  11.592  0.00  0.00    +0.000 C 
ATOM     18  C   UNL     1      43.315   4.658  11.453  0.00  0.00    +0.000 C 
ATOM     19  C   UNL     1      43.737   3.313  10.856  0.00  0.00    +0.000 C 
ATOM     20  N   UNL     1      44.454   3.431   9.575  0.00  0.00    +0.000 NA
ATOM     21  C   UNL     1      45.546   4.420   9.619  0.00  0.00    +0.000 C 
ATOM     22  C   UNL     1      45.121   5.773  10.200  0.00  0.00    +0.000 C 
BRANCH  20  23
ATOM     23  C   UNL     1      45.004   2.121   9.148  0.00  0.00    +0.000 C 
BRANCH  23  24
ATOM     24  C   UNL     1      45.968   2.204   7.992  0.00  0.00    +0.000 A 
ATOM     25  C   UNL     1      45.930   3.254   7.072  0.00  0.00    +0.000 A 
ATOM     26  C   UNL     1      46.790   3.244   5.977  0.00  0.00    +0.000 A 
ATOM     27  C   UNL     1      47.675   2.187   5.846  0.00  0.00    +0.000 A 
ATOM     28  N   UNL     1      47.769   1.171   6.730  0.00  0.00    +0.000 NA
ATOM     29  C   UNL     1      46.918   1.206   7.781  0.00  0.00    +0.000 A 
ENDBRANCH  23  24
ENDBRANCH  20  23
ENDBRANCH  16  17
ENDBRANCH   3  16
TORSDOF 5
ENDMDL
MODEL 7
REMARK VINA RESULT:    -7.181      3.462      8.283
REMARK INTER + INTRA:          -9.842
REMARK INTER:                  -9.843
REMARK INTRA:                   0.001
REMARK UNBOUND:                -0.562
REMARK  Name = 
REMARK  5 active torsions:
REMARK  status: ('A' for Active; 'I' for Inactive)
REMARK    1  A    between atoms: C_2  and  C_18
REMARK    2  A    between atoms: N_3  and  C_4
REMARK    3  A    between atoms: C_4  and  C_5
REMARK    4  A    between atoms: N_8  and  C_9
REMARK    5  A    between atoms: C_9  and  C_10
REMARK                            x       y       z     vdW  Elec       q    Type
REMARK                         _______ _______ _______ _____ _____    ______ ____
ROOT
ATOM      1  O   UNL     1      48.840   6.440  13.293  0.00  0.00    +0.000 OA
ATOM      2  C   UNL     1      47.736   6.171  13.752  0.00  0.00    +0.000 C 
ATOM      3  N   UNL     1      47.536   5.798  15.060  0.00  0.00    +0.000 N 
ATOM      4  H   UNL     1      46.587   5.667  15.385  0.00  0.00    +0.000 HD
ENDROOT
BRANCH   2   5
ATOM      5  C   UNL     1      46.527   6.159  12.919  0.00  0.00    +0.000 A 
ATOM      6  C   UNL     1      46.012   7.333  12.399  0.00  0.00    +0.000 A 
ATOM      7  S   UNL     1      44.662   7.086  11.381  0.00  0.00    +0.000 S 
ATOM      8  C   UNL     1      44.691   5.406  11.649  0.00  0.00    +0.000 A 
ATOM      9  N   UNL     1      43.793   4.575  11.051  0.00  0.00    +0.000 NA
ATOM     10  C   UNL     1      43.921   3.330  11.369  0.00  0.00    +0.000 A 
ATOM     11  N   UNL     1      44.858   2.841  12.244  0.00  0.00    +0.000 N 
ATOM     12  C   UNL     1      45.784   3.638  12.870  0.00  0.00    +0.000 A 
ATOM     13  O   UNL     1      46.620   3.160  13.634  0.00  0.00    +0.000 OA
ATOM     14  C   UNL     1      45.704   5.043  12.519  0.00  0.00    +0.000 A 
ATOM     15  H   UNL     1      44.901   1.854  12.456  0.00  0.00    +0.000 HD
ENDBRANCH   2   5
BRANCH   3  16
ATOM     16  C   UNL     1      48.565   5.830  16.074  0.00  0.00    +0.000 C 
BRANCH  16  17
ATOM     17  C   UNL     1      48.115   5.185  17.398  0.00  0.00    +0.000 C 
ATOM     18  C   UNL     1      49.256   5.004  18.406  0.00  0.00    +0.000 C 
ATOM     19  C   UNL     1      50.287   3.972  17.942  0.00  0.00    +0.000 C 
ATOM     20  N   UNL     1      49.703   2.666  17.593  0.00  0.00    +0.000 NA
ATOM     21  C   UNL     1      48.541   2.778  16.693  0.00  0.00    +0.000 C 
ATOM     22  C   UNL     1      47.500   3.798  17.167  0.00  0.00    +0.000 C 
BRANCH  20  23
ATOM     23  C   UNL     1      50.715   1.778  16.970  0.00  0.00    +0.000 C 
BRANCH  23  24
ATOM     24  C   UNL     1      52.016   1.696  17.728  0.00  0.00    +0.000 A 
ATOM     25  C   UNL     1      52.664   2.837  18.205  0.00  0.00    +0.000 A 
ATOM     26  C   UNL     1      53.903   2.716  18.830  0.00  0.00    +0.000 A 
ATOM     27  C   UNL     1      54.448   1.450  18.970  0.00  0.00    +0.000 A 
ATOM     28  N   UNL     1      53.838   0.320  18.555  0.00  0.00    +0.000 NA
ATOM     29  C   UNL     1      52.639   0.469  17.949  0.00  0.00    +0.000 A 
ENDBRANCH  23  24
ENDBRANCH  20  23
ENDBRANCH  16  17
ENDBRANCH   3  16
TORSDOF 5
ENDMDL
MODEL 8
REMARK VINA RESULT:    -6.988      3.061      8.328
REMARK INTER + INTRA:          -9.592
REMARK INTER:                  -9.149
REMARK INTRA:                  -0.443
REMARK UNBOUND:                -0.562
REMARK  Name = 
REMARK  5 active torsions:
REMARK  status: ('A' for Active; 'I' for Inactive)
REMARK    1  A    between atoms: C_2  and  C_18
REMARK    2  A    between atoms: N_3  and  C_4
REMARK    3  A    between atoms: C_4  and  C_5
REMARK    4  A    between atoms: N_8  and  C_9
REMARK    5  A    between atoms: C_9  and  C_10
REMARK                            x       y       z     vdW  Elec       q    Type
REMARK                         _______ _______ _______ _____ _____    ______ ____
ROOT
ATOM      1  O   UNL     1      48.623   5.924  13.128  0.00  0.00    +0.000 OA
ATOM      2  C   UNL     1      47.497   5.819  13.599  0.00  0.00    +0.000 C 
ATOM      3  N   UNL     1      47.259   5.471  14.908  0.00  0.00    +0.000 N 
ATOM      4  H   UNL     1      46.305   5.480  15.244  0.00  0.00    +0.000 HD
ENDROOT
BRANCH   2   5
ATOM      5  C   UNL     1      46.290   5.993  12.782  0.00  0.00    +0.000 A 
ATOM      6  C   UNL     1      45.869   7.254  12.397  0.00  0.00    +0.000 A 
ATOM      7  S   UNL     1      44.503   7.226  11.372  0.00  0.00    +0.000 S 
ATOM      8  C   UNL     1      44.399   5.530  11.456  0.00  0.00    +0.000 A 
ATOM      9  N   UNL     1      43.437   4.843  10.780  0.00  0.00    +0.000 NA
ATOM     10  C   UNL     1      43.466   3.564  10.959  0.00  0.00    +0.000 A 
ATOM     11  N   UNL     1      44.362   2.910  11.767  0.00  0.00    +0.000 N 
ATOM     12  C   UNL     1      45.349   3.559  12.467  0.00  0.00    +0.000 A 
ATOM     13  O   UNL     1      46.145   2.936  13.166  0.00  0.00    +0.000 OA
ATOM     14  C   UNL     1      45.380   4.995  12.271  0.00  0.00    +0.000 A 
ATOM     15  H   UNL     1      44.327   1.906  11.870  0.00  0.00    +0.000 HD
ENDBRANCH   2   5
BRANCH   3  16
ATOM     16  C   UNL     1      48.293   5.342  15.909  0.00  0.00    +0.000 C 
BRANCH  16  17
ATOM     17  C   UNL     1      48.857   6.702  16.360  0.00  0.00    +0.000 C 
ATOM     18  C   UNL     1      50.362   6.851  16.108  0.00  0.00    +0.000 C 
ATOM     19  C   UNL     1      51.196   5.912  16.983  0.00  0.00    +0.000 C 
ATOM     20  N   UNL     1      50.906   6.029  18.423  0.00  0.00    +0.000 NA
ATOM     21  C   UNL     1      49.463   5.983  18.723  0.00  0.00    +0.000 C 
ATOM     22  C   UNL     1      48.631   6.936  17.859  0.00  0.00    +0.000 C 
BRANCH  20  23
ATOM     23  C   UNL     1      51.596   4.967  19.195  0.00  0.00    +0.000 C 
BRANCH  23  24
ATOM     24  C   UNL     1      51.695   3.646  18.475  0.00  0.00    +0.000 A 
ATOM     25  C   UNL     1      50.595   3.069  17.836  0.00  0.00    +0.000 A 
ATOM     26  C   UNL     1      50.718   1.810  17.254  0.00  0.00    +0.000 A 
ATOM     27  C   UNL     1      51.946   1.173  17.317  0.00  0.00    +0.000 A 
ATOM     28  N   UNL     1      53.042   1.711  17.893  0.00  0.00    +0.000 NA
ATOM     29  C   UNL     1      52.892   2.932  18.454  0.00  0.00    +0.000 A 
ENDBRANCH  23  24
ENDBRANCH  20  23
ENDBRANCH  16  17
ENDBRANCH   3  16
TORSDOF 5
ENDMDL
MODEL 9
REMARK VINA RESULT:    -6.975      2.913      8.135
REMARK INTER + INTRA:          -9.576
REMARK INTER:                  -8.785
REMARK INTRA:                  -0.790
REMARK UNBOUND:                -0.562
REMARK  Name = 
REMARK  5 active torsions:
REMARK  status: ('A' for Active; 'I' for Inactive)
REMARK    1  A    between atoms: C_2  and  C_18
REMARK    2  A    between atoms: N_3  and  C_4
REMARK    3  A    between atoms: C_4  and  C_5
REMARK    4  A    between atoms: N_8  and  C_9
REMARK    5  A    between atoms: C_9  and  C_10
REMARK                            x       y       z     vdW  Elec       q    Type
REMARK                         _______ _______ _______ _____ _____    ______ ____
ROOT
ATOM      1  O   UNL     1      44.010   7.512  11.381  0.00  0.00    +0.000 OA
ATOM      2  C   UNL     1      44.853   6.635  11.528  0.00  0.00    +0.000 C 
ATOM      3  N   UNL     1      46.167   6.900  11.835  0.00  0.00    +0.000 N 
ATOM      4  H   UNL     1      46.787   6.121  12.018  0.00  0.00    +0.000 HD
ENDROOT
BRANCH   2   5
ATOM      5  C   UNL     1      44.546   5.215  11.324  0.00  0.00    +0.000 A 
ATOM      6  C   UNL     1      43.836   4.499  12.271  0.00  0.00    +0.000 A 
ATOM      7  S   UNL     1      43.502   2.892  11.794  0.00  0.00    +0.000 S 
ATOM      8  C   UNL     1      44.346   3.088  10.330  0.00  0.00    +0.000 A 
ATOM      9  N   UNL     1      44.438   2.077   9.422  0.00  0.00    +0.000 NA
ATOM     10  C   UNL     1      45.130   2.363   8.369  0.00  0.00    +0.000 A 
ATOM     11  N   UNL     1      45.752   3.567   8.149  0.00  0.00    +0.000 N 
ATOM     12  C   UNL     1      45.686   4.616   9.032  0.00  0.00    +0.000 A 
ATOM     13  O   UNL     1      46.241   5.685   8.790  0.00  0.00    +0.000 OA
ATOM     14  C   UNL     1      44.891   4.355  10.216  0.00  0.00    +0.000 A 
ATOM     15  H   UNL     1      46.285   3.725   7.306  0.00  0.00    +0.000 HD
ENDBRANCH   2   5
BRANCH   3  16
ATOM     16  C   UNL     1      46.669   8.214  12.168  0.00  0.00    +0.000 C 
BRANCH  16  17
ATOM     17  C   UNL     1      48.207   8.292  12.122  0.00  0.00    +0.000 C 
ATOM     18  C   UNL     1      48.894   6.964  12.457  0.00  0.00    +0.000 C 
ATOM     19  C   UNL     1      48.691   6.554  13.918  0.00  0.00    +0.000 C 
ATOM     20  N   UNL     1      49.087   7.592  14.885  0.00  0.00    +0.000 NA
ATOM     21  C   UNL     1      48.528   8.918  14.566  0.00  0.00    +0.000 C 
ATOM     22  C   UNL     1      48.746   9.336  13.108  0.00  0.00    +0.000 C 
BRANCH  20  23
ATOM     23  C   UNL     1      48.688   7.217  16.264  0.00  0.00    +0.000 C 
BRANCH  23  24
ATOM     24  C   UNL     1      49.114   5.830  16.675  0.00  0.00    +0.000 A 
ATOM     25  C   UNL     1      48.188   4.807  16.890  0.00  0.00    +0.000 A 
ATOM     26  C   UNL     1      48.625   3.566  17.345  0.00  0.00    +0.000 A 
ATOM     27  C   UNL     1      49.982   3.383  17.556  0.00  0.00    +0.000 A 
ATOM     28  N   UNL     1      50.912   4.333  17.327  0.00  0.00    +0.000 NA
ATOM     29  C   UNL     1      50.458   5.530  16.889  0.00  0.00    +0.000 A 
ENDBRANCH  23  24
ENDBRANCH  20  23
ENDBRANCH  16  17
ENDBRANCH   3  16
TORSDOF 5
ENDMDL
