MODEL 1
REMARK VINA RESULT:    -7.562      0.000      0.000
REMARK INTER + INTRA:         -10.430
REMARK INTER:                  -9.772
REMARK INTRA:                  -0.658
REMARK UNBOUND:                -0.658
REMARK  Name = 
REMARK  6 active torsions:
REMARK  status: ('A' for Active; 'I' for Inactive)
REMARK    1  A    between atoms: C_1  and  C_2
REMARK    2  A    between atoms: C_2  and  C_3
REMARK    3  A    between atoms: C_2  and  C_14
REMARK    4  A    between atoms: C_3  and  N_4
REMARK    5  A    between atoms: C_8  and  C_9
REMARK    6  A    between atoms: C_18  and  C_19
REMARK                            x       y       z     vdW  Elec       q    Type
REMARK                         _______ _______ _______ _____ _____    ______ ____
ROOT
ATOM      1  N   UNL     1      43.921   3.254  10.431  0.00  0.00    +0.000 N 
ATOM      2  C   UNL     1      44.831   3.057   9.375  0.00  0.00    +0.000 A 
ATOM      3  C   UNL     1      45.310   1.767   9.097  0.00  0.00    +0.000 A 
ATOM      4  N   UNL     1      46.178   1.473   8.090  0.00  0.00    +0.000 NA
ATOM      5  C   UNL     1      46.573   2.553   7.362  0.00  0.00    +0.000 A 
ATOM      6  C   UNL     1      46.129   3.834   7.637  0.00  0.00    +0.000 A 
ATOM      7  N   UNL     1      45.261   4.107   8.645  0.00  0.00    +0.000 NA
ATOM      8  H   UNL     1      43.118   2.645  10.292  0.00  0.00    +0.000 HD
ENDROOT
BRANCH   5   9
ATOM      9  C   UNL     1      47.504   2.333   6.221  0.00  0.00    +0.000 C 
ATOM     10  N   UNL     1      47.443   3.251   5.210  0.00  0.00    +0.000 N 
ATOM     11  O   UNL     1      48.286   1.393   6.190  0.00  0.00    +0.000 OA
ATOM     12  H   UNL     1      46.789   4.024   5.256  0.00  0.00    +0.000 HD
ATOM     13  H   UNL     1      48.064   3.152   4.417  0.00  0.00    +0.000 HD
ENDBRANCH   5   9
BRANCH   1  14
ATOM     14  C   UNL     1      43.506   4.646  10.588  0.00  0.00    +0.000 C 
BRANCH  14  16
ATOM     15  C   UNL     1      42.657   5.482  12.871  0.00  0.00    +0.000 C 
ATOM     16  C   UNL     1      43.798   5.040  12.008  0.00  0.00    +0.000 C 
BRANCH  16  17
ATOM     17  C   UNL     1      45.180   5.371  12.383  0.00  0.00    +0.000 A 
ATOM     18  C   UNL     1      45.935   6.286  11.636  0.00  0.00    +0.000 A 
ATOM     19  C   UNL     1      47.219   6.654  12.049  0.00  0.00    +0.000 A 
ATOM     20  C   UNL     1      47.756   6.118  13.219  0.00  0.00    +0.000 A 
ATOM     21  C   UNL     1      47.021   5.191  13.961  0.00  0.00    +0.000 A 
ATOM     22  C   UNL     1      45.745   4.810  13.534  0.00  0.00    +0.000 A 
BRANCH  21  23
ATOM     23  C   UNL     1      47.550   4.652  15.178  0.00  0.00    +0.000 C 
ATOM     24  N   UNL     1      47.979   4.195  16.154  0.00  0.00    +0.000 NA
ENDBRANCH  21  23
ENDBRANCH  16  17
ENDBRANCH  14  16
ENDBRANCH   1  14
TORSDOF 5
ENDMDL
MODEL 2
REMARK VINA RESULT:    -7.417      2.047      2.714
REMARK INTER + INTRA:         -10.243
REMARK INTER:                  -9.672
REMARK INTRA:                  -0.571
REMARK UNBOUND:                -0.658
REMARK  Name = 
REMARK  6 active torsions:
REMARK  status: ('A' for Active; 'I' for Inactive)
REMARK    1  A    between atoms: C_1  and  C_2
REMARK    2  A    between atoms: C_2  and  C_3
REMARK    3  A    between atoms: C_2  and  C_14
REMARK    4  A    between atoms: C_3  and  N_4
REMARK    5  A    between atoms: C_8  and  C_9
REMARK    6  A    between atoms: C_18  and  C_19
REMARK                            x       y       z     vdW  Elec       q    Type
REMARK                         _______ _______ _______ _____ _____    ______ ____
ROOT
ATOM      1  N   UNL     1      43.828   3.409  10.431  0.00  0.00    +0.000 N 
ATOM      2  C   UNL     1      44.758   3.174   9.402  0.00  0.00    +0.000 A 
ATOM      3  C   UNL     1      45.186   1.864   9.131  0.00  0.00    +0.000 A 
ATOM      4  N   UNL     1      46.068   1.535   8.148  0.00  0.00    +0.000 NA
ATOM      5  C   UNL     1      46.533   2.598   7.437  0.00  0.00    +0.000 A 
ATOM      6  C   UNL     1      46.140   3.897   7.706  0.00  0.00    +0.000 A 
ATOM      7  N   UNL     1      45.257   4.206   8.689  0.00  0.00    +0.000 NA
ATOM      8  H   UNL     1      43.002   2.837  10.266  0.00  0.00    +0.000 HD
ENDROOT
BRANCH   5   9
ATOM      9  C   UNL     1      47.487   2.341   6.323  0.00  0.00    +0.000 C 
ATOM     10  N   UNL     1      47.440   3.218   5.276  0.00  0.00    +0.000 N 
ATOM     11  O   UNL     1      48.274   1.404   6.343  0.00  0.00    +0.000 OA
ATOM     12  H   UNL     1      46.781   3.988   5.281  0.00  0.00    +0.000 HD
ATOM     13  H   UNL     1      48.076   3.092   4.500  0.00  0.00    +0.000 HD
ENDBRANCH   5   9
BRANCH   1  14
ATOM     14  C   UNL     1      43.471   4.817  10.583  0.00  0.00    +0.000 C 
BRANCH  14  16
ATOM     15  C   UNL     1      43.042   4.963  13.118  0.00  0.00    +0.000 C 
ATOM     16  C   UNL     1      43.931   5.248  11.947  0.00  0.00    +0.000 C 
BRANCH  16  17
ATOM     17  C   UNL     1      44.991   6.260  12.053  0.00  0.00    +0.000 A 
ATOM     18  C   UNL     1      46.343   5.893  12.090  0.00  0.00    +0.000 A 
ATOM     19  C   UNL     1      47.345   6.867  12.108  0.00  0.00    +0.000 A 
ATOM     20  C   UNL     1      47.005   8.219  12.081  0.00  0.00    +0.000 A 
ATOM     21  C   UNL     1      45.661   8.597  12.064  0.00  0.00    +0.000 A 
ATOM     22  C   UNL     1      44.660   7.620  12.066  0.00  0.00    +0.000 A 
BRANCH  21  23
ATOM     23  C   UNL     1      45.297   9.982  12.009  0.00  0.00    +0.000 C 
ATOM     24  N   UNL     1      44.988  11.098  11.947  0.00  0.00    +0.000 NA
ENDBRANCH  21  23
ENDBRANCH  16  17
ENDBRANCH  14  16
ENDBRANCH   1  14
TORSDOF 5
ENDMDL
MODEL 3
REMARK VINA RESULT:    -7.292      3.107      6.315
REMARK INTER + INTRA:         -10.081
REMARK INTER:                  -9.438
REMARK INTRA:                  -0.643
REMARK UNBOUND:                -0.658
REMARK  Name = 
REMARK  6 active torsions:
REMARK  status: ('A' for Active; 'I' for Inactive)
REMARK    1  A    between atoms: C_1  and  C_2
REMARK    2  A    between atoms: C_2  and  C_3
REMARK    3  A    between atoms: C_2  and  C_14
REMARK    4  A    between atoms: C_3  and  N_4
REMARK    5  A    between atoms: C_8  and  C_9
REMARK    6  A    between atoms: C_18  and  C_19
REMARK                            x       y       z     vdW  Elec       q    Type
REMARK                         _______ _______ _______ _____ _____    ______ ____
ROOT
ATOM      1  N   UNL     1      44.746   4.578  13.028  0.00  0.00    +0.000 N 
ATOM      2  C   UNL     1      45.953   5.298  13.098  0.00  0.00    +0.000 A 
ATOM      3  C   UNL     1      46.806   5.128  14.200  0.00  0.00    +0.000 A 
ATOM      4  N   UNL     1      47.999   5.766  14.351  0.00  0.00    +0.000 NA
ATOM      5  C   UNL     1      48.308   6.618  13.336  0.00  0.00    +0.000 A 
ATOM      6  C   UNL     1      47.468   6.815  12.254  0.00  0.00    +0.000 A 
ATOM      7  N   UNL     1      46.282   6.168  12.120  0.00  0.00    +0.000 NA
ATOM      8  H   UNL     1      44.950   3.584  13.117  0.00  0.00    +0.000 HD
ENDROOT
BRANCH   5   9
ATOM      9  C   UNL     1      49.604   7.347  13.395  0.00  0.00    +0.000 C 
ATOM     10  N   UNL     1      50.340   7.360  12.243  0.00  0.00    +0.000 N 
ATOM     11  O   UNL     1      49.988   7.912  14.410  0.00  0.00    +0.000 OA
ATOM     12  H   UNL     1      50.003   6.887  11.412  0.00  0.00    +0.000 HD
ATOM     13  H   UNL     1      51.224   7.851  12.229  0.00  0.00    +0.000 HD
ENDBRANCH   5   9
BRANCH   1  14
ATOM     14  C   UNL     1      43.975   4.851  11.818  0.00  0.00    +0.000 C 
BRANCH  14  16
ATOM     15  C   UNL     1      43.377   2.349  11.705  0.00  0.00    +0.000 C 
ATOM     16  C   UNL     1      43.913   3.574  11.030  0.00  0.00    +0.000 C 
BRANCH  16  17
ATOM     17  C   UNL     1      44.724   3.451   9.811  0.00  0.00    +0.000 A 
ATOM     18  C   UNL     1      45.145   4.585   9.103  0.00  0.00    +0.000 A 
ATOM     19  C   UNL     1      45.984   4.460   7.992  0.00  0.00    +0.000 A 
ATOM     20  C   UNL     1      46.417   3.199   7.584  0.00  0.00    +0.000 A 
ATOM     21  C   UNL     1      45.989   2.060   8.269  0.00  0.00    +0.000 A 
ATOM     22  C   UNL     1      45.134   2.188   9.368  0.00  0.00    +0.000 A 
BRANCH  21  23
ATOM     23  C   UNL     1      46.448   0.761   7.877  0.00  0.00    +0.000 C 
ATOM     24  N   UNL     1      46.833  -0.292   7.579  0.00  0.00    +0.000 NA
ENDBRANCH  21  23
ENDBRANCH  16  17
ENDBRANCH  14  16
ENDBRANCH   1  14
TORSDOF 5
ENDMDL
MODEL 4
REMARK VINA RESULT:    -7.074      1.588      2.166
REMARK INTER + INTRA:          -9.800
REMARK INTER:                  -9.529
REMARK INTRA:                  -0.271
REMARK UNBOUND:                -0.658
REMARK  Name = 
REMARK  6 active torsions:
REMARK  status: ('A' for Active; 'I' for Inactive)
REMARK    1  A    between atoms: C_1  and  C_2
REMARK    2  A    between atoms: C_2  and  C_3
REMARK    3  A    between atoms: C_2  and  C_14
REMARK    4  A    between atoms: C_3  and  N_4
REMARK    5  A    between atoms: C_8  and  C_9
REMARK    6  A    between atoms: C_18  and  C_19
REMARK                            x       y       z     vdW  Elec       q    Type
REMARK                         _______ _______ _______ _____ _____    ______ ____
ROOT
ATOM      1  N   UNL     1      44.292   5.099   9.688  0.00  0.00    +0.000 N 
ATOM      2  C   UNL     1      44.995   4.046   9.074  0.00  0.00    +0.000 A 
ATOM      3  C   UNL     1      45.917   4.323   8.052  0.00  0.00    +0.000 A 
ATOM      4  N   UNL     1      46.655   3.377   7.410  0.00  0.00    +0.000 NA
ATOM      5  C   UNL     1      46.417   2.104   7.829  0.00  0.00    +0.000 A 
ATOM      6  C   UNL     1      45.495   1.812   8.818  0.00  0.00    +0.000 A 
ATOM      7  N   UNL     1      44.769   2.770   9.449  0.00  0.00    +0.000 NA
ATOM      8  H   UNL     1      44.960   5.779  10.044  0.00  0.00    +0.000 HD
ENDROOT
BRANCH   5   9
ATOM      9  C   UNL     1      47.192   0.997   7.205  0.00  0.00    +0.000 C 
ATOM     10  N   UNL     1      46.900  -0.264   7.644  0.00  0.00    +0.000 N 
ATOM     11  O   UNL     1      48.037   1.199   6.343  0.00  0.00    +0.000 OA
ATOM     12  H   UNL     1      46.196  -0.409   8.358  0.00  0.00    +0.000 HD
ATOM     13  H   UNL     1      47.393  -1.051   7.242  0.00  0.00    +0.000 HD
ENDBRANCH   5   9
BRANCH   1  14
ATOM     14  C   UNL     1      43.380   4.656  10.739  0.00  0.00    +0.000 C 
BRANCH  14  16
ATOM     15  C   UNL     1      43.456   4.356  13.296  0.00  0.00    +0.000 C 
ATOM     16  C   UNL     1      44.033   4.966  12.056  0.00  0.00    +0.000 C 
BRANCH  16  17
ATOM     17  C   UNL     1      44.921   6.133  12.151  0.00  0.00    +0.000 A 
ATOM     18  C   UNL     1      44.478   7.413  11.789  0.00  0.00    +0.000 A 
ATOM     19  C   UNL     1      45.304   8.527  11.961  0.00  0.00    +0.000 A 
ATOM     20  C   UNL     1      46.579   8.374  12.504  0.00  0.00    +0.000 A 
ATOM     21  C   UNL     1      47.039   7.102  12.850  0.00  0.00    +0.000 A 
ATOM     22  C   UNL     1      46.217   5.986  12.659  0.00  0.00    +0.000 A 
BRANCH  21  23
ATOM     23  C   UNL     1      48.336   6.932  13.435  0.00  0.00    +0.000 C 
ATOM     24  N   UNL     1      49.394   6.788  13.888  0.00  0.00    +0.000 NA
ENDBRANCH  21  23
ENDBRANCH  16  17
ENDBRANCH  14  16
ENDBRANCH   1  14
TORSDOF 5
ENDMDL
MODEL 5
REMARK VINA RESULT:    -6.865      3.366      7.437
REMARK INTER + INTRA:          -9.529
REMARK INTER:                  -9.117
REMARK INTRA:                  -0.412
REMARK UNBOUND:                -0.658
REMARK  Name = 
REMARK  6 active torsions:
REMARK  status: ('A' for Active; 'I' for Inactive)
REMARK    1  A    between atoms: C_1  and  C_2
REMARK    2  A    between atoms: C_2  and  C_3
REMARK    3  A    between atoms: C_2  and  C_14
REMARK    4  A    between atoms: C_3  and  N_4
REMARK    5  A    between atoms: C_8  and  C_9
REMARK    6  A    between atoms: C_18  and  C_19
REMARK                            x       y       z     vdW  Elec       q    Type
REMARK                         _______ _______ _______ _____ _____    ______ ____
ROOT
ATOM      1  N   UNL     1      46.180   4.802  12.656  0.00  0.00    +0.000 N 
ATOM      2  C   UNL     1      46.848   4.804  13.895  0.00  0.00    +0.000 A 
ATOM      3  C   UNL     1      47.683   5.879  14.237  0.00  0.00    +0.000 A 
ATOM      4  N   UNL     1      48.358   5.980  15.415  0.00  0.00    +0.000 NA
ATOM      5  C   UNL     1      48.173   4.925  16.255  0.00  0.00    +0.000 A 
ATOM      6  C   UNL     1      47.372   3.847  15.924  0.00  0.00    +0.000 A 
ATOM      7  N   UNL     1      46.704   3.766  14.744  0.00  0.00    +0.000 NA
ATOM      8  H   UNL     1      45.638   5.660  12.572  0.00  0.00    +0.000 HD
ENDROOT
BRANCH   5   9
ATOM      9  C   UNL     1      48.850   4.951  17.581  0.00  0.00    +0.000 C 
ATOM     10  N   UNL     1      48.600   6.044  18.363  0.00  0.00    +0.000 N 
ATOM     11  O   UNL     1      49.580   4.044  17.956  0.00  0.00    +0.000 OA
ATOM     12  H   UNL     1      47.990   6.783  18.033  0.00  0.00    +0.000 HD
ATOM     13  H   UNL     1      49.028   6.103  19.277  0.00  0.00    +0.000 HD
ENDBRANCH   5   9
BRANCH   1  14
ATOM     14  C   UNL     1      45.339   3.626  12.450  0.00  0.00    +0.000 C 
BRANCH  14  16
ATOM     15  C   UNL     1      43.022   3.961  11.376  0.00  0.00    +0.000 C 
ATOM     16  C   UNL     1      44.510   3.879  11.223  0.00  0.00    +0.000 C 
BRANCH  16  17
ATOM     17  C   UNL     1      45.105   3.639   9.901  0.00  0.00    +0.000 A 
ATOM     18  C   UNL     1      45.426   4.702   9.046  0.00  0.00    +0.000 A 
ATOM     19  C   UNL     1      46.066   4.467   7.826  0.00  0.00    +0.000 A 
ATOM     20  C   UNL     1      46.398   3.165   7.452  0.00  0.00    +0.000 A 
ATOM     21  C   UNL     1      46.066   2.096   8.286  0.00  0.00    +0.000 A 
ATOM     22  C   UNL     1      45.408   2.333   9.497  0.00  0.00    +0.000 A 
BRANCH  21  23
ATOM     23  C   UNL     1      46.425   0.756   7.928  0.00  0.00    +0.000 C 
ATOM     24  N   UNL     1      46.738  -0.325   7.645  0.00  0.00    +0.000 NA
ENDBRANCH  21  23
ENDBRANCH  16  17
ENDBRANCH  14  16
ENDBRANCH   1  14
TORSDOF 5
ENDMDL
MODEL 6
REMARK VINA RESULT:    -6.259      3.252      7.530
REMARK INTER + INTRA:          -8.746
REMARK INTER:                  -8.297
REMARK INTRA:                  -0.449
REMARK UNBOUND:                -0.658
REMARK  Name = 
REMARK  6 active torsions:
REMARK  status: ('A' for Active; 'I' for Inactive)
REMARK    1  A    between atoms: C_1  and  C_2
REMARK    2  A    between atoms: C_2  and  C_3
REMARK    3  A    between atoms: C_2  and  C_14
REMARK    4  A    between atoms: C_3  and  N_4
REMARK    5  A    between atoms: C_8  and  C_9
REMARK    6  A    between atoms: C_18  and  C_19
REMARK                            x       y       z     vdW  Elec       q    Type
REMARK                         _______ _______ _______ _____ _____    ______ ____
ROOT
ATOM      1  N   UNL     1      48.402   7.112  13.765  0.00  0.00    +0.000 N 
ATOM      2  C   UNL     1      48.187   6.124  14.744  0.00  0.00    +0.000 A 
ATOM      3  C   UNL     1      48.587   6.355  16.070  0.00  0.00    +0.000 A 
ATOM      4  N   UNL     1      48.408   5.469  17.088  0.00  0.00    +0.000 NA
ATOM      5  C   UNL     1      47.813   4.304  16.715  0.00  0.00    +0.000 A 
ATOM      6  C   UNL     1      47.434   4.051  15.409  0.00  0.00    +0.000 A 
ATOM      7  N   UNL     1      47.618   4.948  14.407  0.00  0.00    +0.000 NA
ATOM      8  H   UNL     1      47.974   7.982  14.075  0.00  0.00    +0.000 HD
ENDROOT
BRANCH   5   9
ATOM      9  C   UNL     1      47.551   3.277  17.762  0.00  0.00    +0.000 C 
ATOM     10  N   UNL     1      48.432   3.245  18.806  0.00  0.00    +0.000 N 
ATOM     11  O   UNL     1      46.598   2.512  17.699  0.00  0.00    +0.000 OA
ATOM     12  H   UNL     1      49.213   3.889  18.840  0.00  0.00    +0.000 HD
ATOM     13  H   UNL     1      48.291   2.572  19.548  0.00  0.00    +0.000 HD
ENDBRANCH   5   9
BRANCH   1  14
ATOM     14  C   UNL     1      47.922   6.733  12.439  0.00  0.00    +0.000 C 
BRANCH  14  16
ATOM     15  C   UNL     1      46.144   8.517  12.974  0.00  0.00    +0.000 C 
ATOM     16  C   UNL     1      46.505   7.218  12.322  0.00  0.00    +0.000 C 
BRANCH  16  17
ATOM     17  C   UNL     1      45.454   6.260  11.950  0.00  0.00    +0.000 A 
ATOM     18  C   UNL     1      44.339   6.052  12.773  0.00  0.00    +0.000 A 
ATOM     19  C   UNL     1      43.307   5.200  12.370  0.00  0.00    +0.000 A 
ATOM     20  C   UNL     1      43.375   4.556  11.136  0.00  0.00    +0.000 A 
ATOM     21  C   UNL     1      44.490   4.740  10.316  0.00  0.00    +0.000 A 
ATOM     22  C   UNL     1      45.531   5.577  10.730  0.00  0.00    +0.000 A 
BRANCH  21  23
ATOM     23  C   UNL     1      44.562   4.106   9.033  0.00  0.00    +0.000 C 
ATOM     24  N   UNL     1      44.641   3.599   7.993  0.00  0.00    +0.000 NA
ENDBRANCH  21  23
ENDBRANCH  16  17
ENDBRANCH  14  16
ENDBRANCH   1  14
TORSDOF 5
ENDMDL
MODEL 7
REMARK VINA RESULT:    -6.254      3.675      6.157
REMARK INTER + INTRA:          -8.740
REMARK INTER:                  -8.335
REMARK INTRA:                  -0.406
REMARK UNBOUND:                -0.658
REMARK  Name = 
REMARK  6 active torsions:
REMARK  status: ('A' for Active; 'I' for Inactive)
REMARK    1  A    between atoms: C_1  and  C_2
REMARK    2  A    between atoms: C_2  and  C_3
REMARK    3  A    between atoms: C_2  and  C_14
REMARK    4  A    between atoms: C_3  and  N_4
REMARK    5  A    between atoms: C_8  and  C_9
REMARK    6  A    between atoms: C_18  and  C_19
REMARK                            x       y       z     vdW  Elec       q    Type
REMARK                         _______ _______ _______ _____ _____    ______ ____
ROOT
ATOM      1  N   UNL     1      47.074   4.970  15.232  0.00  0.00    +0.000 N 
ATOM      2  C   UNL     1      46.421   4.720  14.011  0.00  0.00    +0.000 A 
ATOM      3  C   UNL     1      46.005   5.794  13.208  0.00  0.00    +0.000 A 
ATOM      4  N   UNL     1      45.381   5.654  12.006  0.00  0.00    +0.000 NA
ATOM      5  C   UNL     1      45.168   4.362  11.636  0.00  0.00    +0.000 A 
ATOM      6  C   UNL     1      45.550   3.293  12.426  0.00  0.00    +0.000 A 
ATOM      7  N   UNL     1      46.173   3.452  13.622  0.00  0.00    +0.000 NA
ATOM      8  H   UNL     1      47.883   5.563  15.058  0.00  0.00    +0.000 HD
ENDROOT
BRANCH   5   9
ATOM      9  C   UNL     1      44.512   4.102  10.325  0.00  0.00    +0.000 C 
ATOM     10  N   UNL     1      44.880   4.922   9.295  0.00  0.00    +0.000 N 
ATOM     11  O   UNL     1      43.698   3.201  10.171  0.00  0.00    +0.000 OA
ATOM     12  H   UNL     1      45.558   5.661   9.443  0.00  0.00    +0.000 HD
ATOM     13  H   UNL     1      44.471   4.779   8.381  0.00  0.00    +0.000 HD
ENDBRANCH   5   9
BRANCH   1  14
ATOM     14  C   UNL     1      47.456   3.755  15.948  0.00  0.00    +0.000 C 
BRANCH  14  16
ATOM     15  C   UNL     1      47.325   5.033  18.180  0.00  0.00    +0.000 C 
ATOM     16  C   UNL     1      48.111   4.181  17.231  0.00  0.00    +0.000 C 
BRANCH  16  17
ATOM     17  C   UNL     1      49.574   4.110  17.341  0.00  0.00    +0.000 A 
ATOM     18  C   UNL     1      50.356   5.273  17.369  0.00  0.00    +0.000 A 
ATOM     19  C   UNL     1      51.740   5.196  17.555  0.00  0.00    +0.000 A 
ATOM     20  C   UNL     1      52.353   3.955  17.724  0.00  0.00    +0.000 A 
ATOM     21  C   UNL     1      51.587   2.788  17.678  0.00  0.00    +0.000 A 
ATOM     22  C   UNL     1      50.206   2.868  17.472  0.00  0.00    +0.000 A 
BRANCH  21  23
ATOM     23  C   UNL     1      52.200   1.509  17.877  0.00  0.00    +0.000 C 
ATOM     24  N   UNL     1      52.716   0.483  18.043  0.00  0.00    +0.000 NA
ENDBRANCH  21  23
ENDBRANCH  16  17
ENDBRANCH  14  16
ENDBRANCH   1  14
TORSDOF 5
ENDMDL
MODEL 8
REMARK VINA RESULT:    -5.952      3.758      8.206
REMARK INTER + INTRA:          -8.349
REMARK INTER:                  -7.932
REMARK INTRA:                  -0.417
REMARK UNBOUND:                -0.658
REMARK  Name = 
REMARK  6 active torsions:
REMARK  status: ('A' for Active; 'I' for Inactive)
REMARK    1  A    between atoms: C_1  and  C_2
REMARK    2  A    between atoms: C_2  and  C_3
REMARK    3  A    between atoms: C_2  and  C_14
REMARK    4  A    between atoms: C_3  and  N_4
REMARK    5  A    between atoms: C_8  and  C_9
REMARK    6  A    between atoms: C_18  and  C_19
REMARK                            x       y       z     vdW  Elec       q    Type
REMARK                         _______ _______ _______ _____ _____    ______ ____
ROOT
ATOM      1  N   UNL     1      46.890   4.934  14.538  0.00  0.00    +0.000 N 
ATOM      2  C   UNL     1      47.603   4.955  15.751  0.00  0.00    +0.000 A 
ATOM      3  C   UNL     1      47.189   4.143  16.819  0.00  0.00    +0.000 A 
ATOM      4  N   UNL     1      47.820   4.082  18.023  0.00  0.00    +0.000 NA
ATOM      5  C   UNL     1      48.903   4.899  18.127  0.00  0.00    +0.000 A 
ATOM      6  C   UNL     1      49.311   5.722  17.093  0.00  0.00    +0.000 A 
ATOM      7  N   UNL     1      48.669   5.768  15.897  0.00  0.00    +0.000 NA
ATOM      8  H   UNL     1      46.839   3.975  14.201  0.00  0.00    +0.000 HD
ENDROOT
BRANCH   5   9
ATOM      9  C   UNL     1      49.678   4.888  19.398  0.00  0.00    +0.000 C 
ATOM     10  N   UNL     1      49.217   4.051  20.376  0.00  0.00    +0.000 N 
ATOM     11  O   UNL     1      50.675   5.579  19.560  0.00  0.00    +0.000 OA
ATOM     12  H   UNL     1      48.391   3.486  20.221  0.00  0.00    +0.000 HD
ATOM     13  H   UNL     1      49.716   3.999  21.255  0.00  0.00    +0.000 HD
ENDBRANCH   5   9
BRANCH   1  14
ATOM     14  C   UNL     1      47.448   5.820  13.519  0.00  0.00    +0.000 C 
BRANCH  14  16
ATOM     15  C   UNL     1      46.119   7.926  12.861  0.00  0.00    +0.000 C 
ATOM     16  C   UNL     1      46.293   6.440  12.786  0.00  0.00    +0.000 C 
BRANCH  16  17
ATOM     17  C   UNL     1      45.171   5.585  12.375  0.00  0.00    +0.000 A 
ATOM     18  C   UNL     1      43.880   5.790  12.882  0.00  0.00    +0.000 A 
ATOM     19  C   UNL     1      42.805   5.024  12.422  0.00  0.00    +0.000 A 
ATOM     20  C   UNL     1      43.009   4.051  11.444  0.00  0.00    +0.000 A 
ATOM     21  C   UNL     1      44.294   3.824  10.946  0.00  0.00    +0.000 A 
ATOM     22  C   UNL     1      45.370   4.579  11.422  0.00  0.00    +0.000 A 
BRANCH  21  23
ATOM     23  C   UNL     1      44.513   2.847   9.922  0.00  0.00    +0.000 C 
ATOM     24  N   UNL     1      44.670   2.047   9.096  0.00  0.00    +0.000 NA
ENDBRANCH  21  23
ENDBRANCH  16  17
ENDBRANCH  14  16
ENDBRANCH   1  14
TORSDOF 5
ENDMDL
MODEL 9
REMARK VINA RESULT:    -5.813      3.300      5.300
REMARK INTER + INTRA:          -8.170
REMARK INTER:                  -7.709
REMARK INTRA:                  -0.462
REMARK UNBOUND:                -0.658
REMARK  Name = 
REMARK  6 active torsions:
REMARK  status: ('A' for Active; 'I' for Inactive)
REMARK    1  A    between atoms: C_1  and  C_2
REMARK    2  A    between atoms: C_2  and  C_3
REMARK    3  A    between atoms: C_2  and  C_14
REMARK    4  A    between atoms: C_3  and  N_4
REMARK    5  A    between atoms: C_8  and  C_9
REMARK    6  A    between atoms: C_18  and  C_19
REMARK                            x       y       z     vdW  Elec       q    Type
REMARK                         _______ _______ _______ _____ _____    ______ ____
ROOT
ATOM      1  N   UNL     1      46.849   7.879  12.311  0.00  0.00    +0.000 N 
ATOM      2  C   UNL     1      46.123   6.689  12.116  0.00  0.00    +0.000 A 
ATOM      3  C   UNL     1      45.724   6.317  10.823  0.00  0.00    +0.000 A 
ATOM      4  N   UNL     1      45.034   5.180  10.532  0.00  0.00    +0.000 NA
ATOM      5  C   UNL     1      44.736   4.416  11.618  0.00  0.00    +0.000 A 
ATOM      6  C   UNL     1      45.102   4.780  12.902  0.00  0.00    +0.000 A 
ATOM      7  N   UNL     1      45.792   5.917  13.172  0.00  0.00    +0.000 NA
ATOM      8  H   UNL     1      47.678   7.860  11.720  0.00  0.00    +0.000 HD
ENDROOT
BRANCH   5   9
ATOM      9  C   UNL     1      44.003   3.138  11.403  0.00  0.00    +0.000 C 
ATOM     10  N   UNL     1      43.721   2.410  12.526  0.00  0.00    +0.000 N 
ATOM     11  O   UNL     1      43.663   2.761  10.290  0.00  0.00    +0.000 OA
ATOM     12  H   UNL     1      44.011   2.741  13.439  0.00  0.00    +0.000 HD
ATOM     13  H   UNL     1      43.215   1.539  12.433  0.00  0.00    +0.000 HD
ENDBRANCH   5   9
BRANCH   1  14
ATOM     14  C   UNL     1      47.204   8.124  13.706  0.00  0.00    +0.000 C 
BRANCH  14  16
ATOM     15  C   UNL     1      49.564   7.872  12.707  0.00  0.00    +0.000 C 
ATOM     16  C   UNL     1      48.641   7.724  13.878  0.00  0.00    +0.000 C 
BRANCH  16  17
ATOM     17  C   UNL     1      49.007   6.849  15.001  0.00  0.00    +0.000 A 
ATOM     18  C   UNL     1      50.201   7.040  15.710  0.00  0.00    +0.000 A 
ATOM     19  C   UNL     1      50.499   6.254  16.826  0.00  0.00    +0.000 A 
ATOM     20  C   UNL     1      49.602   5.275  17.250  0.00  0.00    +0.000 A 
ATOM     21  C   UNL     1      48.418   5.062  16.541  0.00  0.00    +0.000 A 
ATOM     22  C   UNL     1      48.132   5.837  15.412  0.00  0.00    +0.000 A 
BRANCH  21  23
ATOM     23  C   UNL     1      47.475   4.078  16.981  0.00  0.00    +0.000 C 
ATOM     24  N   UNL     1      46.718   3.283  17.358  0.00  0.00    +0.000 NA
ENDBRANCH  21  23
ENDBRANCH  16  17
ENDBRANCH  14  16
ENDBRANCH   1  14
TORSDOF 5
ENDMDL
