MODEL 1
REMARK VINA RESULT:    -6.864      0.000      0.000
REMARK INTER + INTRA:          -9.009
REMARK INTER:                  -8.670
REMARK INTRA:                  -0.340
REMARK UNBOUND:                -0.340
REMARK  Name = 
REMARK  5 active torsions:
REMARK  status: ('A' for Active; 'I' for Inactive)
REMARK    1  A    between atoms: N_1  and  C_2
REMARK    2  A    between atoms: C_2  and  C_3
REMARK    3  A    between atoms: C_7  and  C_8
REMARK    4  A    between atoms: C_9  and  C_10
REMARK    5  A    between atoms: C_14  and  C_15
REMARK                            x       y       z     vdW  Elec       q    Type
REMARK                         _______ _______ _______ _____ _____    ______ ____
ROOT
ATOM      1  C   UNL     1      45.570   5.316   9.623  0.00  0.00    +0.000 C 
ATOM      2  C   UNL     1      45.632   5.454  10.957  0.00  0.00    +0.000 C 
ENDROOT
BRANCH   1   7
ATOM      3  C   UNL     1      46.579   2.823   6.982  0.00  0.00    +0.000 A 
ATOM      4  C   UNL     1      46.089   1.631   7.529  0.00  0.00    +0.000 A 
ATOM      5  C   UNL     1      45.391   1.638   8.736  0.00  0.00    +0.000 A 
ATOM      6  C   UNL     1      45.186   2.838   9.419  0.00  0.00    +0.000 A 
ATOM      7  C   UNL     1      45.658   4.045   8.890  0.00  0.00    +0.000 A 
ATOM      8  C   UNL     1      46.350   4.025   7.668  0.00  0.00    +0.000 A 
BRANCH   3   9
ATOM      9  C   UNL     1      47.399   2.805   5.718  0.00  0.00    +0.000 C 
BRANCH   9  10
ATOM     10  N   UNL     1      48.420   1.764   5.744  0.00  0.00    +0.000 NA
ATOM     11  H   UNL     1      48.103   1.003   6.341  0.00  0.00    +0.000 HD
ATOM     12  H   UNL     1      49.261   2.142   6.177  0.00  0.00    +0.000 HD
ENDBRANCH   9  10
ENDBRANCH   3   9
ENDBRANCH   1   7
BRANCH   2  13
ATOM     13  C   UNL     1      45.608   6.763  11.624  0.00  0.00    +0.000 A 
ATOM     14  C   UNL     1      46.459   7.039  12.696  0.00  0.00    +0.000 A 
ATOM     15  N   UNL     1      46.492   8.240  13.328  0.00  0.00    +0.000 NA
ATOM     16  C   UNL     1      45.632   9.170  12.840  0.00  0.00    +0.000 A 
ATOM     17  C   UNL     1      44.786   8.905  11.775  0.00  0.00    +0.000 A 
ATOM     18  N   UNL     1      44.751   7.699  11.142  0.00  0.00    +0.000 NA
BRANCH  17  19
ATOM     19  C   UNL     1      43.868   9.963  11.279  0.00  0.00    +0.000 C 
ATOM     20  N   UNL     1      43.099   9.636  10.195  0.00  0.00    +0.000 N 
ATOM     21  O   UNL     1      43.799  11.070  11.801  0.00  0.00    +0.000 OA
ATOM     22  H   UNL     1      43.181   8.722   9.766  0.00  0.00    +0.000 HD
ATOM     23  H   UNL     1      42.466  10.325   9.812  0.00  0.00    +0.000 HD
ENDBRANCH  17  19
ENDBRANCH   2  13
TORSDOF 5
ENDMDL
MODEL 2
REMARK VINA RESULT:    -6.658      1.633      2.518
REMARK INTER + INTRA:          -8.749
REMARK INTER:                  -8.455
REMARK INTRA:                  -0.294
REMARK UNBOUND:                -0.340
REMARK  Name = 
REMARK  5 active torsions:
REMARK  status: ('A' for Active; 'I' for Inactive)
REMARK    1  A    between atoms: N_1  and  C_2
REMARK    2  A    between atoms: C_2  and  C_3
REMARK    3  A    between atoms: C_7  and  C_8
REMARK    4  A    between atoms: C_9  and  C_10
REMARK    5  A    between atoms: C_14  and  C_15
REMARK                            x       y       z     vdW  Elec       q    Type
REMARK                         _______ _______ _______ _____ _____    ______ ____
ROOT
ATOM      1  C   UNL     1      45.631   5.377   9.544  0.00  0.00    +0.000 C 
ATOM      2  C   UNL     1      45.616   5.561  10.874  0.00  0.00    +0.000 C 
ENDROOT
BRANCH   1   7
ATOM      3  C   UNL     1      46.595   2.776   6.992  0.00  0.00    +0.000 A 
ATOM      4  C   UNL     1      46.109   1.609   7.594  0.00  0.00    +0.000 A 
ATOM      5  C   UNL     1      45.428   1.667   8.809  0.00  0.00    +0.000 A 
ATOM      6  C   UNL     1      45.237   2.894   9.445  0.00  0.00    +0.000 A 
ATOM      7  C   UNL     1      45.705   4.078   8.862  0.00  0.00    +0.000 A 
ATOM      8  C   UNL     1      46.379   4.006   7.632  0.00  0.00    +0.000 A 
BRANCH   3   9
ATOM      9  C   UNL     1      47.396   2.704   5.717  0.00  0.00    +0.000 C 
BRANCH   9  10
ATOM     10  N   UNL     1      48.499   1.756   5.819  0.00  0.00    +0.000 NA
ATOM     11  H   UNL     1      48.744   1.430   4.886  0.00  0.00    +0.000 HD
ATOM     12  H   UNL     1      48.182   0.940   6.339  0.00  0.00    +0.000 HD
ENDBRANCH   9  10
ENDBRANCH   3   9
ENDBRANCH   1   7
BRANCH   2  13
ATOM     13  C   UNL     1      45.612   6.893  11.493  0.00  0.00    +0.000 A 
ATOM     14  C   UNL     1      44.579   7.799  11.243  0.00  0.00    +0.000 A 
ATOM     15  N   UNL     1      44.518   9.031  11.810  0.00  0.00    +0.000 NA
ATOM     16  C   UNL     1      45.540   9.328  12.652  0.00  0.00    +0.000 A 
ATOM     17  C   UNL     1      46.568   8.434  12.907  0.00  0.00    +0.000 A 
ATOM     18  N   UNL     1      46.631   7.198  12.336  0.00  0.00    +0.000 NA
BRANCH  17  19
ATOM     19  C   UNL     1      47.660   8.810  13.842  0.00  0.00    +0.000 C 
ATOM     20  N   UNL     1      47.298   8.999  15.149  0.00  0.00    +0.000 N 
ATOM     21  O   UNL     1      48.821   8.950  13.475  0.00  0.00    +0.000 OA
ATOM     22  H   UNL     1      46.330   8.895  15.432  0.00  0.00    +0.000 HD
ATOM     23  H   UNL     1      48.001   9.267  15.824  0.00  0.00    +0.000 HD
ENDBRANCH  17  19
ENDBRANCH   2  13
TORSDOF 5
ENDMDL
MODEL 3
REMARK VINA RESULT:    -6.464      5.732      7.707
REMARK INTER + INTRA:          -8.503
REMARK INTER:                  -8.149
REMARK INTRA:                  -0.354
REMARK UNBOUND:                -0.340
REMARK  Name = 
REMARK  5 active torsions:
REMARK  status: ('A' for Active; 'I' for Inactive)
REMARK    1  A    between atoms: N_1  and  C_2
REMARK    2  A    between atoms: C_2  and  C_3
REMARK    3  A    between atoms: C_7  and  C_8
REMARK    4  A    between atoms: C_9  and  C_10
REMARK    5  A    between atoms: C_14  and  C_15
REMARK                            x       y       z     vdW  Elec       q    Type
REMARK                         _______ _______ _______ _____ _____    ______ ____
ROOT
ATOM      1  C   UNL     1      47.167   4.923  14.173  0.00  0.00    +0.000 C 
ATOM      2  C   UNL     1      46.777   4.301  15.298  0.00  0.00    +0.000 C 
ENDROOT
BRANCH   1   7
ATOM      3  C   UNL     1      44.564   4.127  11.566  0.00  0.00    +0.000 A 
ATOM      4  C   UNL     1      44.661   5.246  10.731  0.00  0.00    +0.000 A 
ATOM      5  C   UNL     1      45.602   6.243  10.987  0.00  0.00    +0.000 A 
ATOM      6  C   UNL     1      46.449   6.138  12.091  0.00  0.00    +0.000 A 
ATOM      7  C   UNL     1      46.379   5.026  12.937  0.00  0.00    +0.000 A 
ATOM      8  C   UNL     1      45.435   4.023  12.662  0.00  0.00    +0.000 A 
BRANCH   3   9
ATOM      9  C   UNL     1      43.497   3.088  11.333  0.00  0.00    +0.000 C 
BRANCH   9  10
ATOM     10  N   UNL     1      43.493   2.066  12.373  0.00  0.00    +0.000 NA
ATOM     11  H   UNL     1      42.679   2.201  12.969  0.00  0.00    +0.000 HD
ATOM     12  H   UNL     1      44.311   2.200  12.966  0.00  0.00    +0.000 HD
ENDBRANCH   9  10
ENDBRANCH   3   9
ENDBRANCH   1   7
BRANCH   2  13
ATOM     13  C   UNL     1      47.643   4.173  16.478  0.00  0.00    +0.000 A 
ATOM     14  C   UNL     1      47.335   4.830  17.670  0.00  0.00    +0.000 A 
ATOM     15  N   UNL     1      48.089   4.724  18.794  0.00  0.00    +0.000 NA
ATOM     16  C   UNL     1      49.178   3.922  18.681  0.00  0.00    +0.000 A 
ATOM     17  C   UNL     1      49.491   3.264  17.502  0.00  0.00    +0.000 A 
ATOM     18  N   UNL     1      48.735   3.372  16.373  0.00  0.00    +0.000 NA
BRANCH  17  19
ATOM     19  C   UNL     1      50.693   2.394  17.437  0.00  0.00    +0.000 C 
ATOM     20  N   UNL     1      51.738   2.745  18.250  0.00  0.00    +0.000 N 
ATOM     21  O   UNL     1      50.757   1.416  16.701  0.00  0.00    +0.000 OA
ATOM     22  H   UNL     1      51.673   3.566  18.840  0.00  0.00    +0.000 HD
ATOM     23  H   UNL     1      52.583   2.192  18.235  0.00  0.00    +0.000 HD
ENDBRANCH  17  19
ENDBRANCH   2  13
TORSDOF 5
ENDMDL
MODEL 4
REMARK VINA RESULT:    -6.250      3.478      7.800
REMARK INTER + INTRA:          -8.234
REMARK INTER:                  -7.931
REMARK INTRA:                  -0.303
REMARK UNBOUND:                -0.340
REMARK  Name = 
REMARK  5 active torsions:
REMARK  status: ('A' for Active; 'I' for Inactive)
REMARK    1  A    between atoms: N_1  and  C_2
REMARK    2  A    between atoms: C_2  and  C_3
REMARK    3  A    between atoms: C_7  and  C_8
REMARK    4  A    between atoms: C_9  and  C_10
REMARK    5  A    between atoms: C_14  and  C_15
REMARK                            x       y       z     vdW  Elec       q    Type
REMARK                         _______ _______ _______ _____ _____    ______ ____
ROOT
ATOM      1  C   UNL     1      45.535   5.626  10.959  0.00  0.00    +0.000 C 
ATOM      2  C   UNL     1      45.546   5.388   9.637  0.00  0.00    +0.000 C 
ENDROOT
BRANCH   1   7
ATOM      3  C   UNL     1      46.665   8.562  13.034  0.00  0.00    +0.000 A 
ATOM      4  C   UNL     1      45.728   9.535  12.665  0.00  0.00    +0.000 A 
ATOM      5  C   UNL     1      44.700   9.229  11.775  0.00  0.00    +0.000 A 
ATOM      6  C   UNL     1      44.604   7.947  11.231  0.00  0.00    +0.000 A 
ATOM      7  C   UNL     1      45.523   6.953  11.589  0.00  0.00    +0.000 A 
ATOM      8  C   UNL     1      46.547   7.272  12.496  0.00  0.00    +0.000 A 
BRANCH   3   9
ATOM      9  C   UNL     1      47.820   8.914  13.937  0.00  0.00    +0.000 C 
BRANCH   9  10
ATOM     10  N   UNL     1      47.394   9.107  15.318  0.00  0.00    +0.000 NA
ATOM     11  H   UNL     1      46.935   8.259  15.645  0.00  0.00    +0.000 HD
ATOM     12  H   UNL     1      46.692   9.845  15.344  0.00  0.00    +0.000 HD
ENDBRANCH   9  10
ENDBRANCH   3   9
ENDBRANCH   1   7
BRANCH   2  13
ATOM     13  C   UNL     1      45.629   4.035   9.073  0.00  0.00    +0.000 A 
ATOM     14  C   UNL     1      44.872   2.988   9.600  0.00  0.00    +0.000 A 
ATOM     15  N   UNL     1      44.895   1.727   9.098  0.00  0.00    +0.000 NA
ATOM     16  C   UNL     1      45.713   1.549   8.030  0.00  0.00    +0.000 A 
ATOM     17  C   UNL     1      46.468   2.583   7.499  0.00  0.00    +0.000 A 
ATOM     18  N   UNL     1      46.446   3.848   8.004  0.00  0.00    +0.000 NA
BRANCH  17  19
ATOM     19  C   UNL     1      47.343   2.331   6.325  0.00  0.00    +0.000 C 
ATOM     20  N   UNL     1      47.234   3.219   5.288  0.00  0.00    +0.000 N 
ATOM     21  O   UNL     1      48.121   1.385   6.277  0.00  0.00    +0.000 OA
ATOM     22  H   UNL     1      46.573   3.986   5.338  0.00  0.00    +0.000 HD
ATOM     23  H   UNL     1      47.799   3.086   4.461  0.00  0.00    +0.000 HD
ENDBRANCH  17  19
ENDBRANCH   2  13
TORSDOF 5
ENDMDL
MODEL 5
REMARK VINA RESULT:    -6.158      3.205      7.796
REMARK INTER + INTRA:          -8.117
REMARK INTER:                  -7.804
REMARK INTRA:                  -0.313
REMARK UNBOUND:                -0.340
REMARK  Name = 
REMARK  5 active torsions:
REMARK  status: ('A' for Active; 'I' for Inactive)
REMARK    1  A    between atoms: N_1  and  C_2
REMARK    2  A    between atoms: C_2  and  C_3
REMARK    3  A    between atoms: C_7  and  C_8
REMARK    4  A    between atoms: C_9  and  C_10
REMARK    5  A    between atoms: C_14  and  C_15
REMARK                            x       y       z     vdW  Elec       q    Type
REMARK                         _______ _______ _______ _____ _____    ______ ____
ROOT
ATOM      1  C   UNL     1      45.606   5.685  10.925  0.00  0.00    +0.000 C 
ATOM      2  C   UNL     1      45.423   5.384   9.629  0.00  0.00    +0.000 C 
ENDROOT
BRANCH   1   7
ATOM      3  C   UNL     1      44.531   9.242  11.556  0.00  0.00    +0.000 A 
ATOM      4  C   UNL     1      45.308   9.569  12.674  0.00  0.00    +0.000 A 
ATOM      5  C   UNL     1      46.216   8.651  13.199  0.00  0.00    +0.000 A 
ATOM      6  C   UNL     1      46.348   7.387  12.622  0.00  0.00    +0.000 A 
ATOM      7  C   UNL     1      45.589   7.037  11.499  0.00  0.00    +0.000 A 
ATOM      8  C   UNL     1      44.686   7.975  10.972  0.00  0.00    +0.000 A 
BRANCH   3   9
ATOM      9  C   UNL     1      43.496  10.206  11.034  0.00  0.00    +0.000 C 
BRANCH   9  10
ATOM     10  N   UNL     1      42.689  10.773  12.107  0.00  0.00    +0.000 NA
ATOM     11  H   UNL     1      42.871  10.259  12.967  0.00  0.00    +0.000 HD
ATOM     12  H   UNL     1      41.704  10.629  11.887  0.00  0.00    +0.000 HD
ENDBRANCH   9  10
ENDBRANCH   3   9
ENDBRANCH   1   7
BRANCH   2  13
ATOM     13  C   UNL     1      45.523   4.014   9.107  0.00  0.00    +0.000 A 
ATOM     14  C   UNL     1      44.756   2.981   9.649  0.00  0.00    +0.000 A 
ATOM     15  N   UNL     1      44.794   1.706   9.187  0.00  0.00    +0.000 NA
ATOM     16  C   UNL     1      45.637   1.498   8.144  0.00  0.00    +0.000 A 
ATOM     17  C   UNL     1      46.401   2.518   7.598  0.00  0.00    +0.000 A 
ATOM     18  N   UNL     1      46.364   3.798   8.064  0.00  0.00    +0.000 NA
BRANCH  17  19
ATOM     19  C   UNL     1      47.304   2.234   6.453  0.00  0.00    +0.000 C 
ATOM     20  N   UNL     1      47.204   3.078   5.381  0.00  0.00    +0.000 N 
ATOM     21  O   UNL     1      48.095   1.297   6.457  0.00  0.00    +0.000 OA
ATOM     22  H   UNL     1      46.532   3.838   5.388  0.00  0.00    +0.000 HD
ATOM     23  H   UNL     1      47.788   2.922   4.571  0.00  0.00    +0.000 HD
ENDBRANCH  17  19
ENDBRANCH   2  13
TORSDOF 5
ENDMDL
MODEL 6
REMARK VINA RESULT:    -6.081      5.345      7.909
REMARK INTER + INTRA:          -8.021
REMARK INTER:                  -7.685
REMARK INTRA:                  -0.336
REMARK UNBOUND:                -0.340
REMARK  Name = 
REMARK  5 active torsions:
REMARK  status: ('A' for Active; 'I' for Inactive)
REMARK    1  A    between atoms: N_1  and  C_2
REMARK    2  A    between atoms: C_2  and  C_3
REMARK    3  A    between atoms: C_7  and  C_8
REMARK    4  A    between atoms: C_9  and  C_10
REMARK    5  A    between atoms: C_14  and  C_15
REMARK                            x       y       z     vdW  Elec       q    Type
REMARK                         _______ _______ _______ _____ _____    ______ ____
ROOT
ATOM      1  C   UNL     1      46.861   3.971  14.998  0.00  0.00    +0.000 C 
ATOM      2  C   UNL     1      46.973   5.003  14.147  0.00  0.00    +0.000 C 
ENDROOT
BRANCH   1   7
ATOM      3  C   UNL     1      49.510   2.775  17.398  0.00  0.00    +0.000 A 
ATOM      4  C   UNL     1      49.263   3.592  18.508  0.00  0.00    +0.000 A 
ATOM      5  C   UNL     1      48.209   4.504  18.497  0.00  0.00    +0.000 A 
ATOM      6  C   UNL     1      47.395   4.619  17.369  0.00  0.00    +0.000 A 
ATOM      7  C   UNL     1      47.614   3.809  16.249  0.00  0.00    +0.000 A 
ATOM      8  C   UNL     1      48.673   2.887  16.277  0.00  0.00    +0.000 A 
BRANCH   3   9
ATOM      9  C   UNL     1      50.696   1.844  17.380  0.00  0.00    +0.000 C 
BRANCH   9  10
ATOM     10  N   UNL     1      51.820   2.379  18.139  0.00  0.00    +0.000 NA
ATOM     11  H   UNL     1      51.999   1.775  18.938  0.00  0.00    +0.000 HD
ATOM     12  H   UNL     1      51.558   3.289  18.515  0.00  0.00    +0.000 HD
ENDBRANCH   9  10
ENDBRANCH   3   9
ENDBRANCH   1   7
BRANCH   2  13
ATOM     13  C   UNL     1      46.241   5.070  12.875  0.00  0.00    +0.000 A 
ATOM     14  C   UNL     1      46.324   6.197  12.056  0.00  0.00    +0.000 A 
ATOM     15  N   UNL     1      45.688   6.296  10.861  0.00  0.00    +0.000 NA
ATOM     16  C   UNL     1      44.956   5.210  10.508  0.00  0.00    +0.000 A 
ATOM     17  C   UNL     1      44.869   4.086  11.314  0.00  0.00    +0.000 A 
ATOM     18  N   UNL     1      45.507   3.987  12.515  0.00  0.00    +0.000 NA
BRANCH  17  19
ATOM     19  C   UNL     1      44.056   2.922  10.875  0.00  0.00    +0.000 C 
ATOM     20  N   UNL     1      44.586   2.161   9.868  0.00  0.00    +0.000 N 
ATOM     21  O   UNL     1      42.972   2.651  11.377  0.00  0.00    +0.000 OA
ATOM     22  H   UNL     1      45.477   2.409   9.453  0.00  0.00    +0.000 HD
ATOM     23  H   UNL     1      44.068   1.364   9.524  0.00  0.00    +0.000 HD
ENDBRANCH  17  19
ENDBRANCH   2  13
TORSDOF 5
ENDMDL
MODEL 7
REMARK VINA RESULT:    -6.020      5.105      8.384
REMARK INTER + INTRA:          -7.943
REMARK INTER:                  -7.606
REMARK INTRA:                  -0.337
REMARK UNBOUND:                -0.340
REMARK  Name = 
REMARK  5 active torsions:
REMARK  status: ('A' for Active; 'I' for Inactive)
REMARK    1  A    between atoms: N_1  and  C_2
REMARK    2  A    between atoms: C_2  and  C_3
REMARK    3  A    between atoms: C_7  and  C_8
REMARK    4  A    between atoms: C_9  and  C_10
REMARK    5  A    between atoms: C_14  and  C_15
REMARK                            x       y       z     vdW  Elec       q    Type
REMARK                         _______ _______ _______ _____ _____    ______ ____
ROOT
ATOM      1  C   UNL     1      46.896   4.091  14.983  0.00  0.00    +0.000 C 
ATOM      2  C   UNL     1      46.919   5.134  14.137  0.00  0.00    +0.000 C 
ENDROOT
BRANCH   1   7
ATOM      3  C   UNL     1      47.989   4.992  18.476  0.00  0.00    +0.000 A 
ATOM      4  C   UNL     1      48.732   3.859  18.831  0.00  0.00    +0.000 A 
ATOM      5  C   UNL     1      48.917   2.818  17.923  0.00  0.00    +0.000 A 
ATOM      6  C   UNL     1      48.348   2.891  16.650  0.00  0.00    +0.000 A 
ATOM      7  C   UNL     1      47.608   4.016  16.266  0.00  0.00    +0.000 A 
ATOM      8  C   UNL     1      47.440   5.062  17.186  0.00  0.00    +0.000 A 
BRANCH   3   9
ATOM      9  C   UNL     1      47.726   6.082  19.483  0.00  0.00    +0.000 C 
BRANCH   9  10
ATOM     10  N   UNL     1      47.133   5.561  20.708  0.00  0.00    +0.000 NA
ATOM     11  H   UNL     1      47.783   5.704  21.479  0.00  0.00    +0.000 HD
ATOM     12  H   UNL     1      47.014   4.554  20.611  0.00  0.00    +0.000 HD
ENDBRANCH   9  10
ENDBRANCH   3   9
ENDBRANCH   1   7
BRANCH   2  13
ATOM     13  C   UNL     1      46.239   5.118  12.835  0.00  0.00    +0.000 A 
ATOM     14  C   UNL     1      46.396   6.168  11.929  0.00  0.00    +0.000 A 
ATOM     15  N   UNL     1      45.810   6.188  10.705  0.00  0.00    +0.000 NA
ATOM     16  C   UNL     1      45.052   5.101  10.413  0.00  0.00    +0.000 A 
ATOM     17  C   UNL     1      44.892   4.052  11.306  0.00  0.00    +0.000 A 
ATOM     18  N   UNL     1      45.479   4.034  12.535  0.00  0.00    +0.000 NA
BRANCH  17  19
ATOM     19  C   UNL     1      44.055   2.884  10.931  0.00  0.00    +0.000 C 
ATOM     20  N   UNL     1      44.539   2.090   9.926  0.00  0.00    +0.000 N 
ATOM     21  O   UNL     1      42.988   2.637  11.483  0.00  0.00    +0.000 OA
ATOM     22  H   UNL     1      45.414   2.319   9.470  0.00  0.00    +0.000 HD
ATOM     23  H   UNL     1      44.002   1.289   9.626  0.00  0.00    +0.000 HD
ENDBRANCH  17  19
ENDBRANCH   2  13
TORSDOF 5
ENDMDL
MODEL 8
REMARK VINA RESULT:    -6.013      3.956      6.759
REMARK INTER + INTRA:          -7.934
REMARK INTER:                  -7.597
REMARK INTRA:                  -0.337
REMARK UNBOUND:                -0.340
REMARK  Name = 
REMARK  5 active torsions:
REMARK  status: ('A' for Active; 'I' for Inactive)
REMARK    1  A    between atoms: N_1  and  C_2
REMARK    2  A    between atoms: C_2  and  C_3
REMARK    3  A    between atoms: C_7  and  C_8
REMARK    4  A    between atoms: C_9  and  C_10
REMARK    5  A    between atoms: C_14  and  C_15
REMARK                            x       y       z     vdW  Elec       q    Type
REMARK                         _______ _______ _______ _____ _____    ______ ____
ROOT
ATOM      1  C   UNL     1      46.851   6.742  11.584  0.00  0.00    +0.000 C 
ATOM      2  C   UNL     1      46.248   5.996  12.524  0.00  0.00    +0.000 C 
ENDROOT
BRANCH   1   7
ATOM      3  C   UNL     1      50.001   8.810  11.651  0.00  0.00    +0.000 A 
ATOM      4  C   UNL     1      49.505  10.053  12.064  0.00  0.00    +0.000 A 
ATOM      5  C   UNL     1      48.153  10.212  12.365  0.00  0.00    +0.000 A 
ATOM      6  C   UNL     1      47.276   9.132  12.242  0.00  0.00    +0.000 A 
ATOM      7  C   UNL     1      47.748   7.877  11.839  0.00  0.00    +0.000 A 
ATOM      8  C   UNL     1      49.114   7.728  11.550  0.00  0.00    +0.000 A 
BRANCH   3   9
ATOM      9  C   UNL     1      51.447   8.657  11.253  0.00  0.00    +0.000 C 
BRANCH   9  10
ATOM     10  N   UNL     1      51.771   7.283  10.891  0.00  0.00    +0.000 NA
ATOM     11  H   UNL     1      51.494   7.119   9.925  0.00  0.00    +0.000 HD
ATOM     12  H   UNL     1      51.212   6.653  11.465  0.00  0.00    +0.000 HD
ENDBRANCH   9  10
ENDBRANCH   3   9
ENDBRANCH   1   7
BRANCH   2  13
ATOM     13  C   UNL     1      45.306   4.917  12.201  0.00  0.00    +0.000 A 
ATOM     14  C   UNL     1      44.390   4.454  13.149  0.00  0.00    +0.000 A 
ATOM     15  N   UNL     1      43.484   3.478  12.891  0.00  0.00    +0.000 NA
ATOM     16  C   UNL     1      43.523   2.975  11.631  0.00  0.00    +0.000 A 
ATOM     17  C   UNL     1      44.427   3.430  10.684  0.00  0.00    +0.000 A 
ATOM     18  N   UNL     1      45.339   4.408  10.943  0.00  0.00    +0.000 NA
BRANCH  17  19
ATOM     19  C   UNL     1      44.422   2.846   9.317  0.00  0.00    +0.000 C 
ATOM     20  N   UNL     1      44.278   3.731   8.283  0.00  0.00    +0.000 N 
ATOM     21  O   UNL     1      44.536   1.642   9.117  0.00  0.00    +0.000 OA
ATOM     22  H   UNL     1      44.168   4.721   8.468  0.00  0.00    +0.000 HD
ATOM     23  H   UNL     1      44.257   3.384   7.334  0.00  0.00    +0.000 HD
ENDBRANCH  17  19
ENDBRANCH   2  13
TORSDOF 5
ENDMDL
MODEL 9
REMARK VINA RESULT:    -5.860      5.124      7.078
REMARK INTER + INTRA:          -7.742
REMARK INTER:                  -7.368
REMARK INTRA:                  -0.374
REMARK UNBOUND:                -0.340
REMARK  Name = 
REMARK  5 active torsions:
REMARK  status: ('A' for Active; 'I' for Inactive)
REMARK    1  A    between atoms: N_1  and  C_2
REMARK    2  A    between atoms: C_2  and  C_3
REMARK    3  A    between atoms: C_7  and  C_8
REMARK    4  A    between atoms: C_9  and  C_10
REMARK    5  A    between atoms: C_14  and  C_15
REMARK                            x       y       z     vdW  Elec       q    Type
REMARK                         _______ _______ _______ _____ _____    ______ ____
ROOT
ATOM      1  C   UNL     1      47.086   5.099  14.136  0.00  0.00    +0.000 C 
ATOM      2  C   UNL     1      46.934   4.211  15.133  0.00  0.00    +0.000 C 
ENDROOT
BRANCH   1   7
ATOM      3  C   UNL     1      44.540   4.114  11.538  0.00  0.00    +0.000 A 
ATOM      4  C   UNL     1      44.679   5.154  10.610  0.00  0.00    +0.000 A 
ATOM      5  C   UNL     1      45.630   6.154  10.803  0.00  0.00    +0.000 A 
ATOM      6  C   UNL     1      46.446   6.135  11.935  0.00  0.00    +0.000 A 
ATOM      7  C   UNL     1      46.333   5.103  12.874  0.00  0.00    +0.000 A 
ATOM      8  C   UNL     1      45.379   4.095  12.662  0.00  0.00    +0.000 A 
BRANCH   3   9
ATOM      9  C   UNL     1      43.461   3.075  11.368  0.00  0.00    +0.000 C 
BRANCH   9  10
ATOM     10  N   UNL     1      43.498   2.071  12.424  0.00  0.00    +0.000 NA
ATOM     11  H   UNL     1      42.998   2.426  13.237  0.00  0.00    +0.000 HD
ATOM     12  H   UNL     1      44.466   1.938  12.714  0.00  0.00    +0.000 HD
ENDBRANCH   9  10
ENDBRANCH   3   9
ENDBRANCH   1   7
BRANCH   2  13
ATOM     13  C   UNL     1      47.769   4.221  16.342  0.00  0.00    +0.000 A 
ATOM     14  C   UNL     1      47.580   3.278  17.354  0.00  0.00    +0.000 A 
ATOM     15  N   UNL     1      48.341   3.230  18.477  0.00  0.00    +0.000 NA
ATOM     16  C   UNL     1      49.316   4.171  18.550  0.00  0.00    +0.000 A 
ATOM     17  C   UNL     1      49.513   5.109  17.549  0.00  0.00    +0.000 A 
ATOM     18  N   UNL     1      48.747   5.159  16.423  0.00  0.00    +0.000 NA
BRANCH  17  19
ATOM     19  C   UNL     1      50.600   6.113  17.680  0.00  0.00    +0.000 C 
ATOM     20  N   UNL     1      51.499   6.169  16.649  0.00  0.00    +0.000 N 
ATOM     21  O   UNL     1      50.697   6.853  18.653  0.00  0.00    +0.000 OA
ATOM     22  H   UNL     1      51.413   5.538  15.860  0.00  0.00    +0.000 HD
ATOM     23  H   UNL     1      52.264   6.827  16.695  0.00  0.00    +0.000 HD
ENDBRANCH  17  19
ENDBRANCH   2  13
TORSDOF 5
ENDMDL
