MODEL 1
REMARK VINA RESULT:    -8.031      0.000      0.000
REMARK INTER + INTRA:         -10.742
REMARK INTER:                 -10.144
REMARK INTRA:                  -0.598
REMARK UNBOUND:                -0.598
REMARK  Name = 
REMARK  5 active torsions:
REMARK  status: ('A' for Active; 'I' for Inactive)
REMARK    1  A    between atoms: N_1  and  C_2
REMARK    2  A    between atoms: C_2  and  C_3
REMARK    3  A    between atoms: C_6  and  C_7
REMARK    4  A    between atoms: C_7  and  N_8
REMARK    5  A    between atoms: C_13  and  C_14
REMARK                            x       y       z     vdW  Elec       q    Type
REMARK                         _______ _______ _______ _____ _____    ______ ____
ROOT
ATOM      1  N   UNL     1      44.088   4.438  11.084  0.00  0.00    +0.000 N 
ATOM      2  C   UNL     1      43.383   3.683  11.992  0.00  0.00    +0.000 A 
ATOM      3  C   UNL     1      43.972   3.843  13.230  0.00  0.00    +0.000 A 
ATOM      4  C   UNL     1      45.076   4.720  13.068  0.00  0.00    +0.000 A 
ATOM      5  C   UNL     1      46.065   5.245  13.915  0.00  0.00    +0.000 A 
ATOM      6  C   UNL     1      47.028   6.095  13.356  0.00  0.00    +0.000 A 
ATOM      7  C   UNL     1      46.943   6.386  11.999  0.00  0.00    +0.000 A 
ATOM      8  N   UNL     1      46.015   5.905  11.139  0.00  0.00    +0.000 NA
ATOM      9  C   UNL     1      45.120   5.083  11.724  0.00  0.00    +0.000 A 
ENDROOT
BRANCH   6  10
ATOM     10  C   UNL     1      48.145   6.677  14.166  0.00  0.00    +0.000 C 
ATOM     11  F   UNL     1      49.326   6.749  13.491  0.00  0.00    +0.000 F 
ATOM     12  F   UNL     1      47.878   7.947  14.581  0.00  0.00    +0.000 F 
ATOM     13  F   UNL     1      48.403   5.964  15.295  0.00  0.00    +0.000 F 
ENDBRANCH   6  10
BRANCH   1  14
ATOM     14  C   UNL     1      43.859   4.450   9.644  0.00  0.00    +0.000 C 
BRANCH  14  18
ATOM     15  C   UNL     1      46.802   2.146   7.441  0.00  0.00    +0.000 A 
ATOM     16  C   UNL     1      45.913   1.515   8.320  0.00  0.00    +0.000 A 
ATOM     17  C   UNL     1      44.960   2.253   9.027  0.00  0.00    +0.000 A 
ATOM     18  C   UNL     1      44.883   3.646   8.882  0.00  0.00    +0.000 A 
ATOM     19  C   UNL     1      45.756   4.274   7.981  0.00  0.00    +0.000 A 
ATOM     20  C   UNL     1      46.704   3.533   7.270  0.00  0.00    +0.000 A 
BRANCH  15  21
ATOM     21  C   UNL     1      47.866   1.354   6.724  0.00  0.00    +0.000 C 
BRANCH  21  22
ATOM     22  N   UNL     1      48.376   2.060   5.555  0.00  0.00    +0.000 NA
ATOM     23  H   UNL     1      48.004   1.623   4.714  0.00  0.00    +0.000 HD
ATOM     24  H   UNL     1      49.389   1.944   5.519  0.00  0.00    +0.000 HD
ENDBRANCH  21  22
ENDBRANCH  15  21
ENDBRANCH  14  18
ENDBRANCH   1  14
TORSDOF 5
ENDMDL
MODEL 2
REMARK VINA RESULT:    -8.019      1.718      2.275
REMARK INTER + INTRA:         -10.728
REMARK INTER:                 -10.216
REMARK INTRA:                  -0.511
REMARK UNBOUND:                -0.598
REMARK  Name = 
REMARK  5 active torsions:
REMARK  status: ('A' for Active; 'I' for Inactive)
REMARK    1  A    between atoms: N_1  and  C_2
REMARK    2  A    between atoms: C_2  and  C_3
REMARK    3  A    between atoms: C_6  and  C_7
REMARK    4  A    between atoms: C_7  and  N_8
REMARK    5  A    between atoms: C_13  and  C_14
REMARK                            x       y       z     vdW  Elec       q    Type
REMARK                         _______ _______ _______ _____ _____    ______ ____
ROOT
ATOM      1  N   UNL     1      44.901   3.598  11.526  0.00  0.00    +0.000 N 
ATOM      2  C   UNL     1      45.637   2.887  12.443  0.00  0.00    +0.000 A 
ATOM      3  C   UNL     1      46.277   3.789  13.270  0.00  0.00    +0.000 A 
ATOM      4  C   UNL     1      45.923   5.093  12.835  0.00  0.00    +0.000 A 
ATOM      5  C   UNL     1      46.251   6.399  13.231  0.00  0.00    +0.000 A 
ATOM      6  C   UNL     1      45.690   7.465  12.515  0.00  0.00    +0.000 A 
ATOM      7  C   UNL     1      44.827   7.173  11.465  0.00  0.00    +0.000 A 
ATOM      8  N   UNL     1      44.481   5.935  11.041  0.00  0.00    +0.000 NA
ATOM      9  C   UNL     1      45.058   4.945  11.754  0.00  0.00    +0.000 A 
ENDROOT
BRANCH   6  10
ATOM     10  C   UNL     1      46.005   8.894  12.834  0.00  0.00    +0.000 C 
ATOM     11  F   UNL     1      46.810   9.492  11.912  0.00  0.00    +0.000 F 
ATOM     12  F   UNL     1      44.887   9.668  12.908  0.00  0.00    +0.000 F 
ATOM     13  F   UNL     1      46.637   9.039  14.031  0.00  0.00    +0.000 F 
ENDBRANCH   6  10
BRANCH   1  14
ATOM     14  C   UNL     1      44.172   3.019  10.403  0.00  0.00    +0.000 C 
BRANCH  14  18
ATOM     15  C   UNL     1      46.590   2.712   6.814  0.00  0.00    +0.000 A 
ATOM     16  C   UNL     1      46.037   3.940   7.200  0.00  0.00    +0.000 A 
ATOM     17  C   UNL     1      45.263   4.043   8.358  0.00  0.00    +0.000 A 
ATOM     18  C   UNL     1      45.009   2.916   9.152  0.00  0.00    +0.000 A 
ATOM     19  C   UNL     1      45.585   1.692   8.781  0.00  0.00    +0.000 A 
ATOM     20  C   UNL     1      46.365   1.591   7.625  0.00  0.00    +0.000 A 
BRANCH  15  21
ATOM     21  C   UNL     1      47.377   2.592   5.534  0.00  0.00    +0.000 C 
BRANCH  21  22
ATOM     22  N   UNL     1      48.577   1.781   5.706  0.00  0.00    +0.000 NA
ATOM     23  H   UNL     1      48.866   1.419   4.800  0.00  0.00    +0.000 HD
ATOM     24  H   UNL     1      48.345   0.972   6.282  0.00  0.00    +0.000 HD
ENDBRANCH  21  22
ENDBRANCH  15  21
ENDBRANCH  14  18
ENDBRANCH   1  14
TORSDOF 5
ENDMDL
MODEL 3
REMARK VINA RESULT:    -7.958      1.497      2.192
REMARK INTER + INTRA:         -10.650
REMARK INTER:                 -10.077
REMARK INTRA:                  -0.573
REMARK UNBOUND:                -0.598
REMARK  Name = 
REMARK  5 active torsions:
REMARK  status: ('A' for Active; 'I' for Inactive)
REMARK    1  A    between atoms: N_1  and  C_2
REMARK    2  A    between atoms: C_2  and  C_3
REMARK    3  A    between atoms: C_6  and  C_7
REMARK    4  A    between atoms: C_7  and  N_8
REMARK    5  A    between atoms: C_13  and  C_14
REMARK                            x       y       z     vdW  Elec       q    Type
REMARK                         _______ _______ _______ _____ _____    ______ ____
ROOT
ATOM      1  N   UNL     1      44.640   5.204  11.144  0.00  0.00    +0.000 N 
ATOM      2  C   UNL     1      44.579   6.578  11.142  0.00  0.00    +0.000 A 
ATOM      3  C   UNL     1      45.264   7.038  12.249  0.00  0.00    +0.000 A 
ATOM      4  C   UNL     1      45.753   5.905  12.950  0.00  0.00    +0.000 A 
ATOM      5  C   UNL     1      46.483   5.703  14.132  0.00  0.00    +0.000 A 
ATOM      6  C   UNL     1      46.766   4.386  14.516  0.00  0.00    +0.000 A 
ATOM      7  C   UNL     1      46.323   3.351  13.697  0.00  0.00    +0.000 A 
ATOM      8  N   UNL     1      45.614   3.491  12.553  0.00  0.00    +0.000 NA
ATOM      9  C   UNL     1      45.358   4.777  12.236  0.00  0.00    +0.000 A 
ENDROOT
BRANCH   6  10
ATOM     10  C   UNL     1      47.505   4.062  15.776  0.00  0.00    +0.000 C 
ATOM     11  F   UNL     1      48.098   2.835  15.760  0.00  0.00    +0.000 F 
ATOM     12  F   UNL     1      48.503   4.953  16.036  0.00  0.00    +0.000 F 
ATOM     13  F   UNL     1      46.702   4.073  16.875  0.00  0.00    +0.000 F 
ENDBRANCH   6  10
BRANCH   1  14
ATOM     14  C   UNL     1      43.941   4.331  10.208  0.00  0.00    +0.000 C 
BRANCH  14  18
ATOM     15  C   UNL     1      46.627   2.305   7.468  0.00  0.00    +0.000 A 
ATOM     16  C   UNL     1      45.869   1.577   8.394  0.00  0.00    +0.000 A 
ATOM     17  C   UNL     1      44.999   2.226   9.274  0.00  0.00    +0.000 A 
ATOM     18  C   UNL     1      44.876   3.623   9.259  0.00  0.00    +0.000 A 
ATOM     19  C   UNL     1      45.615   4.350   8.313  0.00  0.00    +0.000 A 
ATOM     20  C   UNL     1      46.480   3.698   7.429  0.00  0.00    +0.000 A 
BRANCH  15  21
ATOM     21  C   UNL     1      47.606   1.607   6.559  0.00  0.00    +0.000 C 
BRANCH  21  22
ATOM     22  N   UNL     1      48.692   2.489   6.147  0.00  0.00    +0.000 NA
ATOM     23  H   UNL     1      49.426   2.463   6.851  0.00  0.00    +0.000 HD
ATOM     24  H   UNL     1      48.344   3.447   6.125  0.00  0.00    +0.000 HD
ENDBRANCH  21  22
ENDBRANCH  15  21
ENDBRANCH  14  18
ENDBRANCH   1  14
TORSDOF 5
ENDMDL
MODEL 4
REMARK VINA RESULT:    -7.833      3.796      6.755
REMARK INTER + INTRA:         -10.492
REMARK INTER:                 -10.031
REMARK INTRA:                  -0.461
REMARK UNBOUND:                -0.598
REMARK  Name = 
REMARK  5 active torsions:
REMARK  status: ('A' for Active; 'I' for Inactive)
REMARK    1  A    between atoms: N_1  and  C_2
REMARK    2  A    between atoms: C_2  and  C_3
REMARK    3  A    between atoms: C_6  and  C_7
REMARK    4  A    between atoms: C_7  and  N_8
REMARK    5  A    between atoms: C_13  and  C_14
REMARK                            x       y       z     vdW  Elec       q    Type
REMARK                         _______ _______ _______ _____ _____    ______ ____
ROOT
ATOM      1  N   UNL     1      44.004   4.545  10.745  0.00  0.00    +0.000 N 
ATOM      2  C   UNL     1      43.454   3.475  11.413  0.00  0.00    +0.000 A 
ATOM      3  C   UNL     1      43.899   2.318  10.806  0.00  0.00    +0.000 A 
ATOM      4  C   UNL     1      44.742   2.697   9.729  0.00  0.00    +0.000 A 
ATOM      5  C   UNL     1      45.464   2.011   8.739  0.00  0.00    +0.000 A 
ATOM      6  C   UNL     1      46.190   2.767   7.809  0.00  0.00    +0.000 A 
ATOM      7  C   UNL     1      46.170   4.153   7.928  0.00  0.00    +0.000 A 
ATOM      8  N   UNL     1      45.489   4.862   8.858  0.00  0.00    +0.000 NA
ATOM      9  C   UNL     1      44.798   4.088   9.720  0.00  0.00    +0.000 A 
ENDROOT
BRANCH   6  10
ATOM     10  C   UNL     1      46.962   2.134   6.694  0.00  0.00    +0.000 C 
ATOM     11  F   UNL     1      46.842   0.778   6.650  0.00  0.00    +0.000 F 
ATOM     12  F   UNL     1      46.567   2.581   5.470  0.00  0.00    +0.000 F 
ATOM     13  F   UNL     1      48.297   2.387   6.769  0.00  0.00    +0.000 F 
ENDBRANCH   6  10
BRANCH   1  14
ATOM     14  C   UNL     1      43.691   5.946  11.001  0.00  0.00    +0.000 C 
BRANCH  14  18
ATOM     15  C   UNL     1      46.832   8.013  13.165  0.00  0.00    +0.000 A 
ATOM     16  C   UNL     1      46.778   6.614  13.148  0.00  0.00    +0.000 A 
ATOM     17  C   UNL     1      45.771   5.945  12.447  0.00  0.00    +0.000 A 
ATOM     18  C   UNL     1      44.783   6.661  11.757  0.00  0.00    +0.000 A 
ATOM     19  C   UNL     1      44.853   8.062  11.751  0.00  0.00    +0.000 A 
ATOM     20  C   UNL     1      45.865   8.730  12.447  0.00  0.00    +0.000 A 
BRANCH  15  21
ATOM     21  C   UNL     1      47.886   8.732  13.967  0.00  0.00    +0.000 C 
BRANCH  21  22
ATOM     22  N   UNL     1      47.430   9.036  15.319  0.00  0.00    +0.000 NA
ATOM     23  H   UNL     1      47.691   9.992  15.551  0.00  0.00    +0.000 HD
ATOM     24  H   UNL     1      47.926   8.432  15.974  0.00  0.00    +0.000 HD
ENDBRANCH  21  22
ENDBRANCH  15  21
ENDBRANCH  14  18
ENDBRANCH   1  14
TORSDOF 5
ENDMDL
MODEL 5
REMARK VINA RESULT:    -6.469      4.742      7.521
REMARK INTER + INTRA:          -8.769
REMARK INTER:                  -8.315
REMARK INTRA:                  -0.454
REMARK UNBOUND:                -0.598
REMARK  Name = 
REMARK  5 active torsions:
REMARK  status: ('A' for Active; 'I' for Inactive)
REMARK    1  A    between atoms: N_1  and  C_2
REMARK    2  A    between atoms: C_2  and  C_3
REMARK    3  A    between atoms: C_6  and  C_7
REMARK    4  A    between atoms: C_7  and  N_8
REMARK    5  A    between atoms: C_13  and  C_14
REMARK                            x       y       z     vdW  Elec       q    Type
REMARK                         _______ _______ _______ _____ _____    ______ ____
ROOT
ATOM      1  N   UNL     1      47.197   5.129  15.035  0.00  0.00    +0.000 N 
ATOM      2  C   UNL     1      48.174   6.042  14.716  0.00  0.00    +0.000 A 
ATOM      3  C   UNL     1      47.999   6.413  13.398  0.00  0.00    +0.000 A 
ATOM      4  C   UNL     1      46.881   5.695  12.898  0.00  0.00    +0.000 A 
ATOM      5  C   UNL     1      46.225   5.610  11.659  0.00  0.00    +0.000 A 
ATOM      6  C   UNL     1      45.129   4.744  11.553  0.00  0.00    +0.000 A 
ATOM      7  C   UNL     1      44.740   4.030  12.682  0.00  0.00    +0.000 A 
ATOM      8  N   UNL     1      45.339   4.073  13.895  0.00  0.00    +0.000 NA
ATOM      9  C   UNL     1      46.395   4.911  13.940  0.00  0.00    +0.000 A 
ENDROOT
BRANCH   6  10
ATOM     10  C   UNL     1      44.384   4.553  10.268  0.00  0.00    +0.000 C 
ATOM     11  F   UNL     1      43.226   5.267  10.199  0.00  0.00    +0.000 F 
ATOM     12  F   UNL     1      45.117   4.928   9.183  0.00  0.00    +0.000 F 
ATOM     13  F   UNL     1      44.035   3.256  10.050  0.00  0.00    +0.000 F 
ENDBRANCH   6  10
BRANCH   1  14
ATOM     14  C   UNL     1      47.103   4.405  16.298  0.00  0.00    +0.000 C 
BRANCH  14  18
ATOM     15  C   UNL     1      50.795   2.380  17.344  0.00  0.00    +0.000 A 
ATOM     16  C   UNL     1      49.823   1.737  16.569  0.00  0.00    +0.000 A 
ATOM     17  C   UNL     1      48.635   2.388  16.225  0.00  0.00    +0.000 A 
ATOM     18  C   UNL     1      48.385   3.697  16.662  0.00  0.00    +0.000 A 
ATOM     19  C   UNL     1      49.370   4.351  17.416  0.00  0.00    +0.000 A 
ATOM     20  C   UNL     1      50.561   3.700  17.753  0.00  0.00    +0.000 A 
BRANCH  15  21
ATOM     21  C   UNL     1      52.050   1.656  17.760  0.00  0.00    +0.000 C 
BRANCH  21  22
ATOM     22  N   UNL     1      51.788   0.261  18.098  0.00  0.00    +0.000 NA
ATOM     23  H   UNL     1      52.646  -0.274  17.985  0.00  0.00    +0.000 HD
ATOM     24  H   UNL     1      51.119  -0.117  17.427  0.00  0.00    +0.000 HD
ENDBRANCH  21  22
ENDBRANCH  15  21
ENDBRANCH  14  18
ENDBRANCH   1  14
TORSDOF 5
ENDMDL
MODEL 6
REMARK VINA RESULT:    -6.097      1.958      3.305
REMARK INTER + INTRA:          -8.299
REMARK INTER:                  -8.088
REMARK INTRA:                  -0.211
REMARK UNBOUND:                -0.598
REMARK  Name = 
REMARK  5 active torsions:
REMARK  status: ('A' for Active; 'I' for Inactive)
REMARK    1  A    between atoms: N_1  and  C_2
REMARK    2  A    between atoms: C_2  and  C_3
REMARK    3  A    between atoms: C_6  and  C_7
REMARK    4  A    between atoms: C_7  and  N_8
REMARK    5  A    between atoms: C_13  and  C_14
REMARK                            x       y       z     vdW  Elec       q    Type
REMARK                         _______ _______ _______ _____ _____    ______ ____
ROOT
ATOM      1  N   UNL     1      45.909   5.713  12.499  0.00  0.00    +0.000 N 
ATOM      2  C   UNL     1      46.388   6.944  12.116  0.00  0.00    +0.000 A 
ATOM      3  C   UNL     1      47.349   7.331  13.028  0.00  0.00    +0.000 A 
ATOM      4  C   UNL     1      47.453   6.304  14.002  0.00  0.00    +0.000 A 
ATOM      5  C   UNL     1      48.208   6.111  15.170  0.00  0.00    +0.000 A 
ATOM      6  C   UNL     1      48.007   4.930  15.897  0.00  0.00    +0.000 A 
ATOM      7  C   UNL     1      47.084   4.007  15.414  0.00  0.00    +0.000 A 
ATOM      8  N   UNL     1      46.330   4.147  14.299  0.00  0.00    +0.000 NA
ATOM      9  C   UNL     1      46.552   5.305  13.644  0.00  0.00    +0.000 A 
ENDROOT
BRANCH   6  10
ATOM     10  C   UNL     1      48.734   4.645  17.173  0.00  0.00    +0.000 C 
ATOM     11  F   UNL     1      48.369   5.460  18.202  0.00  0.00    +0.000 F 
ATOM     12  F   UNL     1      48.527   3.373  17.616  0.00  0.00    +0.000 F 
ATOM     13  F   UNL     1      50.083   4.781  17.052  0.00  0.00    +0.000 F 
ENDBRANCH   6  10
BRANCH   1  14
ATOM     14  C   UNL     1      44.799   5.009  11.867  0.00  0.00    +0.000 C 
BRANCH  14  18
ATOM     15  C   UNL     1      45.826   3.407   7.968  0.00  0.00    +0.000 A 
ATOM     16  C   UNL     1      46.035   4.760   8.261  0.00  0.00    +0.000 A 
ATOM     17  C   UNL     1      45.711   5.278   9.518  0.00  0.00    +0.000 A 
ATOM     18  C   UNL     1      45.155   4.456  10.509  0.00  0.00    +0.000 A 
ATOM     19  C   UNL     1      44.971   3.095  10.224  0.00  0.00    +0.000 A 
ATOM     20  C   UNL     1      45.302   2.577   8.968  0.00  0.00    +0.000 A 
BRANCH  15  21
ATOM     21  C   UNL     1      46.124   2.864   6.593  0.00  0.00    +0.000 C 
BRANCH  21  22
ATOM     22  N   UNL     1      47.547   2.927   6.279  0.00  0.00    +0.000 NA
ATOM     23  H   UNL     1      47.922   3.811   6.615  0.00  0.00    +0.000 HD
ATOM     24  H   UNL     1      47.657   2.931   5.265  0.00  0.00    +0.000 HD
ENDBRANCH  21  22
ENDBRANCH  15  21
ENDBRANCH  14  18
ENDBRANCH   1  14
TORSDOF 5
ENDMDL
MODEL 7
REMARK VINA RESULT:    -5.934      3.711      6.538
REMARK INTER + INTRA:          -8.093
REMARK INTER:                  -7.657
REMARK INTRA:                  -0.437
REMARK UNBOUND:                -0.598
REMARK  Name = 
REMARK  5 active torsions:
REMARK  status: ('A' for Active; 'I' for Inactive)
REMARK    1  A    between atoms: N_1  and  C_2
REMARK    2  A    between atoms: C_2  and  C_3
REMARK    3  A    between atoms: C_6  and  C_7
REMARK    4  A    between atoms: C_7  and  N_8
REMARK    5  A    between atoms: C_13  and  C_14
REMARK                            x       y       z     vdW  Elec       q    Type
REMARK                         _______ _______ _______ _____ _____    ______ ____
ROOT
ATOM      1  N   UNL     1      44.699   5.361  12.220  0.00  0.00    +0.000 N 
ATOM      2  C   UNL     1      44.044   4.350  12.884  0.00  0.00    +0.000 A 
ATOM      3  C   UNL     1      43.994   3.253  12.047  0.00  0.00    +0.000 A 
ATOM      4  C   UNL     1      44.634   3.612  10.832  0.00  0.00    +0.000 A 
ATOM      5  C   UNL     1      44.883   2.969   9.609  0.00  0.00    +0.000 A 
ATOM      6  C   UNL     1      45.553   3.688   8.611  0.00  0.00    +0.000 A 
ATOM      7  C   UNL     1      45.949   4.992   8.891  0.00  0.00    +0.000 A 
ATOM      8  N   UNL     1      45.730   5.659  10.048  0.00  0.00    +0.000 NA
ATOM      9  C   UNL     1      45.071   4.926  10.970  0.00  0.00    +0.000 A 
ENDROOT
BRANCH   6  10
ATOM     10  C   UNL     1      45.835   3.106   7.261  0.00  0.00    +0.000 C 
ATOM     11  F   UNL     1      46.515   1.926   7.308  0.00  0.00    +0.000 F 
ATOM     12  F   UNL     1      44.697   2.850   6.558  0.00  0.00    +0.000 F 
ATOM     13  F   UNL     1      46.579   3.933   6.476  0.00  0.00    +0.000 F 
ENDBRANCH   6  10
BRANCH   1  14
ATOM     14  C   UNL     1      44.858   6.725  12.713  0.00  0.00    +0.000 C 
BRANCH  14  18
ATOM     15  C   UNL     1      49.013   7.947  12.974  0.00  0.00    +0.000 A 
ATOM     16  C   UNL     1      48.585   6.744  13.549  0.00  0.00    +0.000 A 
ATOM     17  C   UNL     1      47.249   6.344  13.462  0.00  0.00    +0.000 A 
ATOM     18  C   UNL     1      46.303   7.148  12.809  0.00  0.00    +0.000 A 
ATOM     19  C   UNL     1      46.737   8.339  12.209  0.00  0.00    +0.000 A 
ATOM     20  C   UNL     1      48.076   8.734  12.291  0.00  0.00    +0.000 A 
BRANCH  15  21
ATOM     21  C   UNL     1      50.443   8.402  13.118  0.00  0.00    +0.000 C 
BRANCH  21  22
ATOM     22  N   UNL     1      50.678   9.067  14.394  0.00  0.00    +0.000 NA
ATOM     23  H   UNL     1      51.494   8.652  14.840  0.00  0.00    +0.000 HD
ATOM     24  H   UNL     1      49.886   8.882  15.009  0.00  0.00    +0.000 HD
ENDBRANCH  21  22
ENDBRANCH  15  21
ENDBRANCH  14  18
ENDBRANCH   1  14
TORSDOF 5
ENDMDL
MODEL 8
REMARK VINA RESULT:    -5.813      4.353      8.071
REMARK INTER + INTRA:          -7.941
REMARK INTER:                  -7.349
REMARK INTRA:                  -0.593
REMARK UNBOUND:                -0.598
REMARK  Name = 
REMARK  5 active torsions:
REMARK  status: ('A' for Active; 'I' for Inactive)
REMARK    1  A    between atoms: N_1  and  C_2
REMARK    2  A    between atoms: C_2  and  C_3
REMARK    3  A    between atoms: C_6  and  C_7
REMARK    4  A    between atoms: C_7  and  N_8
REMARK    5  A    between atoms: C_13  and  C_14
REMARK                            x       y       z     vdW  Elec       q    Type
REMARK                         _______ _______ _______ _____ _____    ______ ____
ROOT
ATOM      1  N   UNL     1      47.546   7.155  13.791  0.00  0.00    +0.000 N 
ATOM      2  C   UNL     1      47.253   8.489  13.634  0.00  0.00    +0.000 A 
ATOM      3  C   UNL     1      46.073   8.586  12.924  0.00  0.00    +0.000 A 
ATOM      4  C   UNL     1      45.638   7.267  12.635  0.00  0.00    +0.000 A 
ATOM      5  C   UNL     1      44.554   6.704  11.943  0.00  0.00    +0.000 A 
ATOM      6  C   UNL     1      44.479   5.307  11.859  0.00  0.00    +0.000 A 
ATOM      7  C   UNL     1      45.471   4.555  12.480  0.00  0.00    +0.000 A 
ATOM      8  N   UNL     1      46.536   5.047  13.154  0.00  0.00    +0.000 NA
ATOM      9  C   UNL     1      46.568   6.395  13.194  0.00  0.00    +0.000 A 
ENDROOT
BRANCH   6  10
ATOM     10  C   UNL     1      43.384   4.610  11.113  0.00  0.00    +0.000 C 
ATOM     11  F   UNL     1      43.297   3.279  11.392  0.00  0.00    +0.000 F 
ATOM     12  F   UNL     1      42.155   5.128  11.390  0.00  0.00    +0.000 F 
ATOM     13  F   UNL     1      43.529   4.699   9.762  0.00  0.00    +0.000 F 
ENDBRANCH   6  10
BRANCH   1  14
ATOM     14  C   UNL     1      48.770   6.627  14.384  0.00  0.00    +0.000 C 
BRANCH  14  18
ATOM     15  C   UNL     1      48.338   5.735  18.608  0.00  0.00    +0.000 A 
ATOM     16  C   UNL     1      48.736   7.009  18.184  0.00  0.00    +0.000 A 
ATOM     17  C   UNL     1      48.871   7.302  16.824  0.00  0.00    +0.000 A 
ATOM     18  C   UNL     1      48.624   6.320  15.854  0.00  0.00    +0.000 A 
ATOM     19  C   UNL     1      48.199   5.052  16.277  0.00  0.00    +0.000 A 
ATOM     20  C   UNL     1      48.058   4.763  17.638  0.00  0.00    +0.000 A 
BRANCH  15  21
ATOM     21  C   UNL     1      48.248   5.407  20.076  0.00  0.00    +0.000 C 
BRANCH  21  22
ATOM     22  N   UNL     1      48.495   3.993  20.335  0.00  0.00    +0.000 NA
ATOM     23  H   UNL     1      49.301   3.904  20.951  0.00  0.00    +0.000 HD
ATOM     24  H   UNL     1      48.749   3.540  19.457  0.00  0.00    +0.000 HD
ENDBRANCH  21  22
ENDBRANCH  15  21
ENDBRANCH  14  18
ENDBRANCH   1  14
TORSDOF 5
ENDMDL
MODEL 9
REMARK VINA RESULT:    -5.595      4.700      6.505
REMARK INTER + INTRA:          -7.665
REMARK INTER:                  -7.039
REMARK INTRA:                  -0.626
REMARK UNBOUND:                -0.598
REMARK  Name = 
REMARK  5 active torsions:
REMARK  status: ('A' for Active; 'I' for Inactive)
REMARK    1  A    between atoms: N_1  and  C_2
REMARK    2  A    between atoms: C_2  and  C_3
REMARK    3  A    between atoms: C_6  and  C_7
REMARK    4  A    between atoms: C_7  and  N_8
REMARK    5  A    between atoms: C_13  and  C_14
REMARK                            x       y       z     vdW  Elec       q    Type
REMARK                         _______ _______ _______ _____ _____    ______ ____
ROOT
ATOM      1  N   UNL     1      48.608   7.021  14.673  0.00  0.00    +0.000 N 
ATOM      2  C   UNL     1      48.659   8.383  14.859  0.00  0.00    +0.000 A 
ATOM      3  C   UNL     1      48.729   8.625  16.216  0.00  0.00    +0.000 A 
ATOM      4  C   UNL     1      48.715   7.369  16.877  0.00  0.00    +0.000 A 
ATOM      5  C   UNL     1      48.737   6.947  18.216  0.00  0.00    +0.000 A 
ATOM      6  C   UNL     1      48.690   5.570  18.473  0.00  0.00    +0.000 A 
ATOM      7  C   UNL     1      48.642   4.698  17.390  0.00  0.00    +0.000 A 
ATOM      8  N   UNL     1      48.614   5.052  16.085  0.00  0.00    +0.000 NA
ATOM      9  C   UNL     1      48.648   6.387  15.892  0.00  0.00    +0.000 A 
ENDROOT
BRANCH   6  10
ATOM     10  C   UNL     1      48.672   5.019  19.865  0.00  0.00    +0.000 C 
ATOM     11  F   UNL     1      48.542   3.663  19.912  0.00  0.00    +0.000 F 
ATOM     12  F   UNL     1      49.812   5.306  20.552  0.00  0.00    +0.000 F 
ATOM     13  F   UNL     1      47.651   5.516  20.614  0.00  0.00    +0.000 F 
ENDBRANCH   6  10
BRANCH   1  14
ATOM     14  C   UNL     1      48.410   6.355  13.390  0.00  0.00    +0.000 C 
BRANCH  14  18
ATOM     15  C   UNL     1      44.241   5.484  12.563  0.00  0.00    +0.000 A 
ATOM     16  C   UNL     1      44.764   6.762  12.329  0.00  0.00    +0.000 A 
ATOM     17  C   UNL     1      46.107   7.045  12.589  0.00  0.00    +0.000 A 
ATOM     18  C   UNL     1      46.959   6.057  13.104  0.00  0.00    +0.000 A 
ATOM     19  C   UNL     1      46.443   4.770  13.312  0.00  0.00    +0.000 A 
ATOM     20  C   UNL     1      45.100   4.487  13.045  0.00  0.00    +0.000 A 
BRANCH  15  21
ATOM     21  C   UNL     1      42.779   5.198  12.334  0.00  0.00    +0.000 C 
BRANCH  21  22
ATOM     22  N   UNL     1      42.099   6.313  11.687  0.00  0.00    +0.000 NA
ATOM     23  H   UNL     1      41.097   6.139  11.690  0.00  0.00    +0.000 HD
ATOM     24  H   UNL     1      42.385   6.347  10.708  0.00  0.00    +0.000 HD
ENDBRANCH  21  22
ENDBRANCH  15  21
ENDBRANCH  14  18
ENDBRANCH   1  14
TORSDOF 5
ENDMDL
