MODEL 1
REMARK VINA RESULT:    -8.848      0.000      0.000
REMARK INTER + INTRA:         -11.702
REMARK INTER:                 -10.918
REMARK INTRA:                  -0.785
REMARK UNBOUND:                -0.785
REMARK  Name = 
REMARK  4 active torsions:
REMARK  status: ('A' for Active; 'I' for Inactive)
REMARK    1  A    between atoms: C_2  and  C_4
REMARK    2  A    between atoms: N_8  and  C_9
REMARK    3  A    between atoms: C_9  and  C_10
REMARK    4  A    between atoms: C_14  and  C_15
REMARK                            x       y       z     vdW  Elec       q    Type
REMARK                         _______ _______ _______ _____ _____    ______ ____
ROOT
ATOM      1  C   UNL     1      43.882   4.899  11.327  0.00  0.00    +0.000 C 
ATOM      2  C   UNL     1      42.539   5.411  11.828  0.00  0.00    +0.000 C 
ATOM      3  C   UNL     1      43.374   6.281  10.950  0.00  0.00    +0.000 C 
ENDROOT
BRANCH   1   8
ATOM      4  C   UNL     1      46.612   2.729   7.523  0.00  0.00    +0.000 A 
ATOM      5  C   UNL     1      46.318   4.077   7.708  0.00  0.00    +0.000 A 
ATOM      6  C   UNL     1      45.416   4.447   8.703  0.00  0.00    +0.000 A 
ATOM      7  C   UNL     1      44.816   3.468   9.481  0.00  0.00    +0.000 A 
ATOM      8  N   UNL     1      43.801   3.756  10.401  0.00  0.00    +0.000 N 
ATOM      9  N   UNL     1      45.101   2.155   9.323  0.00  0.00    +0.000 NA
ATOM     10  C   UNL     1      45.989   1.814   8.355  0.00  0.00    +0.000 A 
ATOM     11  H   UNL     1      43.608   2.860  10.847  0.00  0.00    +0.000 HD
BRANCH   4  13
ATOM     12  N   UNL     1      47.764   3.082   5.412  0.00  0.00    +0.000 N 
ATOM     13  C   UNL     1      47.505   2.236   6.458  0.00  0.00    +0.000 C 
ATOM     14  O   UNL     1      48.018   1.128   6.510  0.00  0.00    +0.000 OA
ATOM     15  H   UNL     1      48.427   2.754   4.720  0.00  0.00    +0.000 HD
ATOM     16  H   UNL     1      47.553   4.067   5.429  0.00  0.00    +0.000 HD
ENDBRANCH   4  13
ENDBRANCH   1   8
BRANCH   1  17
ATOM     17  C   UNL     1      45.027   4.765  12.326  0.00  0.00    +0.000 A 
ATOM     18  C   UNL     1      45.462   3.493  12.734  0.00  0.00    +0.000 A 
ATOM     19  C   UNL     1      46.637   3.326  13.462  0.00  0.00    +0.000 A 
ATOM     20  C   UNL     1      47.380   4.440  13.845  0.00  0.00    +0.000 A 
ATOM     21  C   UNL     1      46.932   5.737  13.562  0.00  0.00    +0.000 A 
ATOM     22  C   UNL     1      45.774   5.872  12.770  0.00  0.00    +0.000 A 
BRANCH  21  23
ATOM     23  C   UNL     1      47.692   6.978  14.023  0.00  0.00    +0.000 C 
ATOM     24  C   UNL     1      47.196   8.332  13.496  0.00  0.00    +0.000 C 
ATOM     25  C   UNL     1      47.407   8.444  11.989  0.00  0.00    +0.000 C 
ATOM     26  C   UNL     1      48.839   8.108  11.598  0.00  0.00    +0.000 C 
ATOM     27  C   UNL     1      49.432   6.926  12.359  0.00  0.00    +0.000 C 
ATOM     28  O   UNL     1      49.102   6.900  13.748  0.00  0.00    +0.000 OA
ENDBRANCH  21  23
ENDBRANCH   1  17
TORSDOF 4
ENDMDL
MODEL 2
REMARK VINA RESULT:    -6.813      3.306      5.639
REMARK INTER + INTRA:          -9.190
REMARK INTER:                  -8.920
REMARK INTRA:                  -0.270
REMARK UNBOUND:                -0.785
REMARK  Name = 
REMARK  4 active torsions:
REMARK  status: ('A' for Active; 'I' for Inactive)
REMARK    1  A    between atoms: C_2  and  C_4
REMARK    2  A    between atoms: N_8  and  C_9
REMARK    3  A    between atoms: C_9  and  C_10
REMARK    4  A    between atoms: C_14  and  C_15
REMARK                            x       y       z     vdW  Elec       q    Type
REMARK                         _______ _______ _______ _____ _____    ______ ____
ROOT
ATOM      1  C   UNL     1      48.180   8.018  13.622  0.00  0.00    +0.000 C 
ATOM      2  C   UNL     1      48.409   9.509  13.418  0.00  0.00    +0.000 C 
ATOM      3  C   UNL     1      48.826   8.552  12.353  0.00  0.00    +0.000 C 
ENDROOT
BRANCH   1   8
ATOM      4  C   UNL     1      44.885   4.981  11.062  0.00  0.00    +0.000 A 
ATOM      5  C   UNL     1      45.800   5.890  10.537  0.00  0.00    +0.000 A 
ATOM      6  C   UNL     1      46.479   6.747  11.401  0.00  0.00    +0.000 A 
ATOM      7  C   UNL     1      46.223   6.691  12.763  0.00  0.00    +0.000 A 
ATOM      8  N   UNL     1      46.765   7.612  13.668  0.00  0.00    +0.000 N 
ATOM      9  N   UNL     1      45.348   5.805  13.289  0.00  0.00    +0.000 NA
ATOM     10  C   UNL     1      44.701   4.972  12.435  0.00  0.00    +0.000 A 
ATOM     11  H   UNL     1      46.445   7.282  14.578  0.00  0.00    +0.000 HD
BRANCH   4  13
ATOM     12  N   UNL     1      44.072   4.303   8.874  0.00  0.00    +0.000 N 
ATOM     13  C   UNL     1      44.073   4.077  10.225  0.00  0.00    +0.000 C 
ATOM     14  O   UNL     1      43.444   3.147  10.707  0.00  0.00    +0.000 OA
ATOM     15  H   UNL     1      43.562   3.638   8.306  0.00  0.00    +0.000 HD
ATOM     16  H   UNL     1      44.736   4.902   8.411  0.00  0.00    +0.000 HD
ENDBRANCH   4  13
ENDBRANCH   1   8
BRANCH   1  17
ATOM     17  C   UNL     1      49.034   7.285  14.651  0.00  0.00    +0.000 A 
ATOM     18  C   UNL     1      50.419   7.512  14.707  0.00  0.00    +0.000 A 
ATOM     19  C   UNL     1      51.190   7.038  15.766  0.00  0.00    +0.000 A 
ATOM     20  C   UNL     1      50.597   6.278  16.772  0.00  0.00    +0.000 A 
ATOM     21  C   UNL     1      49.241   5.928  16.705  0.00  0.00    +0.000 A 
ATOM     22  C   UNL     1      48.474   6.474  15.656  0.00  0.00    +0.000 A 
BRANCH  21  23
ATOM     23  C   UNL     1      48.578   5.044  17.758  0.00  0.00    +0.000 C 
ATOM     24  C   UNL     1      49.466   3.998  18.446  0.00  0.00    +0.000 C 
ATOM     25  C   UNL     1      49.922   2.929  17.457  0.00  0.00    +0.000 C 
ATOM     26  C   UNL     1      48.746   2.342  16.689  0.00  0.00    +0.000 C 
ATOM     27  C   UNL     1      47.702   3.369  16.264  0.00  0.00    +0.000 C 
ATOM     28  O   UNL     1      47.418   4.357  17.254  0.00  0.00    +0.000 OA
ENDBRANCH  21  23
ENDBRANCH   1  17
TORSDOF 4
ENDMDL
MODEL 3
REMARK VINA RESULT:    -6.715      3.944      8.019
REMARK INTER + INTRA:          -9.070
REMARK INTER:                  -8.074
REMARK INTRA:                  -0.996
REMARK UNBOUND:                -0.785
REMARK  Name = 
REMARK  4 active torsions:
REMARK  status: ('A' for Active; 'I' for Inactive)
REMARK    1  A    between atoms: C_2  and  C_4
REMARK    2  A    between atoms: N_8  and  C_9
REMARK    3  A    between atoms: C_9  and  C_10
REMARK    4  A    between atoms: C_14  and  C_15
REMARK                            x       y       z     vdW  Elec       q    Type
REMARK                         _______ _______ _______ _____ _____    ______ ____
ROOT
ATOM      1  C   UNL     1      48.946   7.888  12.644  0.00  0.00    +0.000 C 
ATOM      2  C   UNL     1      49.881   8.137  11.469  0.00  0.00    +0.000 C 
ATOM      3  C   UNL     1      49.651   9.223  12.464  0.00  0.00    +0.000 C 
ENDROOT
BRANCH   1   8
ATOM      4  C   UNL     1      48.375   6.633  17.617  0.00  0.00    +0.000 A 
ATOM      5  C   UNL     1      48.607   7.892  17.070  0.00  0.00    +0.000 A 
ATOM      6  C   UNL     1      48.909   8.000  15.714  0.00  0.00    +0.000 A 
ATOM      7  C   UNL     1      48.987   6.854  14.937  0.00  0.00    +0.000 A 
ATOM      8  N   UNL     1      49.420   6.878  13.605  0.00  0.00    +0.000 N 
ATOM      9  N   UNL     1      48.751   5.626  15.450  0.00  0.00    +0.000 NA
ATOM     10  C   UNL     1      48.450   5.540  16.770  0.00  0.00    +0.000 A 
ATOM     11  H   UNL     1      49.316   5.912  13.294  0.00  0.00    +0.000 HD
BRANCH   4  13
ATOM     12  N   UNL     1      47.150   5.489  19.378  0.00  0.00    +0.000 N 
ATOM     13  C   UNL     1      48.109   6.411  19.051  0.00  0.00    +0.000 C 
ATOM     14  O   UNL     1      48.732   7.004  19.919  0.00  0.00    +0.000 OA
ATOM     15  H   UNL     1      47.022   5.302  20.365  0.00  0.00    +0.000 HD
ATOM     16  H   UNL     1      46.774   4.823  18.722  0.00  0.00    +0.000 HD
ENDBRANCH   4  13
ENDBRANCH   1   8
BRANCH   1  17
ATOM     17  C   UNL     1      47.450   7.784  12.372  0.00  0.00    +0.000 A 
ATOM     18  C   UNL     1      46.621   8.905  12.549  0.00  0.00    +0.000 A 
ATOM     19  C   UNL     1      45.303   8.911  12.101  0.00  0.00    +0.000 A 
ATOM     20  C   UNL     1      44.765   7.771  11.509  0.00  0.00    +0.000 A 
ATOM     21  C   UNL     1      45.512   6.589  11.411  0.00  0.00    +0.000 A 
ATOM     22  C   UNL     1      46.862   6.632  11.815  0.00  0.00    +0.000 A 
BRANCH  21  23
ATOM     23  C   UNL     1      44.930   5.305  10.826  0.00  0.00    +0.000 C 
ATOM     24  C   UNL     1      43.400   5.213  10.741  0.00  0.00    +0.000 C 
ATOM     25  C   UNL     1      42.775   5.171  12.133  0.00  0.00    +0.000 C 
ATOM     26  C   UNL     1      43.420   4.101  13.002  0.00  0.00    +0.000 C 
ATOM     27  C   UNL     1      44.934   4.000  12.850  0.00  0.00    +0.000 C 
ATOM     28  O   UNL     1      45.395   4.125  11.504  0.00  0.00    +0.000 OA
ENDBRANCH  21  23
ENDBRANCH   1  17
TORSDOF 4
ENDMDL
MODEL 4
REMARK VINA RESULT:    -6.214      3.625      5.639
REMARK INTER + INTRA:          -8.452
REMARK INTER:                  -8.370
REMARK INTRA:                  -0.082
REMARK UNBOUND:                -0.785
REMARK  Name = 
REMARK  4 active torsions:
REMARK  status: ('A' for Active; 'I' for Inactive)
REMARK    1  A    between atoms: C_2  and  C_4
REMARK    2  A    between atoms: N_8  and  C_9
REMARK    3  A    between atoms: C_9  and  C_10
REMARK    4  A    between atoms: C_14  and  C_15
REMARK                            x       y       z     vdW  Elec       q    Type
REMARK                         _______ _______ _______ _____ _____    ______ ____
ROOT
ATOM      1  C   UNL     1      48.096   7.693  13.866  0.00  0.00    +0.000 C 
ATOM      2  C   UNL     1      48.128   9.211  13.750  0.00  0.00    +0.000 C 
ATOM      3  C   UNL     1      48.646   8.380  12.626  0.00  0.00    +0.000 C 
ENDROOT
BRANCH   1   8
ATOM      4  C   UNL     1      45.034   4.722  10.962  0.00  0.00    +0.000 A 
ATOM      5  C   UNL     1      45.798   5.816  10.563  0.00  0.00    +0.000 A 
ATOM      6  C   UNL     1      46.423   6.598  11.532  0.00  0.00    +0.000 A 
ATOM      7  C   UNL     1      46.262   6.285  12.874  0.00  0.00    +0.000 A 
ATOM      8  N   UNL     1      46.745   7.106  13.900  0.00  0.00    +0.000 N 
ATOM      9  N   UNL     1      45.535   5.219  13.276  0.00  0.00    +0.000 NA
ATOM     10  C   UNL     1      44.940   4.462  12.319  0.00  0.00    +0.000 A 
ATOM     11  H   UNL     1      46.526   6.591  14.753  0.00  0.00    +0.000 HD
BRANCH   4  13
ATOM     12  N   UNL     1      44.210   4.294   8.715  0.00  0.00    +0.000 N 
ATOM     13  C   UNL     1      44.286   3.872  10.017  0.00  0.00    +0.000 C 
ATOM     14  O   UNL     1      43.771   2.820  10.366  0.00  0.00    +0.000 OA
ATOM     15  H   UNL     1      43.748   3.670   8.065  0.00  0.00    +0.000 HD
ATOM     16  H   UNL     1      44.793   5.021   8.333  0.00  0.00    +0.000 HD
ENDBRANCH   4  13
ENDBRANCH   1   8
BRANCH   1  17
ATOM     17  C   UNL     1      49.055   7.018  14.840  0.00  0.00    +0.000 A 
ATOM     18  C   UNL     1      50.402   7.410  14.889  0.00  0.00    +0.000 A 
ATOM     19  C   UNL     1      51.247   6.979  15.909  0.00  0.00    +0.000 A 
ATOM     20  C   UNL     1      50.773   6.099  16.879  0.00  0.00    +0.000 A 
ATOM     21  C   UNL     1      49.469   5.588  16.812  0.00  0.00    +0.000 A 
ATOM     22  C   UNL     1      48.620   6.090  15.806  0.00  0.00    +0.000 A 
BRANCH  21  23
ATOM     23  C   UNL     1      48.942   4.573  17.823  0.00  0.00    +0.000 C 
ATOM     24  C   UNL     1      47.429   4.578  18.087  0.00  0.00    +0.000 C 
ATOM     25  C   UNL     1      46.996   5.874  18.768  0.00  0.00    +0.000 C 
ATOM     26  C   UNL     1      47.846   6.171  19.995  0.00  0.00    +0.000 C 
ATOM     27  C   UNL     1      49.330   5.873  19.813  0.00  0.00    +0.000 C 
ATOM     28  O   UNL     1      49.601   4.667  19.098  0.00  0.00    +0.000 OA
ENDBRANCH  21  23
ENDBRANCH   1  17
TORSDOF 4
ENDMDL
MODEL 5
REMARK VINA RESULT:    -5.920      4.186      6.648
REMARK INTER + INTRA:          -8.089
REMARK INTER:                  -6.989
REMARK INTRA:                  -1.100
REMARK UNBOUND:                -0.785
REMARK  Name = 
REMARK  4 active torsions:
REMARK  status: ('A' for Active; 'I' for Inactive)
REMARK    1  A    between atoms: C_2  and  C_4
REMARK    2  A    between atoms: N_8  and  C_9
REMARK    3  A    between atoms: C_9  and  C_10
REMARK    4  A    between atoms: C_14  and  C_15
REMARK                            x       y       z     vdW  Elec       q    Type
REMARK                         _______ _______ _______ _____ _____    ______ ____
ROOT
ATOM      1  C   UNL     1      49.466   8.456  13.291  0.00  0.00    +0.000 C 
ATOM      2  C   UNL     1      50.530   9.375  12.710  0.00  0.00    +0.000 C 
ATOM      3  C   UNL     1      50.775   7.905  12.748  0.00  0.00    +0.000 C 
ENDROOT
BRANCH   1   8
ATOM      4  C   UNL     1      45.158   5.627  13.011  0.00  0.00    +0.000 A 
ATOM      5  C   UNL     1      46.474   5.181  13.097  0.00  0.00    +0.000 A 
ATOM      6  C   UNL     1      47.513   6.102  12.985  0.00  0.00    +0.000 A 
ATOM      7  C   UNL     1      47.221   7.442  12.776  0.00  0.00    +0.000 A 
ATOM      8  N   UNL     1      48.213   8.396  12.518  0.00  0.00    +0.000 N 
ATOM      9  N   UNL     1      45.948   7.893  12.705  0.00  0.00    +0.000 NA
ATOM     10  C   UNL     1      44.949   6.983  12.825  0.00  0.00    +0.000 A 
ATOM     11  H   UNL     1      47.702   9.277  12.466  0.00  0.00    +0.000 HD
BRANCH   4  13
ATOM     12  N   UNL     1      42.752   5.298  13.133  0.00  0.00    +0.000 N 
ATOM     13  C   UNL     1      43.994   4.722  13.056  0.00  0.00    +0.000 C 
ATOM     14  O   UNL     1      44.120   3.508  13.003  0.00  0.00    +0.000 OA
ATOM     15  H   UNL     1      41.960   4.668  13.100  0.00  0.00    +0.000 HD
ATOM     16  H   UNL     1      42.582   6.275  12.956  0.00  0.00    +0.000 HD
ENDBRANCH   4  13
ENDBRANCH   1   8
BRANCH   1  17
ATOM     17  C   UNL     1      49.226   8.481  14.796  0.00  0.00    +0.000 A 
ATOM     18  C   UNL     1      48.556   9.566  15.386  0.00  0.00    +0.000 A 
ATOM     19  C   UNL     1      48.124   9.520  16.709  0.00  0.00    +0.000 A 
ATOM     20  C   UNL     1      48.401   8.402  17.492  0.00  0.00    +0.000 A 
ATOM     21  C   UNL     1      49.164   7.340  16.987  0.00  0.00    +0.000 A 
ATOM     22  C   UNL     1      49.532   7.386  15.628  0.00  0.00    +0.000 A 
BRANCH  21  23
ATOM     23  C   UNL     1      49.537   6.130  17.840  0.00  0.00    +0.000 C 
ATOM     24  C   UNL     1      49.603   4.772  17.127  0.00  0.00    +0.000 C 
ATOM     25  C   UNL     1      48.221   4.336  16.649  0.00  0.00    +0.000 C 
ATOM     26  C   UNL     1      47.194   4.405  17.770  0.00  0.00    +0.000 C 
ATOM     27  C   UNL     1      47.332   5.629  18.668  0.00  0.00    +0.000 C 
ATOM     28  O   UNL     1      48.681   5.974  18.985  0.00  0.00    +0.000 OA
ENDBRANCH  21  23
ENDBRANCH   1  17
TORSDOF 4
ENDMDL
