MODEL 1
REMARK VINA RESULT:    -8.622      0.000      0.000
REMARK INTER + INTRA:         -13.541
REMARK INTER:                 -12.403
REMARK INTRA:                  -1.138
REMARK UNBOUND:                -1.138
REMARK  Name = 
REMARK  8 active torsions:
REMARK  status: ('A' for Active; 'I' for Inactive)
REMARK    1  A    between atoms: C_2  and  C_21
REMARK    2  A    between atoms: N_3  and  C_4
REMARK    3  A    between atoms: C_4  and  C_5
REMARK    4  A    between atoms: C_8  and  C_9
REMARK    5  A    between atoms: C_9  and  C_10
REMARK    6  A    between atoms: C_10  and  O_11
REMARK    7  A    between atoms: C_10  and  C_12
REMARK    8  A    between atoms: C_12  and  C_13
REMARK                            x       y       z     vdW  Elec       q    Type
REMARK                         _______ _______ _______ _____ _____    ______ ____
ROOT
ATOM      1  C   UNL     1      46.201   7.310  12.436  0.00  0.00    +0.000 A 
ATOM      2  C   UNL     1      46.725   6.687  11.303  0.00  0.00    +0.000 A 
ATOM      3  C   UNL     1      45.963   5.742  10.623  0.00  0.00    +0.000 A 
ATOM      4  C   UNL     1      44.684   5.441  11.086  0.00  0.00    +0.000 A 
ATOM      5  N   UNL     1      44.136   6.062  12.157  0.00  0.00    +0.000 NA
ATOM      6  C   UNL     1      44.897   6.984  12.794  0.00  0.00    +0.000 A 
ENDROOT
BRANCH   1   7
ATOM      7  C   UNL     1      47.013   8.292  13.225  0.00  0.00    +0.000 C 
BRANCH   7  10
ATOM      8  O   UNL     1      49.199   6.581  13.691  0.00  0.00    +0.000 OA
ATOM      9  C   UNL     1      48.523   6.961  14.644  0.00  0.00    +0.000 C 
ATOM     10  N   UNL     1      47.421   7.756  14.497  0.00  0.00    +0.000 N 
ATOM     11  H   UNL     1      47.000   8.179  15.318  0.00  0.00    +0.000 HD
BRANCH   9  12
ATOM     12  C   UNL     1      48.834   6.537  16.017  0.00  0.00    +0.000 A 
ATOM     13  C   UNL     1      49.500   7.403  16.876  0.00  0.00    +0.000 A 
ATOM     14  S   UNL     1      49.768   6.751  18.429  0.00  0.00    +0.000 S 
ATOM     15  C   UNL     1      48.966   5.306  18.021  0.00  0.00    +0.000 A 
ATOM     16  N   UNL     1      48.802   4.314  18.939  0.00  0.00    +0.000 NA
ATOM     17  C   UNL     1      48.139   3.294  18.508  0.00  0.00    +0.000 A 
ATOM     18  N   UNL     1      47.642   3.165  17.235  0.00  0.00    +0.000 N 
ATOM     19  C   UNL     1      47.863   4.099  16.253  0.00  0.00    +0.000 A 
ATOM     20  O   UNL     1      47.551   3.884  15.086  0.00  0.00    +0.000 OA
ATOM     21  C   UNL     1      48.541   5.302  16.705  0.00  0.00    +0.000 A 
ATOM     22  H   UNL     1      47.167   2.322  16.947  0.00  0.00    +0.000 HD
ENDBRANCH   9  12
ENDBRANCH   7  10
ENDBRANCH   1   7
BRANCH   4  23
ATOM     23  C   UNL     1      43.862   4.368  10.411  0.00  0.00    +0.000 C 
BRANCH  23  24
ATOM     24  C   UNL     1      44.497   2.973  10.513  0.00  0.00    +0.000 C 
BRANCH  24  25
ATOM     25  O   UNL     1      43.871   2.246  11.586  0.00  0.00    +0.000 OA
ATOM     26  H   UNL     1      43.094   2.747  11.882  0.00  0.00    +0.000 HD
ENDBRANCH  24  25
BRANCH  24  27
ATOM     27  C   UNL     1      44.306   2.199   9.194  0.00  0.00    +0.000 C 
BRANCH  27  28
ATOM     28  C   UNL     1      45.559   2.234   8.352  0.00  0.00    +0.000 A 
ATOM     29  C   UNL     1      45.930   3.407   7.695  0.00  0.00    +0.000 A 
ATOM     30  C   UNL     1      47.028   3.383   6.841  0.00  0.00    +0.000 A 
ATOM     31  C   UNL     1      47.727   2.195   6.670  0.00  0.00    +0.000 A 
ATOM     32  C   UNL     1      47.306   1.083   7.378  0.00  0.00    +0.000 A 
ATOM     33  N   UNL     1      46.246   1.074   8.216  0.00  0.00    +0.000 NA
ENDBRANCH  27  28
ENDBRANCH  24  27
ENDBRANCH  23  24
ENDBRANCH   4  23
TORSDOF 8
ENDMDL
MODEL 2
REMARK VINA RESULT:    -8.235      1.370      1.555
REMARK INTER + INTRA:         -12.985
REMARK INTER:                 -11.891
REMARK INTRA:                  -1.093
REMARK UNBOUND:                -1.138
REMARK  Name = 
REMARK  8 active torsions:
REMARK  status: ('A' for Active; 'I' for Inactive)
REMARK    1  A    between atoms: C_2  and  C_21
REMARK    2  A    between atoms: N_3  and  C_4
REMARK    3  A    between atoms: C_4  and  C_5
REMARK    4  A    between atoms: C_8  and  C_9
REMARK    5  A    between atoms: C_9  and  C_10
REMARK    6  A    between atoms: C_10  and  O_11
REMARK    7  A    between atoms: C_10  and  C_12
REMARK    8  A    between atoms: C_12  and  C_13
REMARK                            x       y       z     vdW  Elec       q    Type
REMARK                         _______ _______ _______ _____ _____    ______ ____
ROOT
ATOM      1  C   UNL     1      46.920   6.568  12.983  0.00  0.00    +0.000 A 
ATOM      2  C   UNL     1      46.331   6.972  11.785  0.00  0.00    +0.000 A 
ATOM      3  C   UNL     1      45.323   6.199  11.219  0.00  0.00    +0.000 A 
ATOM      4  C   UNL     1      44.915   5.035  11.867  0.00  0.00    +0.000 A 
ATOM      5  N   UNL     1      45.440   4.644  13.052  0.00  0.00    +0.000 NA
ATOM      6  C   UNL     1      46.414   5.421  13.585  0.00  0.00    +0.000 A 
ENDROOT
BRANCH   1   7
ATOM      7  C   UNL     1      48.046   7.347  13.593  0.00  0.00    +0.000 C 
BRANCH   7  10
ATOM      8  O   UNL     1      50.198   6.667  15.275  0.00  0.00    +0.000 OA
ATOM      9  C   UNL     1      49.125   6.991  15.778  0.00  0.00    +0.000 C 
ATOM     10  N   UNL     1      48.022   7.292  15.032  0.00  0.00    +0.000 N 
ATOM     11  H   UNL     1      47.216   7.715  15.482  0.00  0.00    +0.000 HD
BRANCH   9  12
ATOM     12  C   UNL     1      48.948   7.027  17.237  0.00  0.00    +0.000 A 
ATOM     13  C   UNL     1      48.682   8.233  17.873  0.00  0.00    +0.000 A 
ATOM     14  S   UNL     1      48.494   8.087  19.562  0.00  0.00    +0.000 S 
ATOM     15  C   UNL     1      48.720   6.401  19.497  0.00  0.00    +0.000 A 
ATOM     16  N   UNL     1      48.637   5.640  20.623  0.00  0.00    +0.000 NA
ATOM     17  C   UNL     1      48.786   4.374  20.422  0.00  0.00    +0.000 A 
ATOM     18  N   UNL     1      49.030   3.799  19.200  0.00  0.00    +0.000 N 
ATOM     19  C   UNL     1      49.210   4.536  18.055  0.00  0.00    +0.000 A 
ATOM     20  O   UNL     1      49.588   4.012  17.012  0.00  0.00    +0.000 OA
ATOM     21  C   UNL     1      48.980   5.962  18.212  0.00  0.00    +0.000 A 
ATOM     22  H   UNL     1      49.178   2.804  19.115  0.00  0.00    +0.000 HD
ENDBRANCH   9  12
ENDBRANCH   7  10
ENDBRANCH   1   7
BRANCH   4  23
ATOM     23  C   UNL     1      43.872   4.139  11.240  0.00  0.00    +0.000 C 
BRANCH  23  24
ATOM     24  C   UNL     1      44.481   3.015  10.388  0.00  0.00    +0.000 C 
BRANCH  24  25
ATOM     25  O   UNL     1      43.696   1.821  10.551  0.00  0.00    +0.000 OA
ATOM     26  H   UNL     1      44.057   1.315  11.296  0.00  0.00    +0.000 HD
ENDBRANCH  24  25
BRANCH  24  27
ATOM     27  C   UNL     1      44.495   3.418   8.901  0.00  0.00    +0.000 C 
BRANCH  27  28
ATOM     28  C   UNL     1      45.618   2.735   8.158  0.00  0.00    +0.000 A 
ATOM     29  C   UNL     1      46.292   3.402   7.136  0.00  0.00    +0.000 A 
ATOM     30  C   UNL     1      47.249   2.713   6.397  0.00  0.00    +0.000 A 
ATOM     31  C   UNL     1      47.511   1.384   6.701  0.00  0.00    +0.000 A 
ATOM     32  C   UNL     1      46.815   0.804   7.748  0.00  0.00    +0.000 A 
ATOM     33  N   UNL     1      45.882   1.445   8.484  0.00  0.00    +0.000 NA
ENDBRANCH  27  28
ENDBRANCH  24  27
ENDBRANCH  23  24
ENDBRANCH   4  23
TORSDOF 8
ENDMDL
MODEL 3
REMARK VINA RESULT:    -7.771      2.210      2.818
REMARK INTER + INTRA:         -12.316
REMARK INTER:                 -11.388
REMARK INTRA:                  -0.928
REMARK UNBOUND:                -1.138
REMARK  Name = 
REMARK  8 active torsions:
REMARK  status: ('A' for Active; 'I' for Inactive)
REMARK    1  A    between atoms: C_2  and  C_21
REMARK    2  A    between atoms: N_3  and  C_4
REMARK    3  A    between atoms: C_4  and  C_5
REMARK    4  A    between atoms: C_8  and  C_9
REMARK    5  A    between atoms: C_9  and  C_10
REMARK    6  A    between atoms: C_10  and  O_11
REMARK    7  A    between atoms: C_10  and  C_12
REMARK    8  A    between atoms: C_12  and  C_13
REMARK                            x       y       z     vdW  Elec       q    Type
REMARK                         _______ _______ _______ _____ _____    ______ ____
ROOT
ATOM      1  C   UNL     1      47.255   6.234  13.284  0.00  0.00    +0.000 A 
ATOM      2  C   UNL     1      46.964   6.773  12.031  0.00  0.00    +0.000 A 
ATOM      3  C   UNL     1      45.920   6.246  11.280  0.00  0.00    +0.000 A 
ATOM      4  C   UNL     1      45.176   5.188  11.800  0.00  0.00    +0.000 A 
ATOM      5  N   UNL     1      45.409   4.675  13.030  0.00  0.00    +0.000 NA
ATOM      6  C   UNL     1      46.427   5.215  13.744  0.00  0.00    +0.000 A 
ENDROOT
BRANCH   1   7
ATOM      7  C   UNL     1      48.407   6.741  14.097  0.00  0.00    +0.000 C 
BRANCH   7  10
ATOM      8  O   UNL     1      50.429   6.237  15.990  0.00  0.00    +0.000 OA
ATOM      9  C   UNL     1      49.261   6.306  16.366  0.00  0.00    +0.000 C 
ATOM     10  N   UNL     1      48.219   6.502  15.504  0.00  0.00    +0.000 N 
ATOM     11  H   UNL     1      47.300   6.720  15.877  0.00  0.00    +0.000 HD
BRANCH   9  12
ATOM     12  C   UNL     1      48.905   6.127  17.781  0.00  0.00    +0.000 A 
ATOM     13  C   UNL     1      49.153   4.912  18.409  0.00  0.00    +0.000 A 
ATOM     14  S   UNL     1      48.687   4.885  20.050  0.00  0.00    +0.000 S 
ATOM     15  C   UNL     1      48.177   6.509  19.989  0.00  0.00    +0.000 A 
ATOM     16  N   UNL     1      47.699   7.134  21.099  0.00  0.00    +0.000 NA
ATOM     17  C   UNL     1      47.389   8.374  20.920  0.00  0.00    +0.000 A 
ATOM     18  N   UNL     1      47.495   9.043  19.726  0.00  0.00    +0.000 N 
ATOM     19  C   UNL     1      47.886   8.427  18.563  0.00  0.00    +0.000 A 
ATOM     20  O   UNL     1      47.815   9.003  17.481  0.00  0.00    +0.000 OA
ATOM     21  C   UNL     1      48.316   7.049  18.723  0.00  0.00    +0.000 A 
ATOM     22  H   UNL     1      47.197  10.003  19.641  0.00  0.00    +0.000 HD
ENDBRANCH   9  12
ENDBRANCH   7  10
ENDBRANCH   1   7
BRANCH   4  23
ATOM     23  C   UNL     1      44.082   4.548  10.977  0.00  0.00    +0.000 C 
BRANCH  23  24
ATOM     24  C   UNL     1      44.573   3.344  10.159  0.00  0.00    +0.000 C 
BRANCH  24  25
ATOM     25  O   UNL     1      43.755   2.201  10.464  0.00  0.00    +0.000 OA
ATOM     26  H   UNL     1      42.839   2.403  10.214  0.00  0.00    +0.000 HD
ENDBRANCH  24  25
BRANCH  24  27
ATOM     27  C   UNL     1      44.481   3.648   8.651  0.00  0.00    +0.000 C 
BRANCH  27  28
ATOM     28  C   UNL     1      45.593   2.970   7.887  0.00  0.00    +0.000 A 
ATOM     29  C   UNL     1      45.998   1.681   8.232  0.00  0.00    +0.000 A 
ATOM     30  C   UNL     1      47.094   1.121   7.585  0.00  0.00    +0.000 A 
ATOM     31  C   UNL     1      47.752   1.858   6.609  0.00  0.00    +0.000 A 
ATOM     32  C   UNL     1      47.272   3.121   6.310  0.00  0.00    +0.000 A 
ATOM     33  N   UNL     1      46.210   3.692   6.919  0.00  0.00    +0.000 NA
ENDBRANCH  27  28
ENDBRANCH  24  27
ENDBRANCH  23  24
ENDBRANCH   4  23
TORSDOF 8
ENDMDL
MODEL 4
REMARK VINA RESULT:    -7.614      2.541      3.638
REMARK INTER + INTRA:         -12.090
REMARK INTER:                 -10.817
REMARK INTRA:                  -1.274
REMARK UNBOUND:                -1.138
REMARK  Name = 
REMARK  8 active torsions:
REMARK  status: ('A' for Active; 'I' for Inactive)
REMARK    1  A    between atoms: C_2  and  C_21
REMARK    2  A    between atoms: N_3  and  C_4
REMARK    3  A    between atoms: C_4  and  C_5
REMARK    4  A    between atoms: C_8  and  C_9
REMARK    5  A    between atoms: C_9  and  C_10
REMARK    6  A    between atoms: C_10  and  O_11
REMARK    7  A    between atoms: C_10  and  C_12
REMARK    8  A    between atoms: C_12  and  C_13
REMARK                            x       y       z     vdW  Elec       q    Type
REMARK                         _______ _______ _______ _____ _____    ______ ____
ROOT
ATOM      1  C   UNL     1      47.203   5.043  14.385  0.00  0.00    +0.000 A 
ATOM      2  C   UNL     1      47.196   6.241  13.671  0.00  0.00    +0.000 A 
ATOM      3  C   UNL     1      46.438   6.345  12.509  0.00  0.00    +0.000 A 
ATOM      4  C   UNL     1      45.692   5.247  12.084  0.00  0.00    +0.000 A 
ATOM      5  N   UNL     1      45.648   4.088  12.782  0.00  0.00    +0.000 NA
ATOM      6  C   UNL     1      46.389   4.018  13.915  0.00  0.00    +0.000 A 
ENDROOT
BRANCH   1   7
ATOM      7  C   UNL     1      48.051   4.877  15.611  0.00  0.00    +0.000 C 
BRANCH   7  10
ATOM      8  O   UNL     1      49.701   5.605  17.771  0.00  0.00    +0.000 OA
ATOM      9  C   UNL     1      48.641   6.203  17.600  0.00  0.00    +0.000 C 
ATOM     10  N   UNL     1      47.765   5.880  16.603  0.00  0.00    +0.000 N 
ATOM     11  H   UNL     1      46.992   6.506  16.398  0.00  0.00    +0.000 HD
BRANCH   9  12
ATOM     12  C   UNL     1      48.223   7.285  18.503  0.00  0.00    +0.000 A 
ATOM     13  C   UNL     1      48.044   7.027  19.856  0.00  0.00    +0.000 A 
ATOM     14  S   UNL     1      47.568   8.397  20.755  0.00  0.00    +0.000 S 
ATOM     15  C   UNL     1      47.628   9.391  19.374  0.00  0.00    +0.000 A 
ATOM     16  N   UNL     1      47.366  10.724  19.460  0.00  0.00    +0.000 NA
ATOM     17  C   UNL     1      47.489  11.365  18.346  0.00  0.00    +0.000 A 
ATOM     18  N   UNL     1      47.831  10.790  17.148  0.00  0.00    +0.000 N 
ATOM     19  C   UNL     1      48.014   9.437  16.998  0.00  0.00    +0.000 A 
ATOM     20  O   UNL     1      48.156   8.932  15.889  0.00  0.00    +0.000 OA
ATOM     21  C   UNL     1      47.959   8.680  18.236  0.00  0.00    +0.000 A 
ATOM     22  H   UNL     1      47.870  11.339  16.302  0.00  0.00    +0.000 HD
ENDBRANCH   9  12
ENDBRANCH   7  10
ENDBRANCH   1   7
BRANCH   4  23
ATOM     23  C   UNL     1      44.917   5.307  10.789  0.00  0.00    +0.000 C 
BRANCH  23  24
ATOM     24  C   UNL     1      44.612   3.919  10.207  0.00  0.00    +0.000 C 
BRANCH  24  25
ATOM     25  O   UNL     1      43.339   3.467  10.703  0.00  0.00    +0.000 OA
ATOM     26  H   UNL     1      43.493   2.922  11.490  0.00  0.00    +0.000 HD
ENDBRANCH  24  25
BRANCH  24  27
ATOM     27  C   UNL     1      44.567   3.981   8.668  0.00  0.00    +0.000 C 
BRANCH  27  28
ATOM     28  C   UNL     1      45.624   3.096   8.053  0.00  0.00    +0.000 A 
ATOM     29  C   UNL     1      46.405   3.564   6.996  0.00  0.00    +0.000 A 
ATOM     30  C   UNL     1      47.295   2.693   6.378  0.00  0.00    +0.000 A 
ATOM     31  C   UNL     1      47.389   1.384   6.832  0.00  0.00    +0.000 A 
ATOM     32  C   UNL     1      46.596   1.007   7.903  0.00  0.00    +0.000 A 
ATOM     33  N   UNL     1      45.723   1.828   8.525  0.00  0.00    +0.000 NA
ENDBRANCH  27  28
ENDBRANCH  24  27
ENDBRANCH  23  24
ENDBRANCH   4  23
TORSDOF 8
ENDMDL
MODEL 5
REMARK VINA RESULT:    -7.413      3.566      4.662
REMARK INTER + INTRA:         -11.802
REMARK INTER:                 -10.540
REMARK INTRA:                  -1.262
REMARK UNBOUND:                -1.138
REMARK  Name = 
REMARK  8 active torsions:
REMARK  status: ('A' for Active; 'I' for Inactive)
REMARK    1  A    between atoms: C_2  and  C_21
REMARK    2  A    between atoms: N_3  and  C_4
REMARK    3  A    between atoms: C_4  and  C_5
REMARK    4  A    between atoms: C_8  and  C_9
REMARK    5  A    between atoms: C_9  and  C_10
REMARK    6  A    between atoms: C_10  and  O_11
REMARK    7  A    between atoms: C_10  and  C_12
REMARK    8  A    between atoms: C_12  and  C_13
REMARK                            x       y       z     vdW  Elec       q    Type
REMARK                         _______ _______ _______ _____ _____    ______ ____
ROOT
ATOM      1  C   UNL     1      48.068   5.123  16.225  0.00  0.00    +0.000 A 
ATOM      2  C   UNL     1      48.392   6.213  15.419  0.00  0.00    +0.000 A 
ATOM      3  C   UNL     1      47.827   6.326  14.153  0.00  0.00    +0.000 A 
ATOM      4  C   UNL     1      46.938   5.345  13.717  0.00  0.00    +0.000 A 
ATOM      5  N   UNL     1      46.574   4.300  14.497  0.00  0.00    +0.000 NA
ATOM      6  C   UNL     1      47.133   4.221  15.728  0.00  0.00    +0.000 A 
ENDROOT
BRANCH   1   7
ATOM      7  C   UNL     1      48.700   4.941  17.572  0.00  0.00    +0.000 C 
BRANCH   7  10
ATOM      8  O   UNL     1      50.585   4.816  19.659  0.00  0.00    +0.000 OA
ATOM      9  C   UNL     1      50.896   4.397  18.546  0.00  0.00    +0.000 C 
ATOM     10  N   UNL     1      50.054   4.464  17.472  0.00  0.00    +0.000 N 
ATOM     11  H   UNL     1      50.289   3.956  16.624  0.00  0.00    +0.000 HD
BRANCH   9  12
ATOM     12  C   UNL     1      52.231   3.838  18.288  0.00  0.00    +0.000 A 
ATOM     13  C   UNL     1      53.362   4.606  18.535  0.00  0.00    +0.000 A 
ATOM     14  S   UNL     1      54.824   3.796  18.190  0.00  0.00    +0.000 S 
ATOM     15  C   UNL     1      53.996   2.378  17.740  0.00  0.00    +0.000 A 
ATOM     16  N   UNL     1      54.676   1.259  17.369  0.00  0.00    +0.000 NA
ATOM     17  C   UNL     1      53.926   0.246  17.095  0.00  0.00    +0.000 A 
ATOM     18  N   UNL     1      52.554   0.254  17.139  0.00  0.00    +0.000 N 
ATOM     19  C   UNL     1      51.827   1.384  17.419  0.00  0.00    +0.000 A 
ATOM     20  O   UNL     1      50.607   1.405  17.291  0.00  0.00    +0.000 OA
ATOM     21  C   UNL     1      52.624   2.535  17.807  0.00  0.00    +0.000 A 
ATOM     22  H   UNL     1      52.022  -0.562  16.872  0.00  0.00    +0.000 HD
ENDBRANCH   9  12
ENDBRANCH   7  10
ENDBRANCH   1   7
BRANCH   4  23
ATOM     23  C   UNL     1      46.363   5.403  12.321  0.00  0.00    +0.000 C 
BRANCH  23  24
ATOM     24  C   UNL     1      44.858   5.101  12.279  0.00  0.00    +0.000 C 
BRANCH  24  25
ATOM     25  O   UNL     1      44.185   5.915  13.257  0.00  0.00    +0.000 OA
ATOM     26  H   UNL     1      44.804   6.097  13.982  0.00  0.00    +0.000 HD
ENDBRANCH  24  25
BRANCH  24  27
ATOM     27  C   UNL     1      44.287   5.409  10.881  0.00  0.00    +0.000 C 
BRANCH  27  28
ATOM     28  C   UNL     1      44.753   4.394   9.864  0.00  0.00    +0.000 A 
ATOM     29  C   UNL     1      44.481   3.039  10.049  0.00  0.00    +0.000 A 
ATOM     30  C   UNL     1      45.013   2.116   9.155  0.00  0.00    +0.000 A 
ATOM     31  C   UNL     1      45.795   2.568   8.100  0.00  0.00    +0.000 A 
ATOM     32  C   UNL     1      45.996   3.932   7.975  0.00  0.00    +0.000 A 
ATOM     33  N   UNL     1      45.493   4.854   8.825  0.00  0.00    +0.000 NA
ENDBRANCH  27  28
ENDBRANCH  24  27
ENDBRANCH  23  24
ENDBRANCH   4  23
TORSDOF 8
ENDMDL
MODEL 6
REMARK VINA RESULT:    -7.305      2.446      3.033
REMARK INTER + INTRA:         -11.646
REMARK INTER:                 -10.401
REMARK INTRA:                  -1.245
REMARK UNBOUND:                -1.138
REMARK  Name = 
REMARK  8 active torsions:
REMARK  status: ('A' for Active; 'I' for Inactive)
REMARK    1  A    between atoms: C_2  and  C_21
REMARK    2  A    between atoms: N_3  and  C_4
REMARK    3  A    between atoms: C_4  and  C_5
REMARK    4  A    between atoms: C_8  and  C_9
REMARK    5  A    between atoms: C_9  and  C_10
REMARK    6  A    between atoms: C_10  and  O_11
REMARK    7  A    between atoms: C_10  and  C_12
REMARK    8  A    between atoms: C_12  and  C_13
REMARK                            x       y       z     vdW  Elec       q    Type
REMARK                         _______ _______ _______ _____ _____    ______ ____
ROOT
ATOM      1  C   UNL     1      46.534   4.468  13.868  0.00  0.00    +0.000 A 
ATOM      2  C   UNL     1      45.917   5.685  13.578  0.00  0.00    +0.000 A 
ATOM      3  C   UNL     1      45.001   5.762  12.534  0.00  0.00    +0.000 A 
ATOM      4  C   UNL     1      44.713   4.614  11.799  0.00  0.00    +0.000 A 
ATOM      5  N   UNL     1      45.265   3.411  12.086  0.00  0.00    +0.000 NA
ATOM      6  C   UNL     1      46.145   3.365  13.115  0.00  0.00    +0.000 A 
ENDROOT
BRANCH   1   7
ATOM      7  C   UNL     1      47.565   4.360  14.950  0.00  0.00    +0.000 C 
BRANCH   7  10
ATOM      8  O   UNL     1      49.647   6.238  15.197  0.00  0.00    +0.000 OA
ATOM      9  C   UNL     1      48.611   6.407  15.835  0.00  0.00    +0.000 C 
ATOM     10  N   UNL     1      47.573   5.519  15.804  0.00  0.00    +0.000 N 
ATOM     11  H   UNL     1      46.680   5.783  16.209  0.00  0.00    +0.000 HD
BRANCH   9  12
ATOM     12  C   UNL     1      48.443   7.566  16.723  0.00  0.00    +0.000 A 
ATOM     13  C   UNL     1      48.523   8.853  16.204  0.00  0.00    +0.000 A 
ATOM     14  S   UNL     1      48.294  10.075  17.372  0.00  0.00    +0.000 S 
ATOM     15  C   UNL     1      48.038   8.927  18.603  0.00  0.00    +0.000 A 
ATOM     16  N   UNL     1      47.740   9.317  19.873  0.00  0.00    +0.000 NA
ATOM     17  C   UNL     1      47.529   8.344  20.694  0.00  0.00    +0.000 A 
ATOM     18  N   UNL     1      47.607   7.013  20.366  0.00  0.00    +0.000 N 
ATOM     19  C   UNL     1      47.993   6.576  19.123  0.00  0.00    +0.000 A 
ATOM     20  O   UNL     1      48.214   5.389  18.904  0.00  0.00    +0.000 OA
ATOM     21  C   UNL     1      48.171   7.631  18.140  0.00  0.00    +0.000 A 
ATOM     22  H   UNL     1      47.471   6.298  21.065  0.00  0.00    +0.000 HD
ENDBRANCH   9  12
ENDBRANCH   7  10
ENDBRANCH   1   7
BRANCH   4  23
ATOM     23  C   UNL     1      43.777   4.682  10.614  0.00  0.00    +0.000 C 
BRANCH  23  24
ATOM     24  C   UNL     1      44.484   4.423   9.275  0.00  0.00    +0.000 C 
BRANCH  24  25
ATOM     25  O   UNL     1      45.810   4.981   9.326  0.00  0.00    +0.000 OA
ATOM     26  H   UNL     1      45.773   5.813   9.823  0.00  0.00    +0.000 HD
ENDBRANCH  24  25
BRANCH  24  27
ATOM     27  C   UNL     1      44.578   2.909   9.003  0.00  0.00    +0.000 C 
BRANCH  27  28
ATOM     28  C   UNL     1      45.616   2.606   7.949  0.00  0.00    +0.000 A 
ATOM     29  C   UNL     1      46.430   1.480   8.069  0.00  0.00    +0.000 A 
ATOM     30  C   UNL     1      47.449   1.282   7.143  0.00  0.00    +0.000 A 
ATOM     31  C   UNL     1      47.625   2.207   6.122  0.00  0.00    +0.000 A 
ATOM     32  C   UNL     1      46.758   3.285   6.061  0.00  0.00    +0.000 A 
ATOM     33  N   UNL     1      45.759   3.504   6.943  0.00  0.00    +0.000 NA
ENDBRANCH  27  28
ENDBRANCH  24  27
ENDBRANCH  23  24
ENDBRANCH   4  23
TORSDOF 8
ENDMDL
MODEL 7
REMARK VINA RESULT:    -7.282      2.225      2.578
REMARK INTER + INTRA:         -11.614
REMARK INTER:                 -10.514
REMARK INTRA:                  -1.100
REMARK UNBOUND:                -1.138
REMARK  Name = 
REMARK  8 active torsions:
REMARK  status: ('A' for Active; 'I' for Inactive)
REMARK    1  A    between atoms: C_2  and  C_21
REMARK    2  A    between atoms: N_3  and  C_4
REMARK    3  A    between atoms: C_4  and  C_5
REMARK    4  A    between atoms: C_8  and  C_9
REMARK    5  A    between atoms: C_9  and  C_10
REMARK    6  A    between atoms: C_10  and  O_11
REMARK    7  A    between atoms: C_10  and  C_12
REMARK    8  A    between atoms: C_12  and  C_13
REMARK                            x       y       z     vdW  Elec       q    Type
REMARK                         _______ _______ _______ _____ _____    ______ ____
ROOT
ATOM      1  C   UNL     1      46.368   7.365  12.846  0.00  0.00    +0.000 A 
ATOM      2  C   UNL     1      46.846   6.130  13.283  0.00  0.00    +0.000 A 
ATOM      3  C   UNL     1      46.018   5.014  13.231  0.00  0.00    +0.000 A 
ATOM      4  C   UNL     1      44.724   5.152  12.734  0.00  0.00    +0.000 A 
ATOM      5  N   UNL     1      44.250   6.329  12.264  0.00  0.00    +0.000 NA
ATOM      6  C   UNL     1      45.082   7.398  12.318  0.00  0.00    +0.000 A 
ENDROOT
BRANCH   1   7
ATOM      7  C   UNL     1      47.214   8.600  12.938  0.00  0.00    +0.000 C 
BRANCH   7  10
ATOM      8  O   UNL     1      48.219   9.117  15.515  0.00  0.00    +0.000 OA
ATOM      9  C   UNL     1      48.939   8.556  14.694  0.00  0.00    +0.000 C 
ATOM     10  N   UNL     1      48.542   8.309  13.410  0.00  0.00    +0.000 N 
ATOM     11  H   UNL     1      49.102   7.698  12.825  0.00  0.00    +0.000 HD
BRANCH   9  12
ATOM     12  C   UNL     1      50.313   8.155  15.033  0.00  0.00    +0.000 A 
ATOM     13  C   UNL     1      51.387   8.906  14.572  0.00  0.00    +0.000 A 
ATOM     14  S   UNL     1      52.904   8.303  15.069  0.00  0.00    +0.000 S 
ATOM     15  C   UNL     1      52.175   7.043  15.953  0.00  0.00    +0.000 A 
ATOM     16  N   UNL     1      52.928   6.166  16.671  0.00  0.00    +0.000 NA
ATOM     17  C   UNL     1      52.245   5.289  17.326  0.00  0.00    +0.000 A 
ATOM     18  N   UNL     1      50.876   5.196  17.314  0.00  0.00    +0.000 N 
ATOM     19  C   UNL     1      50.083   6.001  16.534  0.00  0.00    +0.000 A 
ATOM     20  O   UNL     1      48.880   5.791  16.416  0.00  0.00    +0.000 OA
ATOM     21  C   UNL     1      50.798   7.054  15.832  0.00  0.00    +0.000 A 
ATOM     22  H   UNL     1      50.401   4.460  17.817  0.00  0.00    +0.000 HD
ENDBRANCH   9  12
ENDBRANCH   7  10
ENDBRANCH   1   7
BRANCH   4  23
ATOM     23  C   UNL     1      43.779   3.973  12.732  0.00  0.00    +0.000 C 
BRANCH  23  24
ATOM     24  C   UNL     1      43.990   3.038  11.531  0.00  0.00    +0.000 C 
BRANCH  24  25
ATOM     25  O   UNL     1      42.943   2.051  11.511  0.00  0.00    +0.000 OA
ATOM     26  H   UNL     1      43.284   1.233  11.907  0.00  0.00    +0.000 HD
ENDBRANCH  24  25
BRANCH  24  27
ATOM     27  C   UNL     1      43.959   3.840  10.215  0.00  0.00    +0.000 C 
BRANCH  27  28
ATOM     28  C   UNL     1      44.985   3.323   9.235  0.00  0.00    +0.000 A 
ATOM     29  C   UNL     1      45.610   4.196   8.346  0.00  0.00    +0.000 A 
ATOM     30  C   UNL     1      46.469   3.679   7.383  0.00  0.00    +0.000 A 
ATOM     31  C   UNL     1      46.687   2.308   7.336  0.00  0.00    +0.000 A 
ATOM     32  C   UNL     1      46.046   1.513   8.271  0.00  0.00    +0.000 A 
ATOM     33  N   UNL     1      45.207   1.985   9.219  0.00  0.00    +0.000 NA
ENDBRANCH  27  28
ENDBRANCH  24  27
ENDBRANCH  23  24
ENDBRANCH   4  23
TORSDOF 8
ENDMDL
MODEL 8
REMARK VINA RESULT:    -7.174      1.477      1.895
REMARK INTER + INTRA:         -11.458
REMARK INTER:                 -10.144
REMARK INTRA:                  -1.315
REMARK UNBOUND:                -1.138
REMARK  Name = 
REMARK  8 active torsions:
REMARK  status: ('A' for Active; 'I' for Inactive)
REMARK    1  A    between atoms: C_2  and  C_21
REMARK    2  A    between atoms: N_3  and  C_4
REMARK    3  A    between atoms: C_4  and  C_5
REMARK    4  A    between atoms: C_8  and  C_9
REMARK    5  A    between atoms: C_9  and  C_10
REMARK    6  A    between atoms: C_10  and  O_11
REMARK    7  A    between atoms: C_10  and  C_12
REMARK    8  A    between atoms: C_12  and  C_13
REMARK                            x       y       z     vdW  Elec       q    Type
REMARK                         _______ _______ _______ _____ _____    ______ ____
ROOT
ATOM      1  C   UNL     1      46.137   7.759  11.937  0.00  0.00    +0.000 A 
ATOM      2  C   UNL     1      44.755   7.938  11.988  0.00  0.00    +0.000 A 
ATOM      3  C   UNL     1      43.911   6.895  11.621  0.00  0.00    +0.000 A 
ATOM      4  C   UNL     1      44.467   5.684  11.213  0.00  0.00    +0.000 A 
ATOM      5  N   UNL     1      45.804   5.470  11.196  0.00  0.00    +0.000 NA
ATOM      6  C   UNL     1      46.601   6.501  11.568  0.00  0.00    +0.000 A 
ENDROOT
BRANCH   1   7
ATOM      7  C   UNL     1      47.076   8.878  12.273  0.00  0.00    +0.000 C 
BRANCH   7  10
ATOM      8  O   UNL     1      49.833   8.904  12.838  0.00  0.00    +0.000 OA
ATOM      9  C   UNL     1      49.035   8.767  13.762  0.00  0.00    +0.000 C 
ATOM     10  N   UNL     1      47.685   8.700  13.566  0.00  0.00    +0.000 N 
ATOM     11  H   UNL     1      47.062   8.758  14.366  0.00  0.00    +0.000 HD
BRANCH   9  12
ATOM     12  C   UNL     1      49.495   8.615  15.150  0.00  0.00    +0.000 A 
ATOM     13  C   UNL     1      50.210   9.640  15.758  0.00  0.00    +0.000 A 
ATOM     14  S   UNL     1      50.653   9.299  17.370  0.00  0.00    +0.000 S 
ATOM     15  C   UNL     1      49.868   7.789  17.324  0.00  0.00    +0.000 A 
ATOM     16  N   UNL     1      49.831   6.986  18.422  0.00  0.00    +0.000 NA
ATOM     17  C   UNL     1      49.167   5.891  18.260  0.00  0.00    +0.000 A 
ATOM     18  N   UNL     1      48.553   5.515  17.092  0.00  0.00    +0.000 N 
ATOM     19  C   UNL     1      48.642   6.250  15.935  0.00  0.00    +0.000 A 
ATOM     20  O   UNL     1      48.225   5.813  14.868  0.00  0.00    +0.000 OA
ATOM     21  C   UNL     1      49.316   7.528  16.083  0.00  0.00    +0.000 A 
ATOM     22  H   UNL     1      48.083   4.625  17.016  0.00  0.00    +0.000 HD
ENDBRANCH   9  12
ENDBRANCH   7  10
ENDBRANCH   1   7
BRANCH   4  23
ATOM     23  C   UNL     1      43.578   4.558  10.741  0.00  0.00    +0.000 C 
BRANCH  23  24
ATOM     24  C   UNL     1      44.366   3.374  10.161  0.00  0.00    +0.000 C 
BRANCH  24  25
ATOM     25  O   UNL     1      43.768   2.144  10.606  0.00  0.00    +0.000 OA
ATOM     26  H   UNL     1      44.476   1.503  10.780  0.00  0.00    +0.000 HD
ENDBRANCH  24  25
BRANCH  24  27
ATOM     27  C   UNL     1      44.349   3.421   8.620  0.00  0.00    +0.000 C 
BRANCH  27  28
ATOM     28  C   UNL     1      45.603   2.815   8.039  0.00  0.00    +0.000 A 
ATOM     29  C   UNL     1      46.444   3.581   7.232  0.00  0.00    +0.000 A 
ATOM     30  C   UNL     1      47.535   2.969   6.622  0.00  0.00    +0.000 A 
ATOM     31  C   UNL     1      47.761   1.617   6.839  0.00  0.00    +0.000 A 
ATOM     32  C   UNL     1      46.892   0.935   7.674  0.00  0.00    +0.000 A 
ATOM     33  N   UNL     1      45.826   1.500   8.281  0.00  0.00    +0.000 NA
ENDBRANCH  27  28
ENDBRANCH  24  27
ENDBRANCH  23  24
ENDBRANCH   4  23
TORSDOF 8
ENDMDL
MODEL 9
REMARK VINA RESULT:    -6.770      3.791      9.223
REMARK INTER + INTRA:         -10.877
REMARK INTER:                  -9.626
REMARK INTRA:                  -1.252
REMARK UNBOUND:                -1.138
REMARK  Name = 
REMARK  8 active torsions:
REMARK  status: ('A' for Active; 'I' for Inactive)
REMARK    1  A    between atoms: C_2  and  C_21
REMARK    2  A    between atoms: N_3  and  C_4
REMARK    3  A    between atoms: C_4  and  C_5
REMARK    4  A    between atoms: C_8  and  C_9
REMARK    5  A    between atoms: C_9  and  C_10
REMARK    6  A    between atoms: C_10  and  O_11
REMARK    7  A    between atoms: C_10  and  C_12
REMARK    8  A    between atoms: C_12  and  C_13
REMARK                            x       y       z     vdW  Elec       q    Type
REMARK                         _______ _______ _______ _____ _____    ______ ____
ROOT
ATOM      1  C   UNL     1      48.599   3.152  17.103  0.00  0.00    +0.000 A 
ATOM      2  C   UNL     1      49.361   4.114  17.764  0.00  0.00    +0.000 A 
ATOM      3  C   UNL     1      50.720   3.898  17.965  0.00  0.00    +0.000 A 
ATOM      4  C   UNL     1      51.296   2.720  17.494  0.00  0.00    +0.000 A 
ATOM      5  N   UNL     1      50.588   1.789  16.812  0.00  0.00    +0.000 NA
ATOM      6  C   UNL     1      49.269   2.032  16.622  0.00  0.00    +0.000 A 
ENDROOT
BRANCH   1   7
ATOM      7  C   UNL     1      47.122   3.327  16.917  0.00  0.00    +0.000 C 
BRANCH   7  10
ATOM      8  O   UNL     1      47.231   3.061  14.117  0.00  0.00    +0.000 OA
ATOM      9  C   UNL     1      46.857   4.126  14.603  0.00  0.00    +0.000 C 
ATOM     10  N   UNL     1      46.818   4.349  15.950  0.00  0.00    +0.000 N 
ATOM     11  H   UNL     1      46.346   5.175  16.304  0.00  0.00    +0.000 HD
BRANCH   9  12
ATOM     12  C   UNL     1      46.470   5.258  13.749  0.00  0.00    +0.000 A 
ATOM     13  C   UNL     1      47.354   6.313  13.555  0.00  0.00    +0.000 A 
ATOM     14  S   UNL     1      46.746   7.533  12.529  0.00  0.00    +0.000 S 
ATOM     15  C   UNL     1      45.299   6.674  12.274  0.00  0.00    +0.000 A 
ATOM     16  N   UNL     1      44.337   7.155  11.439  0.00  0.00    +0.000 NA
ATOM     17  C   UNL     1      43.312   6.382  11.305  0.00  0.00    +0.000 A 
ATOM     18  N   UNL     1      43.151   5.179  11.946  0.00  0.00    +0.000 N 
ATOM     19  C   UNL     1      44.052   4.700  12.864  0.00  0.00    +0.000 A 
ATOM     20  O   UNL     1      43.806   3.707  13.541  0.00  0.00    +0.000 OA
ATOM     21  C   UNL     1      45.260   5.496  12.997  0.00  0.00    +0.000 A 
ATOM     22  H   UNL     1      42.306   4.640  11.830  0.00  0.00    +0.000 HD
ENDBRANCH   9  12
ENDBRANCH   7  10
ENDBRANCH   1   7
BRANCH   4  23
ATOM     23  C   UNL     1      52.754   2.425  17.760  0.00  0.00    +0.000 C 
BRANCH  23  24
ATOM     24  C   UNL     1      53.331   3.251  18.920  0.00  0.00    +0.000 C 
BRANCH  24  25
ATOM     25  O   UNL     1      53.917   2.362  19.888  0.00  0.00    +0.000 OA
ATOM     26  H   UNL     1      54.811   2.131  19.590  0.00  0.00    +0.000 HD
ENDBRANCH  24  25
BRANCH  24  27
ATOM     27  C   UNL     1      54.409   4.223  18.401  0.00  0.00    +0.000 C 
BRANCH  27  28
ATOM     28  C   UNL     1      53.801   5.534  17.965  0.00  0.00    +0.000 A 
ATOM     29  C   UNL     1      53.354   6.452  18.915  0.00  0.00    +0.000 A 
ATOM     30  C   UNL     1      52.700   7.602  18.487  0.00  0.00    +0.000 A 
ATOM     31  C   UNL     1      52.515   7.809  17.127  0.00  0.00    +0.000 A 
ATOM     32  C   UNL     1      53.011   6.860  16.249  0.00  0.00    +0.000 A 
ATOM     33  N   UNL     1      53.651   5.734  16.632  0.00  0.00    +0.000 NA
ENDBRANCH  27  28
ENDBRANCH  24  27
ENDBRANCH  23  24
ENDBRANCH   4  23
TORSDOF 8
ENDMDL
