MODEL 1
REMARK VINA RESULT:    -8.441      0.000      0.000
REMARK INTER + INTRA:         -12.149
REMARK INTER:                 -11.155
REMARK INTRA:                  -0.994
REMARK UNBOUND:                -0.994
REMARK  Name = 
REMARK  6 active torsions:
REMARK  status: ('A' for Active; 'I' for Inactive)
REMARK    1  A    between atoms: C_2  and  C_3
REMARK    2  A    between atoms: C_6  and  N_7
REMARK    3  A    between atoms: N_7  and  C_8
REMARK    4  A    between atoms: C_8  and  C_9
REMARK    5  A    between atoms: C_13  and  C_14
REMARK    6  A    between atoms: C_25  and  N_26
REMARK                            x       y       z     vdW  Elec       q    Type
REMARK                         _______ _______ _______ _____ _____    ______ ____
ROOT
ATOM      1  C   UNL     1      43.951   4.922  11.120  0.00  0.00    +0.000 C 
ATOM      2  C   UNL     1      42.644   4.964  11.905  0.00  0.00    +0.000 C 
ATOM      3  C   UNL     1      43.040   6.123  11.053  0.00  0.00    +0.000 C 
ENDROOT
BRANCH   1   4
ATOM      4  C   UNL     1      45.278   5.036  11.848  0.00  0.00    +0.000 A 
ATOM      5  C   UNL     1      45.592   4.234  12.954  0.00  0.00    +0.000 A 
ATOM      6  C   UNL     1      46.700   4.515  13.751  0.00  0.00    +0.000 A 
ATOM      7  C   UNL     1      47.503   5.620  13.464  0.00  0.00    +0.000 A 
ATOM      8  C   UNL     1      47.237   6.449  12.362  0.00  0.00    +0.000 A 
ATOM      9  C   UNL     1      46.148   6.103  11.545  0.00  0.00    +0.000 A 
BRANCH   8  10
ATOM     10  C   UNL     1      47.988   7.700  12.125  0.00  0.00    +0.000 A 
ATOM     11  C   UNL     1      47.332   8.947  12.155  0.00  0.00    +0.000 A 
ATOM     12  C   UNL     1      48.013  10.138  11.887  0.00  0.00    +0.000 A 
ATOM     13  C   UNL     1      49.365  10.105  11.563  0.00  0.00    +0.000 A 
ATOM     14  C   UNL     1      50.028   8.887  11.510  0.00  0.00    +0.000 A 
ATOM     15 CL   UNL     1      51.692   8.839  11.069  0.00  0.00    +0.000 Cl
ATOM     16  C   UNL     1      49.355   7.694  11.793  0.00  0.00    +0.000 A 
ENDBRANCH   8  10
ENDBRANCH   1   4
BRANCH   1  17
ATOM     17  N   UNL     1      43.959   3.813  10.154  0.00  0.00    +0.000 N 
ATOM     18  H   UNL     1      43.546   2.959  10.525  0.00  0.00    +0.000 HD
BRANCH  17  22
ATOM     19  C   UNL     1      46.733   2.678   7.289  0.00  0.00    +0.000 A 
ATOM     20  N   UNL     1      46.460   4.012   7.391  0.00  0.00    +0.000 NA
ATOM     21  C   UNL     1      45.582   4.384   8.358  0.00  0.00    +0.000 A 
ATOM     22  C   UNL     1      44.983   3.504   9.246  0.00  0.00    +0.000 A 
ATOM     23  C   UNL     1      45.316   2.149   9.108  0.00  0.00    +0.000 A 
ATOM     24  C   UNL     1      46.229   1.700   8.153  0.00  0.00    +0.000 A 
BRANCH  24  25
ATOM     25  N   UNL     1      46.365   0.313   7.969  0.00  0.00    +0.000 N 
ATOM     26  H   UNL     1      46.036  -0.029   7.070  0.00  0.00    +0.000 HD
ATOM     27  H   UNL     1      46.056  -0.273   8.738  0.00  0.00    +0.000 HD
ENDBRANCH  24  25
BRANCH  19  29
ATOM     28  N   UNL     1      48.334   1.992   5.354  0.00  0.00    +0.000 NA
ATOM     29  C   UNL     1      47.605   2.324   6.204  0.00  0.00    +0.000 C 
ENDBRANCH  19  29
ENDBRANCH  17  22
ENDBRANCH   1  17
TORSDOF 6
ENDMDL
MODEL 2
REMARK VINA RESULT:    -8.202      3.779      7.290
REMARK INTER + INTRA:         -11.833
REMARK INTER:                 -10.692
REMARK INTRA:                  -1.141
REMARK UNBOUND:                -0.994
REMARK  Name = 
REMARK  6 active torsions:
REMARK  status: ('A' for Active; 'I' for Inactive)
REMARK    1  A    between atoms: C_2  and  C_3
REMARK    2  A    between atoms: C_6  and  N_7
REMARK    3  A    between atoms: N_7  and  C_8
REMARK    4  A    between atoms: C_8  and  C_9
REMARK    5  A    between atoms: C_13  and  C_14
REMARK    6  A    between atoms: C_25  and  N_26
REMARK                            x       y       z     vdW  Elec       q    Type
REMARK                         _______ _______ _______ _____ _____    ______ ____
ROOT
ATOM      1  C   UNL     1      46.018   7.071  12.063  0.00  0.00    +0.000 C 
ATOM      2  C   UNL     1      46.255   8.503  11.596  0.00  0.00    +0.000 C 
ATOM      3  C   UNL     1      45.377   8.237  12.774  0.00  0.00    +0.000 C 
ENDROOT
BRANCH   1   4
ATOM      4  C   UNL     1      45.151   6.137  11.237  0.00  0.00    +0.000 A 
ATOM      5  C   UNL     1      43.867   5.754  11.648  0.00  0.00    +0.000 A 
ATOM      6  C   UNL     1      43.189   4.718  11.010  0.00  0.00    +0.000 A 
ATOM      7  C   UNL     1      43.796   4.033   9.956  0.00  0.00    +0.000 A 
ATOM      8  C   UNL     1      45.077   4.384   9.499  0.00  0.00    +0.000 A 
ATOM      9  C   UNL     1      45.708   5.472  10.126  0.00  0.00    +0.000 A 
BRANCH   8  10
ATOM     10  C   UNL     1      45.793   3.584   8.484  0.00  0.00    +0.000 A 
ATOM     11  C   UNL     1      46.325   4.196   7.331  0.00  0.00    +0.000 A 
ATOM     12  C   UNL     1      46.964   3.452   6.336  0.00  0.00    +0.000 A 
ATOM     13  C   UNL     1      47.069   2.070   6.464  0.00  0.00    +0.000 A 
ATOM     14  C   UNL     1      46.538   1.443   7.581  0.00  0.00    +0.000 A 
ATOM     15 CL   UNL     1      46.629  -0.271   7.724  0.00  0.00    +0.000 Cl
ATOM     16  C   UNL     1      45.911   2.186   8.587  0.00  0.00    +0.000 A 
ENDBRANCH   8  10
ENDBRANCH   1   4
BRANCH   1  17
ATOM     17  N   UNL     1      47.276   6.424  12.466  0.00  0.00    +0.000 N 
ATOM     18  H   UNL     1      47.838   6.118  11.674  0.00  0.00    +0.000 HD
BRANCH  17  22
ATOM     19  C   UNL     1      47.563   4.084  15.877  0.00  0.00    +0.000 A 
ATOM     20  N   UNL     1      47.130   3.467  14.739  0.00  0.00    +0.000 NA
ATOM     21  C   UNL     1      47.075   4.226  13.614  0.00  0.00    +0.000 A 
ATOM     22  C   UNL     1      47.457   5.557  13.555  0.00  0.00    +0.000 A 
ATOM     23  C   UNL     1      47.914   6.134  14.749  0.00  0.00    +0.000 A 
ATOM     24  C   UNL     1      48.018   5.406  15.935  0.00  0.00    +0.000 A 
BRANCH  24  25
ATOM     25  N   UNL     1      48.313   6.105  17.118  0.00  0.00    +0.000 N 
ATOM     26  H   UNL     1      48.766   5.549  17.838  0.00  0.00    +0.000 HD
ATOM     27  H   UNL     1      47.566   6.683  17.493  0.00  0.00    +0.000 HD
ENDBRANCH  24  25
BRANCH  19  29
ATOM     28  N   UNL     1      47.466   2.638  18.040  0.00  0.00    +0.000 NA
ATOM     29  C   UNL     1      47.528   3.264  17.056  0.00  0.00    +0.000 C 
ENDBRANCH  19  29
ENDBRANCH  17  22
ENDBRANCH   1  17
TORSDOF 6
ENDMDL
MODEL 3
REMARK VINA RESULT:    -8.001      4.061      7.454
REMARK INTER + INTRA:         -11.568
REMARK INTER:                 -10.550
REMARK INTRA:                  -1.018
REMARK UNBOUND:                -0.994
REMARK  Name = 
REMARK  6 active torsions:
REMARK  status: ('A' for Active; 'I' for Inactive)
REMARK    1  A    between atoms: C_2  and  C_3
REMARK    2  A    between atoms: C_6  and  N_7
REMARK    3  A    between atoms: N_7  and  C_8
REMARK    4  A    between atoms: C_8  and  C_9
REMARK    5  A    between atoms: C_13  and  C_14
REMARK    6  A    between atoms: C_25  and  N_26
REMARK                            x       y       z     vdW  Elec       q    Type
REMARK                         _______ _______ _______ _____ _____    ______ ____
ROOT
ATOM      1  C   UNL     1      46.012   6.887  12.206  0.00  0.00    +0.000 C 
ATOM      2  C   UNL     1      46.269   8.301  11.695  0.00  0.00    +0.000 C 
ATOM      3  C   UNL     1      45.376   8.083  12.870  0.00  0.00    +0.000 C 
ENDROOT
BRANCH   1   4
ATOM      4  C   UNL     1      45.145   5.935  11.402  0.00  0.00    +0.000 A 
ATOM      5  C   UNL     1      43.896   5.497  11.862  0.00  0.00    +0.000 A 
ATOM      6  C   UNL     1      43.229   4.447  11.235  0.00  0.00    +0.000 A 
ATOM      7  C   UNL     1      43.814   3.803  10.143  0.00  0.00    +0.000 A 
ATOM      8  C   UNL     1      45.059   4.209   9.637  0.00  0.00    +0.000 A 
ATOM      9  C   UNL     1      45.676   5.310  10.256  0.00  0.00    +0.000 A 
BRANCH   8  10
ATOM     10  C   UNL     1      45.758   3.454   8.578  0.00  0.00    +0.000 A 
ATOM     11  C   UNL     1      46.257   4.112   7.435  0.00  0.00    +0.000 A 
ATOM     12  C   UNL     1      46.879   3.410   6.399  0.00  0.00    +0.000 A 
ATOM     13  C   UNL     1      47.001   2.027   6.475  0.00  0.00    +0.000 A 
ATOM     14  C   UNL     1      46.503   1.354   7.582  0.00  0.00    +0.000 A 
ATOM     15 CL   UNL     1      46.614  -0.362   7.661  0.00  0.00    +0.000 Cl
ATOM     16  C   UNL     1      45.892   2.054   8.629  0.00  0.00    +0.000 A 
ENDBRANCH   8  10
ENDBRANCH   1   4
BRANCH   1  17
ATOM     17  N   UNL     1      47.259   6.242  12.644  0.00  0.00    +0.000 N 
ATOM     18  H   UNL     1      47.531   5.458  12.054  0.00  0.00    +0.000 HD
BRANCH  17  22
ATOM     19  C   UNL     1      48.565   5.225  16.446  0.00  0.00    +0.000 A 
ATOM     20  N   UNL     1      49.122   6.334  15.877  0.00  0.00    +0.000 NA
ATOM     21  C   UNL     1      48.663   6.688  14.649  0.00  0.00    +0.000 A 
ATOM     22  C   UNL     1      47.660   6.014  13.970  0.00  0.00    +0.000 A 
ATOM     23  C   UNL     1      47.110   4.894  14.611  0.00  0.00    +0.000 A 
ATOM     24  C   UNL     1      47.517   4.490  15.882  0.00  0.00    +0.000 A 
BRANCH  24  25
ATOM     25  N   UNL     1      47.043   3.259  16.369  0.00  0.00    +0.000 N 
ATOM     26  H   UNL     1      46.257   3.332  17.011  0.00  0.00    +0.000 HD
ATOM     27  H   UNL     1      47.748   2.608  16.700  0.00  0.00    +0.000 HD
ENDBRANCH  24  25
BRANCH  19  29
ATOM     28  N   UNL     1      49.644   4.577  18.725  0.00  0.00    +0.000 NA
ATOM     29  C   UNL     1      49.138   4.844  17.707  0.00  0.00    +0.000 C 
ENDBRANCH  19  29
ENDBRANCH  17  22
ENDBRANCH   1  17
TORSDOF 6
ENDMDL
MODEL 4
REMARK VINA RESULT:    -7.575      2.316      3.970
REMARK INTER + INTRA:         -11.004
REMARK INTER:                 -11.108
REMARK INTRA:                   0.104
REMARK UNBOUND:                -0.994
REMARK  Name = 
REMARK  6 active torsions:
REMARK  status: ('A' for Active; 'I' for Inactive)
REMARK    1  A    between atoms: C_2  and  C_3
REMARK    2  A    between atoms: C_6  and  N_7
REMARK    3  A    between atoms: N_7  and  C_8
REMARK    4  A    between atoms: C_8  and  C_9
REMARK    5  A    between atoms: C_13  and  C_14
REMARK    6  A    between atoms: C_25  and  N_26
REMARK                            x       y       z     vdW  Elec       q    Type
REMARK                         _______ _______ _______ _____ _____    ______ ____
ROOT
ATOM      1  C   UNL     1      43.915   5.307  11.748  0.00  0.00    +0.000 C 
ATOM      2  C   UNL     1      43.325   4.088  12.450  0.00  0.00    +0.000 C 
ATOM      3  C   UNL     1      42.706   5.433  12.643  0.00  0.00    +0.000 C 
ENDROOT
BRANCH   1   4
ATOM      4  C   UNL     1      45.243   5.880  12.208  0.00  0.00    +0.000 A 
ATOM      5  C   UNL     1      46.075   6.612  11.350  0.00  0.00    +0.000 A 
ATOM      6  C   UNL     1      47.385   6.919  11.712  0.00  0.00    +0.000 A 
ATOM      7  C   UNL     1      47.892   6.479  12.936  0.00  0.00    +0.000 A 
ATOM      8  C   UNL     1      47.096   5.751  13.835  0.00  0.00    +0.000 A 
ATOM      9  C   UNL     1      45.762   5.510  13.465  0.00  0.00    +0.000 A 
BRANCH   8  10
ATOM     10  C   UNL     1      47.653   5.156  15.068  0.00  0.00    +0.000 A 
ATOM     11  C   UNL     1      47.282   3.857  15.469  0.00  0.00    +0.000 A 
ATOM     12  C   UNL     1      47.759   3.292  16.655  0.00  0.00    +0.000 A 
ATOM     13  C   UNL     1      48.607   4.026  17.479  0.00  0.00    +0.000 A 
ATOM     14  C   UNL     1      48.973   5.313  17.113  0.00  0.00    +0.000 A 
ATOM     15 CL   UNL     1      49.989   6.240  18.150  0.00  0.00    +0.000 Cl
ATOM     16  C   UNL     1      48.510   5.877  15.919  0.00  0.00    +0.000 A 
ENDBRANCH   8  10
ENDBRANCH   1   4
BRANCH   1  17
ATOM     17  N   UNL     1      43.870   5.155  10.285  0.00  0.00    +0.000 N 
ATOM     18  H   UNL     1      42.975   5.426   9.883  0.00  0.00    +0.000 HD
BRANCH  17  22
ATOM     19  C   UNL     1      45.910   2.210   8.198  0.00  0.00    +0.000 A 
ATOM     20  N   UNL     1      44.998   1.792   9.123  0.00  0.00    +0.000 NA
ATOM     21  C   UNL     1      44.303   2.759   9.777  0.00  0.00    +0.000 A 
ATOM     22  C   UNL     1      44.445   4.116   9.536  0.00  0.00    +0.000 A 
ATOM     23  C   UNL     1      45.382   4.487   8.561  0.00  0.00    +0.000 A 
ATOM     24  C   UNL     1      46.113   3.546   7.835  0.00  0.00    +0.000 A 
BRANCH  24  25
ATOM     25  N   UNL     1      47.152   4.008   7.009  0.00  0.00    +0.000 N 
ATOM     26  H   UNL     1      48.077   3.963   7.427  0.00  0.00    +0.000 HD
ATOM     27  H   UNL     1      46.988   4.893   6.537  0.00  0.00    +0.000 HD
ENDBRANCH  24  25
BRANCH  19  29
ATOM     28  N   UNL     1      47.250   0.281   7.074  0.00  0.00    +0.000 NA
ATOM     29  C   UNL     1      46.677   1.157   7.591  0.00  0.00    +0.000 C 
ENDBRANCH  19  29
ENDBRANCH  17  22
ENDBRANCH   1  17
TORSDOF 6
ENDMDL
MODEL 5
REMARK VINA RESULT:    -7.099      1.332      1.999
REMARK INTER + INTRA:         -10.375
REMARK INTER:                  -9.891
REMARK INTRA:                  -0.484
REMARK UNBOUND:                -0.994
REMARK  Name = 
REMARK  6 active torsions:
REMARK  status: ('A' for Active; 'I' for Inactive)
REMARK    1  A    between atoms: C_2  and  C_3
REMARK    2  A    between atoms: C_6  and  N_7
REMARK    3  A    between atoms: N_7  and  C_8
REMARK    4  A    between atoms: C_8  and  C_9
REMARK    5  A    between atoms: C_13  and  C_14
REMARK    6  A    between atoms: C_25  and  N_26
REMARK                            x       y       z     vdW  Elec       q    Type
REMARK                         _______ _______ _______ _____ _____    ______ ____
ROOT
ATOM      1  C   UNL     1      44.475   5.831  10.977  0.00  0.00    +0.000 C 
ATOM      2  C   UNL     1      43.041   5.461  11.343  0.00  0.00    +0.000 C 
ATOM      3  C   UNL     1      43.493   6.880  11.438  0.00  0.00    +0.000 C 
ENDROOT
BRANCH   1   4
ATOM      4  C   UNL     1      45.619   5.432  11.892  0.00  0.00    +0.000 A 
ATOM      5  C   UNL     1      45.491   4.408  12.841  0.00  0.00    +0.000 A 
ATOM      6  C   UNL     1      46.457   4.220  13.826  0.00  0.00    +0.000 A 
ATOM      7  C   UNL     1      47.564   5.069  13.889  0.00  0.00    +0.000 A 
ATOM      8  C   UNL     1      47.744   6.103  12.956  0.00  0.00    +0.000 A 
ATOM      9  C   UNL     1      46.781   6.228  11.941  0.00  0.00    +0.000 A 
BRANCH   8  10
ATOM     10  C   UNL     1      48.828   7.098  13.090  0.00  0.00    +0.000 A 
ATOM     11  C   UNL     1      49.489   7.279  14.322  0.00  0.00    +0.000 A 
ATOM     12  C   UNL     1      50.485   8.246  14.483  0.00  0.00    +0.000 A 
ATOM     13  C   UNL     1      50.830   9.069  13.415  0.00  0.00    +0.000 A 
ATOM     14  C   UNL     1      50.181   8.921  12.198  0.00  0.00    +0.000 A 
ATOM     15 CL   UNL     1      50.577   9.965  10.887  0.00  0.00    +0.000 Cl
ATOM     16  C   UNL     1      49.195   7.944  12.027  0.00  0.00    +0.000 A 
ENDBRANCH   8  10
ENDBRANCH   1   4
BRANCH   1  17
ATOM     17  N   UNL     1      44.769   5.508   9.572  0.00  0.00    +0.000 N 
ATOM     18  H   UNL     1      44.189   6.026   8.915  0.00  0.00    +0.000 HD
BRANCH  17  22
ATOM     19  C   UNL     1      46.043   1.821   8.169  0.00  0.00    +0.000 A 
ATOM     20  N   UNL     1      45.028   1.817   9.083  0.00  0.00    +0.000 NA
ATOM     21  C   UNL     1      44.586   3.028   9.510  0.00  0.00    +0.000 A 
ATOM     22  C   UNL     1      45.079   4.241   9.055  0.00  0.00    +0.000 A 
ATOM     23  C   UNL     1      46.107   4.184   8.102  0.00  0.00    +0.000 A 
ATOM     24  C   UNL     1      46.592   2.976   7.602  0.00  0.00    +0.000 A 
BRANCH  24  25
ATOM     25  N   UNL     1      47.738   3.008   6.789  0.00  0.00    +0.000 N 
ATOM     26  H   UNL     1      48.243   2.128   6.733  0.00  0.00    +0.000 HD
ATOM     27  H   UNL     1      48.360   3.799   6.926  0.00  0.00    +0.000 HD
ENDBRANCH  24  25
BRANCH  19  29
ATOM     28  N   UNL     1      46.908  -0.530   7.459  0.00  0.00    +0.000 NA
ATOM     29  C   UNL     1      46.530   0.519   7.808  0.00  0.00    +0.000 C 
ENDBRANCH  19  29
ENDBRANCH  17  22
ENDBRANCH   1  17
TORSDOF 6
ENDMDL
MODEL 6
REMARK VINA RESULT:    -6.814      4.175      7.434
REMARK INTER + INTRA:          -9.999
REMARK INTER:                  -9.494
REMARK INTRA:                  -0.505
REMARK UNBOUND:                -0.994
REMARK  Name = 
REMARK  6 active torsions:
REMARK  status: ('A' for Active; 'I' for Inactive)
REMARK    1  A    between atoms: C_2  and  C_3
REMARK    2  A    between atoms: C_6  and  N_7
REMARK    3  A    between atoms: N_7  and  C_8
REMARK    4  A    between atoms: C_8  and  C_9
REMARK    5  A    between atoms: C_13  and  C_14
REMARK    6  A    between atoms: C_25  and  N_26
REMARK                            x       y       z     vdW  Elec       q    Type
REMARK                         _______ _______ _______ _____ _____    ______ ____
ROOT
ATOM      1  C   UNL     1      46.012   7.126  11.725  0.00  0.00    +0.000 C 
ATOM      2  C   UNL     1      45.584   8.589  11.687  0.00  0.00    +0.000 C 
ATOM      3  C   UNL     1      45.462   7.808  12.953  0.00  0.00    +0.000 C 
ENDROOT
BRANCH   1   4
ATOM      4  C   UNL     1      45.175   6.071  11.024  0.00  0.00    +0.000 A 
ATOM      5  C   UNL     1      43.965   5.606  11.556  0.00  0.00    +0.000 A 
ATOM      6  C   UNL     1      43.338   4.477  11.032  0.00  0.00    +0.000 A 
ATOM      7  C   UNL     1      43.926   3.782   9.973  0.00  0.00    +0.000 A 
ATOM      8  C   UNL     1      45.132   4.213   9.398  0.00  0.00    +0.000 A 
ATOM      9  C   UNL     1      45.707   5.388   9.912  0.00  0.00    +0.000 A 
BRANCH   8  10
ATOM     10  C   UNL     1      45.841   3.415   8.376  0.00  0.00    +0.000 A 
ATOM     11  C   UNL     1      46.357   4.028   7.216  0.00  0.00    +0.000 A 
ATOM     12  C   UNL     1      46.989   3.286   6.215  0.00  0.00    +0.000 A 
ATOM     13  C   UNL     1      47.103   1.905   6.344  0.00  0.00    +0.000 A 
ATOM     14  C   UNL     1      46.588   1.277   7.469  0.00  0.00    +0.000 A 
ATOM     15 CL   UNL     1      46.690  -0.436   7.612  0.00  0.00    +0.000 Cl
ATOM     16  C   UNL     1      45.968   2.017   8.480  0.00  0.00    +0.000 A 
ENDBRANCH   8  10
ENDBRANCH   1   4
BRANCH   1  17
ATOM     17  N   UNL     1      47.441   6.979  11.410  0.00  0.00    +0.000 N 
ATOM     18  H   UNL     1      47.701   6.023  11.173  0.00  0.00    +0.000 HD
BRANCH  17  22
ATOM     19  C   UNL     1      50.769   8.558  13.312  0.00  0.00    +0.000 A 
ATOM     20  N   UNL     1      50.455   9.074  12.088  0.00  0.00    +0.000 NA
ATOM     21  C   UNL     1      49.341   8.583  11.485  0.00  0.00    +0.000 A 
ATOM     22  C   UNL     1      48.508   7.629  12.049  0.00  0.00    +0.000 A 
ATOM     23  C   UNL     1      48.869   7.150  13.317  0.00  0.00    +0.000 A 
ATOM     24  C   UNL     1      49.986   7.628  14.003  0.00  0.00    +0.000 A 
BRANCH  24  25
ATOM     25  N   UNL     1      50.371   6.967  15.182  0.00  0.00    +0.000 N 
ATOM     26  H   UNL     1      49.775   6.187  15.446  0.00  0.00    +0.000 HD
ATOM     27  H   UNL     1      50.595   7.562  15.975  0.00  0.00    +0.000 HD
ENDBRANCH  24  25
BRANCH  19  29
ATOM     28  N   UNL     1      52.981   9.422  14.381  0.00  0.00    +0.000 NA
ATOM     29  C   UNL     1      51.997   9.050  13.874  0.00  0.00    +0.000 C 
ENDBRANCH  19  29
ENDBRANCH  17  22
ENDBRANCH   1  17
TORSDOF 6
ENDMDL
MODEL 7
REMARK VINA RESULT:    -6.737      3.559      7.121
REMARK INTER + INTRA:          -9.898
REMARK INTER:                  -8.969
REMARK INTRA:                  -0.929
REMARK UNBOUND:                -0.994
REMARK  Name = 
REMARK  6 active torsions:
REMARK  status: ('A' for Active; 'I' for Inactive)
REMARK    1  A    between atoms: C_2  and  C_3
REMARK    2  A    between atoms: C_6  and  N_7
REMARK    3  A    between atoms: N_7  and  C_8
REMARK    4  A    between atoms: C_8  and  C_9
REMARK    5  A    between atoms: C_13  and  C_14
REMARK    6  A    between atoms: C_25  and  N_26
REMARK                            x       y       z     vdW  Elec       q    Type
REMARK                         _______ _______ _______ _____ _____    ______ ____
ROOT
ATOM      1  C   UNL     1      48.645   8.540  12.676  0.00  0.00    +0.000 C 
ATOM      2  C   UNL     1      49.708   9.293  11.883  0.00  0.00    +0.000 C 
ATOM      3  C   UNL     1      49.106   9.913  13.101  0.00  0.00    +0.000 C 
ENDROOT
BRANCH   1   4
ATOM      4  C   UNL     1      47.250   8.370  12.103  0.00  0.00    +0.000 A 
ATOM      5  C   UNL     1      46.197   9.235  12.435  0.00  0.00    +0.000 A 
ATOM      6  C   UNL     1      44.882   8.925  12.097  0.00  0.00    +0.000 A 
ATOM      7  C   UNL     1      44.594   7.730  11.435  0.00  0.00    +0.000 A 
ATOM      8  C   UNL     1      45.613   6.835  11.071  0.00  0.00    +0.000 A 
ATOM      9  C   UNL     1      46.934   7.206  11.374  0.00  0.00    +0.000 A 
BRANCH   8  10
ATOM     10  C   UNL     1      45.318   5.505  10.499  0.00  0.00    +0.000 A 
ATOM     11  C   UNL     1      44.706   4.506  11.283  0.00  0.00    +0.000 A 
ATOM     12  C   UNL     1      44.461   3.226  10.777  0.00  0.00    +0.000 A 
ATOM     13  C   UNL     1      44.842   2.911   9.477  0.00  0.00    +0.000 A 
ATOM     14  C   UNL     1      45.462   3.873   8.691  0.00  0.00    +0.000 A 
ATOM     15 CL   UNL     1      45.972   3.474   7.096  0.00  0.00    +0.000 Cl
ATOM     16  C   UNL     1      45.695   5.159   9.188  0.00  0.00    +0.000 A 
ENDBRANCH   8  10
ENDBRANCH   1   4
BRANCH   1  17
ATOM     17  N   UNL     1      49.170   7.272  13.205  0.00  0.00    +0.000 N 
ATOM     18  H   UNL     1      49.623   6.701  12.493  0.00  0.00    +0.000 HD
BRANCH  17  22
ATOM     19  C   UNL     1      47.582   4.567  15.915  0.00  0.00    +0.000 A 
ATOM     20  N   UNL     1      48.242   5.644  16.432  0.00  0.00    +0.000 NA
ATOM     21  C   UNL     1      48.726   6.550  15.543  0.00  0.00    +0.000 A 
ATOM     22  C   UNL     1      48.562   6.455  14.170  0.00  0.00    +0.000 A 
ATOM     23  C   UNL     1      47.858   5.338  13.696  0.00  0.00    +0.000 A 
ATOM     24  C   UNL     1      47.313   4.382  14.555  0.00  0.00    +0.000 A 
BRANCH  24  25
ATOM     25  N   UNL     1      46.783   3.210  13.990  0.00  0.00    +0.000 N 
ATOM     26  H   UNL     1      46.316   3.343  13.097  0.00  0.00    +0.000 HD
ATOM     27  H   UNL     1      46.249   2.614  14.616  0.00  0.00    +0.000 HD
ENDBRANCH  24  25
BRANCH  19  29
ATOM     28  N   UNL     1      46.758   2.824  17.665  0.00  0.00    +0.000 NA
ATOM     29  C   UNL     1      47.158   3.598  16.888  0.00  0.00    +0.000 C 
ENDBRANCH  19  29
ENDBRANCH  17  22
ENDBRANCH   1  17
TORSDOF 6
ENDMDL
MODEL 8
REMARK VINA RESULT:    -6.414      3.069      4.984
REMARK INTER + INTRA:          -9.469
REMARK INTER:                  -8.229
REMARK INTRA:                  -1.241
REMARK UNBOUND:                -0.994
REMARK  Name = 
REMARK  6 active torsions:
REMARK  status: ('A' for Active; 'I' for Inactive)
REMARK    1  A    between atoms: C_2  and  C_3
REMARK    2  A    between atoms: C_6  and  N_7
REMARK    3  A    between atoms: N_7  and  C_8
REMARK    4  A    between atoms: C_8  and  C_9
REMARK    5  A    between atoms: C_13  and  C_14
REMARK    6  A    between atoms: C_25  and  N_26
REMARK                            x       y       z     vdW  Elec       q    Type
REMARK                         _______ _______ _______ _____ _____    ______ ____
ROOT
ATOM      1  C   UNL     1      45.625   8.376  12.193  0.00  0.00    +0.000 C 
ATOM      2  C   UNL     1      44.863   9.621  12.633  0.00  0.00    +0.000 C 
ATOM      3  C   UNL     1      45.308   9.482  11.215  0.00  0.00    +0.000 C 
ENDROOT
BRANCH   1   4
ATOM      4  C   UNL     1      47.061   8.167  12.639  0.00  0.00    +0.000 A 
ATOM      5  C   UNL     1      48.143   8.328  11.763  0.00  0.00    +0.000 A 
ATOM      6  C   UNL     1      49.421   7.901  12.117  0.00  0.00    +0.000 A 
ATOM      7  C   UNL     1      49.633   7.286  13.352  0.00  0.00    +0.000 A 
ATOM      8  C   UNL     1      48.585   7.110  14.270  0.00  0.00    +0.000 A 
ATOM      9  C   UNL     1      47.321   7.606  13.905  0.00  0.00    +0.000 A 
BRANCH   8  10
ATOM     10  C   UNL     1      48.757   6.338  15.517  0.00  0.00    +0.000 A 
ATOM     11  C   UNL     1      49.808   6.636  16.408  0.00  0.00    +0.000 A 
ATOM     12  C   UNL     1      50.018   5.889  17.570  0.00  0.00    +0.000 A 
ATOM     13  C   UNL     1      49.189   4.810  17.858  0.00  0.00    +0.000 A 
ATOM     14  C   UNL     1      48.157   4.486  16.988  0.00  0.00    +0.000 A 
ATOM     15 CL   UNL     1      47.155   3.126  17.320  0.00  0.00    +0.000 Cl
ATOM     16  C   UNL     1      47.934   5.240  15.832  0.00  0.00    +0.000 A 
ENDBRANCH   8  10
ENDBRANCH   1   4
BRANCH   1  17
ATOM     17  N   UNL     1      44.818   7.161  12.383  0.00  0.00    +0.000 N 
ATOM     18  H   UNL     1      44.591   6.982  13.359  0.00  0.00    +0.000 HD
BRANCH  17  22
ATOM     19  C   UNL     1      44.845   3.545  10.353  0.00  0.00    +0.000 A 
ATOM     20  N   UNL     1      45.331   4.632   9.685  0.00  0.00    +0.000 NA
ATOM     21  C   UNL     1      45.358   5.807  10.367  0.00  0.00    +0.000 A 
ATOM     22  C   UNL     1      44.956   5.950  11.686  0.00  0.00    +0.000 A 
ATOM     23  C   UNL     1      44.485   4.796  12.329  0.00  0.00    +0.000 A 
ATOM     24  C   UNL     1      44.452   3.553  11.696  0.00  0.00    +0.000 A 
BRANCH  24  25
ATOM     25  N   UNL     1      43.801   2.493  12.352  0.00  0.00    +0.000 N 
ATOM     26  H   UNL     1      44.236   1.584  12.223  0.00  0.00    +0.000 HD
ATOM     27  H   UNL     1      42.792   2.454  12.244  0.00  0.00    +0.000 HD
ENDBRANCH  24  25
BRANCH  19  29
ATOM     28  N   UNL     1      44.682   1.403   8.882  0.00  0.00    +0.000 NA
ATOM     29  C   UNL     1      44.761   2.345   9.568  0.00  0.00    +0.000 C 
ENDBRANCH  19  29
ENDBRANCH  17  22
ENDBRANCH   1  17
TORSDOF 6
ENDMDL
MODEL 9
REMARK VINA RESULT:    -6.370      4.783      8.579
REMARK INTER + INTRA:          -9.412
REMARK INTER:                  -8.334
REMARK INTRA:                  -1.078
REMARK UNBOUND:                -0.994
REMARK  Name = 
REMARK  6 active torsions:
REMARK  status: ('A' for Active; 'I' for Inactive)
REMARK    1  A    between atoms: C_2  and  C_3
REMARK    2  A    between atoms: C_6  and  N_7
REMARK    3  A    between atoms: N_7  and  C_8
REMARK    4  A    between atoms: C_8  and  C_9
REMARK    5  A    between atoms: C_13  and  C_14
REMARK    6  A    between atoms: C_25  and  N_26
REMARK                            x       y       z     vdW  Elec       q    Type
REMARK                         _______ _______ _______ _____ _____    ______ ____
ROOT
ATOM      1  C   UNL     1      49.153   7.932  12.475  0.00  0.00    +0.000 C 
ATOM      2  C   UNL     1      50.228   7.757  11.408  0.00  0.00    +0.000 C 
ATOM      3  C   UNL     1      50.075   9.068  12.106  0.00  0.00    +0.000 C 
ENDROOT
BRANCH   1   4
ATOM      4  C   UNL     1      47.691   8.002  12.074  0.00  0.00    +0.000 A 
ATOM      5  C   UNL     1      46.963   9.200  12.120  0.00  0.00    +0.000 A 
ATOM      6  C   UNL     1      45.576   9.201  11.984  0.00  0.00    +0.000 A 
ATOM      7  C   UNL     1      44.891   7.996  11.819  0.00  0.00    +0.000 A 
ATOM      8  C   UNL     1      45.573   6.771  11.757  0.00  0.00    +0.000 A 
ATOM      9  C   UNL     1      46.976   6.811  11.837  0.00  0.00    +0.000 A 
BRANCH   8  10
ATOM     10  C   UNL     1      44.859   5.478  11.726  0.00  0.00    +0.000 A 
ATOM     11  C   UNL     1      44.087   5.057  12.827  0.00  0.00    +0.000 A 
ATOM     12  C   UNL     1      43.442   3.817  12.838  0.00  0.00    +0.000 A 
ATOM     13  C   UNL     1      43.571   2.960  11.750  0.00  0.00    +0.000 A 
ATOM     14  C   UNL     1      44.340   3.345  10.661  0.00  0.00    +0.000 A 
ATOM     15 CL   UNL     1      44.536   2.269   9.330  0.00  0.00    +0.000 Cl
ATOM     16  C   UNL     1      44.975   4.591  10.639  0.00  0.00    +0.000 A 
ENDBRANCH   8  10
ENDBRANCH   1   4
BRANCH   1  17
ATOM     17  N   UNL     1      49.360   7.007  13.600  0.00  0.00    +0.000 N 
ATOM     18  H   UNL     1      49.076   6.053  13.389  0.00  0.00    +0.000 HD
BRANCH  17  22
ATOM     19  C   UNL     1      48.392   7.945  17.521  0.00  0.00    +0.000 A 
ATOM     20  N   UNL     1      48.755   6.654  17.266  0.00  0.00    +0.000 NA
ATOM     21  C   UNL     1      49.111   6.360  15.989  0.00  0.00    +0.000 A 
ATOM     22  C   UNL     1      49.152   7.287  14.959  0.00  0.00    +0.000 A 
ATOM     23  C   UNL     1      48.788   8.602  15.283  0.00  0.00    +0.000 A 
ATOM     24  C   UNL     1      48.436   8.979  16.580  0.00  0.00    +0.000 A 
BRANCH  24  25
ATOM     25  N   UNL     1      47.915  10.270  16.775  0.00  0.00    +0.000 N 
ATOM     26  H   UNL     1      48.250  10.740  17.612  0.00  0.00    +0.000 HD
ATOM     27  H   UNL     1      46.911  10.369  16.657  0.00  0.00    +0.000 HD
ENDBRANCH  24  25
BRANCH  19  29
ATOM     28  N   UNL     1      47.533   8.394  19.937  0.00  0.00    +0.000 NA
ATOM     29  C   UNL     1      47.948   8.190  18.865  0.00  0.00    +0.000 C 
ENDBRANCH  19  29
ENDBRANCH  17  22
ENDBRANCH   1  17
TORSDOF 6
ENDMDL
