MODEL 1
REMARK VINA RESULT:    -7.879      0.000      0.000
REMARK INTER + INTRA:         -11.708
REMARK INTER:                 -10.643
REMARK INTRA:                  -1.065
REMARK UNBOUND:                -1.065
REMARK  Name = 
REMARK  7 active torsions:
REMARK  status: ('A' for Active; 'I' for Inactive)
REMARK    1  A    between atoms: C_1  and  C_2
REMARK    2  A    between atoms: C_2  and  N_3
REMARK    3  A    between atoms: C_2  and  C_21
REMARK    4  A    between atoms: C_4  and  C_6
REMARK    5  A    between atoms: C_9  and  C_10
REMARK    6  A    between atoms: C_10  and  N_11
REMARK    7  A    between atoms: C_12  and  C_14
REMARK                            x       y       z     vdW  Elec       q    Type
REMARK                         _______ _______ _______ _____ _____    ______ ____
ROOT
ATOM      1  N   UNL     1      48.283   6.590  15.138  0.00  0.00    +0.000 N 
ATOM      2  C   UNL     1      47.519   7.109  14.112  0.00  0.00    +0.000 C 
ATOM      3  O   UNL     1      47.467   8.301  13.829  0.00  0.00    +0.000 OA
ATOM      4  H   UNL     1      48.508   5.601  15.074  0.00  0.00    +0.000 HD
ENDROOT
BRANCH   2   5
ATOM      5  C   UNL     1      46.738   6.120  13.310  0.00  0.00    +0.000 A 
ATOM      6  C   UNL     1      46.709   4.767  13.664  0.00  0.00    +0.000 A 
ATOM      7  C   UNL     1      45.932   3.862  12.929  0.00  0.00    +0.000 A 
ATOM      8  C   UNL     1      45.181   4.294  11.825  0.00  0.00    +0.000 A 
ATOM      9  C   UNL     1      45.198   5.656  11.491  0.00  0.00    +0.000 A 
ATOM     10  C   UNL     1      45.970   6.563  12.228  0.00  0.00    +0.000 A 
BRANCH   8  11
ATOM     11  C   UNL     1      44.349   3.315  11.035  0.00  0.00    +0.000 C 
BRANCH  11  12
ATOM     12  N   UNL     1      45.125   2.658  10.011  0.00  0.00    +0.000 N 
ATOM     13  C   UNL     1      45.224   3.185   8.744  0.00  0.00    +0.000 C 
ATOM     14  O   UNL     1      44.654   4.222   8.417  0.00  0.00    +0.000 OA
ATOM     15  H   UNL     1      45.652   1.836  10.258  0.00  0.00    +0.000 HD
BRANCH  13  16
ATOM     16  C   UNL     1      46.045   2.443   7.829  0.00  0.00    +0.000 A 
ATOM     17  C   UNL     1      46.686   2.770   6.645  0.00  0.00    +0.000 A 
ATOM     18  C   UNL     1      47.334   1.592   6.237  0.00  0.00    +0.000 A 
ATOM     19  N   UNL     1      47.132   0.584   7.084  0.00  0.00    +0.000 NA
ATOM     20  N   UNL     1      46.356   1.125   8.039  0.00  0.00    +0.000 N 
ATOM     21  H   UNL     1      46.059   0.546   8.823  0.00  0.00    +0.000 HD
ENDBRANCH  13  16
ENDBRANCH  11  12
ENDBRANCH   8  11
ENDBRANCH   2   5
BRANCH   1  23
ATOM     22  C   UNL     1      50.623   7.130  15.804  0.00  0.00    +0.000 C 
ATOM     23  C   UNL     1      49.127   7.421  15.973  0.00  0.00    +0.000 C 
BRANCH  23  24
ATOM     24  C   UNL     1      48.744   7.309  17.443  0.00  0.00    +0.000 A 
ATOM     25  C   UNL     1      48.397   8.429  18.189  0.00  0.00    +0.000 A 
ATOM     26  S   UNL     1      48.194   8.111  19.852  0.00  0.00    +0.000 S 
ATOM     27  C   UNL     1      48.536   6.459  19.639  0.00  0.00    +0.000 A 
ATOM     28  N   UNL     1      48.560   5.608  20.700  0.00  0.00    +0.000 NA
ATOM     29  C   UNL     1      48.832   4.384  20.397  0.00  0.00    +0.000 A 
ATOM     30  N   UNL     1      49.073   3.929  19.126  0.00  0.00    +0.000 N 
ATOM     31  C   UNL     1      49.013   4.743  18.018  0.00  0.00    +0.000 A 
ATOM     32  O   UNL     1      49.107   4.283  16.884  0.00  0.00    +0.000 OA
ATOM     33  C   UNL     1      48.767   6.145  18.310  0.00  0.00    +0.000 A 
ATOM     34  H   UNL     1      49.228   2.948  18.951  0.00  0.00    +0.000 HD
ENDBRANCH  23  24
ENDBRANCH   1  23
TORSDOF 6
ENDMDL
MODEL 2
REMARK VINA RESULT:    -7.790      2.542      3.947
REMARK INTER + INTRA:         -11.588
REMARK INTER:                 -10.379
REMARK INTRA:                  -1.208
REMARK UNBOUND:                -1.065
REMARK  Name = 
REMARK  7 active torsions:
REMARK  status: ('A' for Active; 'I' for Inactive)
REMARK    1  A    between atoms: C_1  and  C_2
REMARK    2  A    between atoms: C_2  and  N_3
REMARK    3  A    between atoms: C_2  and  C_21
REMARK    4  A    between atoms: C_4  and  C_6
REMARK    5  A    between atoms: C_9  and  C_10
REMARK    6  A    between atoms: C_10  and  N_11
REMARK    7  A    between atoms: C_12  and  C_14
REMARK                            x       y       z     vdW  Elec       q    Type
REMARK                         _______ _______ _______ _____ _____    ______ ____
ROOT
ATOM      1  N   UNL     1      48.004   6.953  14.790  0.00  0.00    +0.000 N 
ATOM      2  C   UNL     1      47.593   5.642  14.661  0.00  0.00    +0.000 C 
ATOM      3  O   UNL     1      47.811   4.769  15.495  0.00  0.00    +0.000 OA
ATOM      4  H   UNL     1      47.503   7.637  14.230  0.00  0.00    +0.000 HD
ENDROOT
BRANCH   2   5
ATOM      5  C   UNL     1      46.824   5.313  13.425  0.00  0.00    +0.000 A 
ATOM      6  C   UNL     1      46.118   4.110  13.313  0.00  0.00    +0.000 A 
ATOM      7  C   UNL     1      45.363   3.839  12.165  0.00  0.00    +0.000 A 
ATOM      8  C   UNL     1      45.309   4.761  11.108  0.00  0.00    +0.000 A 
ATOM      9  C   UNL     1      46.002   5.974  11.237  0.00  0.00    +0.000 A 
ATOM     10  C   UNL     1      46.753   6.248  12.387  0.00  0.00    +0.000 A 
BRANCH   8  11
ATOM     11  C   UNL     1      44.497   4.463   9.873  0.00  0.00    +0.000 C 
BRANCH  11  12
ATOM     12  N   UNL     1      45.337   4.102   8.755  0.00  0.00    +0.000 N 
ATOM     13  C   UNL     1      45.642   2.787   8.490  0.00  0.00    +0.000 C 
ATOM     14  O   UNL     1      45.232   1.863   9.186  0.00  0.00    +0.000 OA
ATOM     15  H   UNL     1      45.645   4.828   8.129  0.00  0.00    +0.000 HD
BRANCH  13  16
ATOM     16  C   UNL     1      46.469   2.566   7.336  0.00  0.00    +0.000 A 
ATOM     17  C   UNL     1      46.599   3.219   6.120  0.00  0.00    +0.000 A 
ATOM     18  C   UNL     1      47.588   2.506   5.422  0.00  0.00    +0.000 A 
ATOM     19  N   UNL     1      48.062   1.477   6.125  0.00  0.00    +0.000 NA
ATOM     20  N   UNL     1      47.373   1.539   7.278  0.00  0.00    +0.000 N 
ATOM     21  H   UNL     1      47.559   0.849   8.002  0.00  0.00    +0.000 HD
ENDBRANCH  13  16
ENDBRANCH  11  12
ENDBRANCH   8  11
ENDBRANCH   2   5
BRANCH   1  23
ATOM     22  C   UNL     1      48.380   8.877  16.327  0.00  0.00    +0.000 C 
ATOM     23  C   UNL     1      48.722   7.430  15.955  0.00  0.00    +0.000 C 
BRANCH  23  24
ATOM     24  C   UNL     1      50.229   7.286  15.782  0.00  0.00    +0.000 A 
ATOM     25  C   UNL     1      51.008   6.635  16.731  0.00  0.00    +0.000 A 
ATOM     26  S   UNL     1      52.685   6.755  16.443  0.00  0.00    +0.000 S 
ATOM     27  C   UNL     1      52.437   7.660  15.024  0.00  0.00    +0.000 A 
ATOM     28  N   UNL     1      53.489   8.118  14.296  0.00  0.00    +0.000 NA
ATOM     29  C   UNL     1      53.159   8.790  13.244  0.00  0.00    +0.000 A 
ATOM     30  N   UNL     1      51.870   9.036  12.848  0.00  0.00    +0.000 N 
ATOM     31  C   UNL     1      50.775   8.552  13.527  0.00  0.00    +0.000 A 
ATOM     32  O   UNL     1      49.640   8.681  13.078  0.00  0.00    +0.000 OA
ATOM     33  C   UNL     1      51.090   7.839  14.753  0.00  0.00    +0.000 A 
ATOM     34  H   UNL     1      51.681   9.523  11.985  0.00  0.00    +0.000 HD
ENDBRANCH  23  24
ENDBRANCH   1  23
TORSDOF 6
ENDMDL
MODEL 3
REMARK VINA RESULT:    -7.702      1.646      2.233
REMARK INTER + INTRA:         -11.469
REMARK INTER:                 -10.681
REMARK INTRA:                  -0.788
REMARK UNBOUND:                -1.065
REMARK  Name = 
REMARK  7 active torsions:
REMARK  status: ('A' for Active; 'I' for Inactive)
REMARK    1  A    between atoms: C_1  and  C_2
REMARK    2  A    between atoms: C_2  and  N_3
REMARK    3  A    between atoms: C_2  and  C_21
REMARK    4  A    between atoms: C_4  and  C_6
REMARK    5  A    between atoms: C_9  and  C_10
REMARK    6  A    between atoms: C_10  and  N_11
REMARK    7  A    between atoms: C_12  and  C_14
REMARK                            x       y       z     vdW  Elec       q    Type
REMARK                         _______ _______ _______ _____ _____    ______ ____
ROOT
ATOM      1  N   UNL     1      48.113   6.353  14.904  0.00  0.00    +0.000 N 
ATOM      2  C   UNL     1      47.453   7.129  13.972  0.00  0.00    +0.000 C 
ATOM      3  O   UNL     1      47.481   8.355  13.956  0.00  0.00    +0.000 OA
ATOM      4  H   UNL     1      48.292   5.388  14.638  0.00  0.00    +0.000 HD
ENDROOT
BRANCH   2   5
ATOM      5  C   UNL     1      46.683   6.389  12.928  0.00  0.00    +0.000 A 
ATOM      6  C   UNL     1      46.499   6.929  11.650  0.00  0.00    +0.000 A 
ATOM      7  C   UNL     1      45.816   6.200  10.668  0.00  0.00    +0.000 A 
ATOM      8  C   UNL     1      45.298   4.927  10.951  0.00  0.00    +0.000 A 
ATOM      9  C   UNL     1      45.505   4.384  12.228  0.00  0.00    +0.000 A 
ATOM     10  C   UNL     1      46.193   5.109  13.209  0.00  0.00    +0.000 A 
BRANCH   8  11
ATOM     11  C   UNL     1      44.560   4.147   9.892  0.00  0.00    +0.000 C 
BRANCH  11  12
ATOM     12  N   UNL     1      45.407   3.847   8.762  0.00  0.00    +0.000 N 
ATOM     13  C   UNL     1      45.706   2.548   8.422  0.00  0.00    +0.000 C 
ATOM     14  O   UNL     1      45.284   1.587   9.060  0.00  0.00    +0.000 OA
ATOM     15  H   UNL     1      45.725   4.606   8.182  0.00  0.00    +0.000 HD
BRANCH  13  16
ATOM     16  C   UNL     1      46.541   2.390   7.264  0.00  0.00    +0.000 A 
ATOM     17  C   UNL     1      46.585   3.018   6.030  0.00  0.00    +0.000 A 
ATOM     18  C   UNL     1      47.642   2.402   5.339  0.00  0.00    +0.000 A 
ATOM     19  N   UNL     1      48.235   1.453   6.062  0.00  0.00    +0.000 NA
ATOM     20  N   UNL     1      47.555   1.469   7.222  0.00  0.00    +0.000 N 
ATOM     21  H   UNL     1      47.824   0.824   7.962  0.00  0.00    +0.000 HD
ENDBRANCH  13  16
ENDBRANCH  11  12
ENDBRANCH   8  11
ENDBRANCH   2   5
BRANCH   1  23
ATOM     22  C   UNL     1      50.411   7.058  15.560  0.00  0.00    +0.000 C 
ATOM     23  C   UNL     1      48.934   6.928  15.950  0.00  0.00    +0.000 C 
BRANCH  23  24
ATOM     24  C   UNL     1      48.812   6.144  17.251  0.00  0.00    +0.000 A 
ATOM     25  C   UNL     1      49.053   4.777  17.300  0.00  0.00    +0.000 A 
ATOM     26  S   UNL     1      48.673   4.065  18.802  0.00  0.00    +0.000 S 
ATOM     27  C   UNL     1      48.196   5.559  19.457  0.00  0.00    +0.000 A 
ATOM     28  N   UNL     1      47.723   5.645  20.729  0.00  0.00    +0.000 NA
ATOM     29  C   UNL     1      47.397   6.838  21.099  0.00  0.00    +0.000 A 
ATOM     30  N   UNL     1      47.513   7.957  20.316  0.00  0.00    +0.000 N 
ATOM     31  C   UNL     1      48.030   7.926  19.041  0.00  0.00    +0.000 A 
ATOM     32  O   UNL     1      48.240   8.960  18.413  0.00  0.00    +0.000 OA
ATOM     33  C   UNL     1      48.358   6.597  18.554  0.00  0.00    +0.000 A 
ATOM     34  H   UNL     1      47.291   8.869  20.685  0.00  0.00    +0.000 HD
ENDBRANCH  23  24
ENDBRANCH   1  23
TORSDOF 6
ENDMDL
MODEL 4
REMARK VINA RESULT:    -7.673      2.521      3.220
REMARK INTER + INTRA:         -11.429
REMARK INTER:                 -10.457
REMARK INTRA:                  -0.972
REMARK UNBOUND:                -1.065
REMARK  Name = 
REMARK  7 active torsions:
REMARK  status: ('A' for Active; 'I' for Inactive)
REMARK    1  A    between atoms: C_1  and  C_2
REMARK    2  A    between atoms: C_2  and  N_3
REMARK    3  A    between atoms: C_2  and  C_21
REMARK    4  A    between atoms: C_4  and  C_6
REMARK    5  A    between atoms: C_9  and  C_10
REMARK    6  A    between atoms: C_10  and  N_11
REMARK    7  A    between atoms: C_12  and  C_14
REMARK                            x       y       z     vdW  Elec       q    Type
REMARK                         _______ _______ _______ _____ _____    ______ ____
ROOT
ATOM      1  N   UNL     1      47.882   7.300  14.710  0.00  0.00    +0.000 N 
ATOM      2  C   UNL     1      47.632   5.957  14.510  0.00  0.00    +0.000 C 
ATOM      3  O   UNL     1      48.039   5.066  15.247  0.00  0.00    +0.000 OA
ATOM      4  H   UNL     1      47.245   7.948  14.252  0.00  0.00    +0.000 HD
ENDROOT
BRANCH   2   5
ATOM      5  C   UNL     1      46.797   5.614  13.320  0.00  0.00    +0.000 A 
ATOM      6  C   UNL     1      46.768   6.446  12.195  0.00  0.00    +0.000 A 
ATOM      7  C   UNL     1      46.016   6.084  11.070  0.00  0.00    +0.000 A 
ATOM      8  C   UNL     1      45.275   4.892  11.056  0.00  0.00    +0.000 A 
ATOM      9  C   UNL     1      45.326   4.054  12.179  0.00  0.00    +0.000 A 
ATOM     10  C   UNL     1      46.082   4.411  13.303  0.00  0.00    +0.000 A 
BRANCH   8  11
ATOM     11  C   UNL     1      44.464   4.509   9.843  0.00  0.00    +0.000 C 
BRANCH  11  12
ATOM     12  N   UNL     1      45.308   4.129   8.735  0.00  0.00    +0.000 N 
ATOM     13  C   UNL     1      45.653   2.815   8.522  0.00  0.00    +0.000 C 
ATOM     14  O   UNL     1      45.278   1.908   9.259  0.00  0.00    +0.000 OA
ATOM     15  H   UNL     1      45.587   4.838   8.077  0.00  0.00    +0.000 HD
BRANCH  13  16
ATOM     16  C   UNL     1      46.479   2.573   7.371  0.00  0.00    +0.000 A 
ATOM     17  C   UNL     1      46.637   3.226   6.160  0.00  0.00    +0.000 A 
ATOM     18  C   UNL     1      47.607   2.484   5.464  0.00  0.00    +0.000 A 
ATOM     19  N   UNL     1      48.043   1.438   6.164  0.00  0.00    +0.000 NA
ATOM     20  N   UNL     1      47.351   1.517   7.314  0.00  0.00    +0.000 N 
ATOM     21  H   UNL     1      47.510   0.818   8.036  0.00  0.00    +0.000 HD
ENDBRANCH  13  16
ENDBRANCH  11  12
ENDBRANCH   8  11
ENDBRANCH   2   5
BRANCH   1  23
ATOM     22  C   UNL     1      48.139   9.136  16.374  0.00  0.00    +0.000 C 
ATOM     23  C   UNL     1      48.640   7.788  15.844  0.00  0.00    +0.000 C 
BRANCH  23  24
ATOM     24  C   UNL     1      50.127   7.881  15.525  0.00  0.00    +0.000 A 
ATOM     25  C   UNL     1      50.604   8.728  14.532  0.00  0.00    +0.000 A 
ATOM     26  S   UNL     1      52.266   8.537  14.205  0.00  0.00    +0.000 S 
ATOM     27  C   UNL     1      52.423   7.333  15.396  0.00  0.00    +0.000 A 
ATOM     28  N   UNL     1      53.614   6.714  15.611  0.00  0.00    +0.000 NA
ATOM     29  C   UNL     1      53.593   5.821  16.543  0.00  0.00    +0.000 A 
ATOM     30  N   UNL     1      52.488   5.497  17.288  0.00  0.00    +0.000 N 
ATOM     31  C   UNL     1      51.275   6.129  17.138  0.00  0.00    +0.000 A 
ATOM     32  O   UNL     1      50.342   5.907  17.904  0.00  0.00    +0.000 OA
ATOM     33  C   UNL     1      51.229   7.103  16.060  0.00  0.00    +0.000 A 
ATOM     34  H   UNL     1      52.552   4.827  18.039  0.00  0.00    +0.000 HD
ENDBRANCH  23  24
ENDBRANCH   1  23
TORSDOF 6
ENDMDL
MODEL 5
REMARK VINA RESULT:    -7.623      1.901      3.403
REMARK INTER + INTRA:         -11.362
REMARK INTER:                 -10.500
REMARK INTRA:                  -0.862
REMARK UNBOUND:                -1.065
REMARK  Name = 
REMARK  7 active torsions:
REMARK  status: ('A' for Active; 'I' for Inactive)
REMARK    1  A    between atoms: C_1  and  C_2
REMARK    2  A    between atoms: C_2  and  N_3
REMARK    3  A    between atoms: C_2  and  C_21
REMARK    4  A    between atoms: C_4  and  C_6
REMARK    5  A    between atoms: C_9  and  C_10
REMARK    6  A    between atoms: C_10  and  N_11
REMARK    7  A    between atoms: C_12  and  C_14
REMARK                            x       y       z     vdW  Elec       q    Type
REMARK                         _______ _______ _______ _____ _____    ______ ____
ROOT
ATOM      1  N   UNL     1      47.526   5.558  15.472  0.00  0.00    +0.000 N 
ATOM      2  C   UNL     1      47.212   4.331  14.922  0.00  0.00    +0.000 C 
ATOM      3  O   UNL     1      47.550   3.256  15.404  0.00  0.00    +0.000 OA
ATOM      4  H   UNL     1      46.938   6.338  15.193  0.00  0.00    +0.000 HD
ENDROOT
BRANCH   2   5
ATOM      5  C   UNL     1      46.393   4.362  13.673  0.00  0.00    +0.000 A 
ATOM      6  C   UNL     1      46.083   5.572  13.043  0.00  0.00    +0.000 A 
ATOM      7  C   UNL     1      45.355   5.578  11.846  0.00  0.00    +0.000 A 
ATOM      8  C   UNL     1      44.918   4.377  11.267  0.00  0.00    +0.000 A 
ATOM      9  C   UNL     1      45.252   3.167  11.893  0.00  0.00    +0.000 A 
ATOM     10  C   UNL     1      45.985   3.158  13.087  0.00  0.00    +0.000 A 
BRANCH   8  11
ATOM     11  C   UNL     1      44.132   4.389   9.980  0.00  0.00    +0.000 C 
BRANCH  11  12
ATOM     12  N   UNL     1      44.763   3.585   8.961  0.00  0.00    +0.000 N 
ATOM     13  C   UNL     1      45.818   4.070   8.223  0.00  0.00    +0.000 C 
ATOM     14  O   UNL     1      46.266   5.203   8.382  0.00  0.00    +0.000 OA
ATOM     15  H   UNL     1      44.460   2.632   8.842  0.00  0.00    +0.000 HD
BRANCH  13  16
ATOM     16  C   UNL     1      46.367   3.159   7.258  0.00  0.00    +0.000 A 
ATOM     17  C   UNL     1      46.630   3.256   5.901  0.00  0.00    +0.000 A 
ATOM     18  C   UNL     1      47.172   2.011   5.540  0.00  0.00    +0.000 A 
ATOM     19  N   UNL     1      47.255   1.176   6.574  0.00  0.00    +0.000 NA
ATOM     20  N   UNL     1      46.768   1.895   7.600  0.00  0.00    +0.000 N 
ATOM     21  H   UNL     1      46.728   1.473   8.526  0.00  0.00    +0.000 HD
ENDBRANCH  13  16
ENDBRANCH  11  12
ENDBRANCH   8  11
ENDBRANCH   2   5
BRANCH   1  23
ATOM     22  C   UNL     1      47.519   5.168  17.933  0.00  0.00    +0.000 C 
ATOM     23  C   UNL     1      48.277   5.686  16.705  0.00  0.00    +0.000 C 
BRANCH  23  24
ATOM     24  C   UNL     1      48.722   7.124  16.943  0.00  0.00    +0.000 A 
ATOM     25  C   UNL     1      48.598   7.723  18.189  0.00  0.00    +0.000 A 
ATOM     26  S   UNL     1      48.972   9.387  18.192  0.00  0.00    +0.000 S 
ATOM     27  C   UNL     1      49.339   9.368  16.532  0.00  0.00    +0.000 A 
ATOM     28  N   UNL     1      49.706  10.506  15.884  0.00  0.00    +0.000 NA
ATOM     29  C   UNL     1      49.956  10.349  14.628  0.00  0.00    +0.000 A 
ATOM     30  N   UNL     1      49.882   9.154  13.960  0.00  0.00    +0.000 N 
ATOM     31  C   UNL     1      49.561   7.970  14.583  0.00  0.00    +0.000 A 
ATOM     32  O   UNL     1      49.628   6.898  13.987  0.00  0.00    +0.000 OA
ATOM     33  C   UNL     1      49.213   8.100  15.988  0.00  0.00    +0.000 A 
ATOM     34  H   UNL     1      50.144   9.090  12.988  0.00  0.00    +0.000 HD
ENDBRANCH  23  24
ENDBRANCH   1  23
TORSDOF 6
ENDMDL
MODEL 6
REMARK VINA RESULT:    -7.190      3.636      8.858
REMARK INTER + INTRA:         -10.778
REMARK INTER:                  -9.674
REMARK INTRA:                  -1.103
REMARK UNBOUND:                -1.065
REMARK  Name = 
REMARK  7 active torsions:
REMARK  status: ('A' for Active; 'I' for Inactive)
REMARK    1  A    between atoms: C_1  and  C_2
REMARK    2  A    between atoms: C_2  and  N_3
REMARK    3  A    between atoms: C_2  and  C_21
REMARK    4  A    between atoms: C_4  and  C_6
REMARK    5  A    between atoms: C_9  and  C_10
REMARK    6  A    between atoms: C_10  and  N_11
REMARK    7  A    between atoms: C_12  and  C_14
REMARK                            x       y       z     vdW  Elec       q    Type
REMARK                         _______ _______ _______ _____ _____    ______ ____
ROOT
ATOM      1  N   UNL     1      46.862   6.904  12.457  0.00  0.00    +0.000 N 
ATOM      2  C   UNL     1      48.132   7.436  12.542  0.00  0.00    +0.000 C 
ATOM      3  O   UNL     1      48.667   8.081  11.646  0.00  0.00    +0.000 OA
ATOM      4  H   UNL     1      46.406   6.688  13.340  0.00  0.00    +0.000 HD
ENDROOT
BRANCH   2   5
ATOM      5  C   UNL     1      48.857   7.204  13.826  0.00  0.00    +0.000 A 
ATOM      6  C   UNL     1      48.297   6.419  14.840  0.00  0.00    +0.000 A 
ATOM      7  C   UNL     1      49.012   6.173  16.019  0.00  0.00    +0.000 A 
ATOM      8  C   UNL     1      50.292   6.715  16.207  0.00  0.00    +0.000 A 
ATOM      9  C   UNL     1      50.856   7.484  15.178  0.00  0.00    +0.000 A 
ATOM     10  C   UNL     1      50.145   7.726  13.996  0.00  0.00    +0.000 A 
BRANCH   8  11
ATOM     11  C   UNL     1      51.057   6.450  17.480  0.00  0.00    +0.000 C 
BRANCH  11  12
ATOM     12  N   UNL     1      51.639   5.129  17.488  0.00  0.00    +0.000 N 
ATOM     13  C   UNL     1      51.068   4.104  18.205  0.00  0.00    +0.000 C 
ATOM     14  O   UNL     1      50.053   4.257  18.878  0.00  0.00    +0.000 OA
ATOM     15  H   UNL     1      52.439   4.952  16.903  0.00  0.00    +0.000 HD
BRANCH  13  16
ATOM     16  C   UNL     1      51.737   2.836  18.109  0.00  0.00    +0.000 A 
ATOM     17  C   UNL     1      51.509   1.695  17.357  0.00  0.00    +0.000 A 
ATOM     18  C   UNL     1      52.529   0.801  17.724  0.00  0.00    +0.000 A 
ATOM     19  N   UNL     1      53.352   1.317  18.635  0.00  0.00    +0.000 NA
ATOM     20  N   UNL     1      52.856   2.549  18.846  0.00  0.00    +0.000 N 
ATOM     21  H   UNL     1      53.321   3.162  19.513  0.00  0.00    +0.000 HD
ENDBRANCH  13  16
ENDBRANCH  11  12
ENDBRANCH   8  11
ENDBRANCH   2   5
BRANCH   1  23
ATOM     22  C   UNL     1      44.797   7.967  11.555  0.00  0.00    +0.000 C 
ATOM     23  C   UNL     1      46.021   7.083  11.290  0.00  0.00    +0.000 C 
BRANCH  23  24
ATOM     24  C   UNL     1      45.576   5.747  10.709  0.00  0.00    +0.000 A 
ATOM     25  C   UNL     1      45.761   5.442   9.367  0.00  0.00    +0.000 A 
ATOM     26  S   UNL     1      45.020   3.985   8.884  0.00  0.00    +0.000 S 
ATOM     27  C   UNL     1      44.443   3.688  10.456  0.00  0.00    +0.000 A 
ATOM     28  N   UNL     1      43.686   2.591  10.727  0.00  0.00    +0.000 NA
ATOM     29  C   UNL     1      43.316   2.488  11.959  0.00  0.00    +0.000 A 
ATOM     30  N   UNL     1      43.643   3.378  12.949  0.00  0.00    +0.000 N 
ATOM     31  C   UNL     1      44.444   4.475  12.732  0.00  0.00    +0.000 A 
ATOM     32  O   UNL     1      44.823   5.181  13.662  0.00  0.00    +0.000 OA
ATOM     33  C   UNL     1      44.841   4.670  11.348  0.00  0.00    +0.000 A 
ATOM     34  H   UNL     1      43.365   3.210  13.905  0.00  0.00    +0.000 HD
ENDBRANCH  23  24
ENDBRANCH   1  23
TORSDOF 6
ENDMDL
MODEL 7
REMARK VINA RESULT:    -6.862      3.087      9.159
REMARK INTER + INTRA:         -10.334
REMARK INTER:                  -9.553
REMARK INTRA:                  -0.781
REMARK UNBOUND:                -1.065
REMARK  Name = 
REMARK  7 active torsions:
REMARK  status: ('A' for Active; 'I' for Inactive)
REMARK    1  A    between atoms: C_1  and  C_2
REMARK    2  A    between atoms: C_2  and  N_3
REMARK    3  A    between atoms: C_2  and  C_21
REMARK    4  A    between atoms: C_4  and  C_6
REMARK    5  A    between atoms: C_9  and  C_10
REMARK    6  A    between atoms: C_10  and  N_11
REMARK    7  A    between atoms: C_12  and  C_14
REMARK                            x       y       z     vdW  Elec       q    Type
REMARK                         _______ _______ _______ _____ _____    ______ ____
ROOT
ATOM      1  N   UNL     1      46.834   6.587  12.827  0.00  0.00    +0.000 N 
ATOM      2  C   UNL     1      48.056   7.229  12.852  0.00  0.00    +0.000 C 
ATOM      3  O   UNL     1      48.489   7.918  11.934  0.00  0.00    +0.000 OA
ATOM      4  H   UNL     1      46.443   6.333  13.729  0.00  0.00    +0.000 HD
ENDROOT
BRANCH   2   5
ATOM      5  C   UNL     1      48.861   7.061  14.098  0.00  0.00    +0.000 A 
ATOM      6  C   UNL     1      48.375   6.310  15.175  0.00  0.00    +0.000 A 
ATOM      7  C   UNL     1      49.164   6.123  16.317  0.00  0.00    +0.000 A 
ATOM      8  C   UNL     1      50.444   6.691  16.405  0.00  0.00    +0.000 A 
ATOM      9  C   UNL     1      50.933   7.423  15.313  0.00  0.00    +0.000 A 
ATOM     10  C   UNL     1      50.148   7.606  14.168  0.00  0.00    +0.000 A 
BRANCH   8  11
ATOM     11  C   UNL     1      51.288   6.489  17.639  0.00  0.00    +0.000 C 
BRANCH  11  12
ATOM     12  N   UNL     1      52.013   5.242  17.592  0.00  0.00    +0.000 N 
ATOM     13  C   UNL     1      51.526   4.112  18.209  0.00  0.00    +0.000 C 
ATOM     14  O   UNL     1      50.470   4.107  18.834  0.00  0.00    +0.000 OA
ATOM     15  H   UNL     1      52.855   5.194  17.042  0.00  0.00    +0.000 HD
BRANCH  13  16
ATOM     16  C   UNL     1      52.336   2.934  18.067  0.00  0.00    +0.000 A 
ATOM     17  C   UNL     1      53.684   2.731  17.819  0.00  0.00    +0.000 A 
ATOM     18  C   UNL     1      53.850   1.336  17.800  0.00  0.00    +0.000 A 
ATOM     19  N   UNL     1      52.707   0.687  18.018  0.00  0.00    +0.000 NA
ATOM     20  N   UNL     1      51.809   1.675  18.181  0.00  0.00    +0.000 N 
ATOM     21  H   UNL     1      50.838   1.435  18.370  0.00  0.00    +0.000 HD
ENDBRANCH  13  16
ENDBRANCH  11  12
ENDBRANCH   8  11
ENDBRANCH   2   5
BRANCH   1  23
ATOM     22  C   UNL     1      45.051   7.952  11.747  0.00  0.00    +0.000 C 
ATOM     23  C   UNL     1      45.925   6.693  11.703  0.00  0.00    +0.000 C 
BRANCH  23  24
ATOM     24  C   UNL     1      45.043   5.458  11.578  0.00  0.00    +0.000 A 
ATOM     25  C   UNL     1      44.239   5.032  12.628  0.00  0.00    +0.000 A 
ATOM     26  S   UNL     1      43.485   3.528  12.350  0.00  0.00    +0.000 S 
ATOM     27  C   UNL     1      44.182   3.397  10.805  0.00  0.00    +0.000 A 
ATOM     28  N   UNL     1      43.961   2.302  10.030  0.00  0.00    +0.000 NA
ATOM     29  C   UNL     1      44.550   2.331   8.882  0.00  0.00    +0.000 A 
ATOM     30  N   UNL     1      45.333   3.363   8.433  0.00  0.00    +0.000 N 
ATOM     31  C   UNL     1      45.546   4.511   9.162  0.00  0.00    +0.000 A 
ATOM     32  O   UNL     1      46.145   5.468   8.682  0.00  0.00    +0.000 OA
ATOM     33  C   UNL     1      44.953   4.503  10.488  0.00  0.00    +0.000 A 
ATOM     34  H   UNL     1      45.721   3.347   7.501  0.00  0.00    +0.000 HD
ENDBRANCH  23  24
ENDBRANCH   1  23
TORSDOF 6
ENDMDL
MODEL 8
REMARK VINA RESULT:    -5.677      3.730     10.045
REMARK INTER + INTRA:          -8.733
REMARK INTER:                  -7.642
REMARK INTRA:                  -1.091
REMARK UNBOUND:                -1.065
REMARK  Name = 
REMARK  7 active torsions:
REMARK  status: ('A' for Active; 'I' for Inactive)
REMARK    1  A    between atoms: C_1  and  C_2
REMARK    2  A    between atoms: C_2  and  N_3
REMARK    3  A    between atoms: C_2  and  C_21
REMARK    4  A    between atoms: C_4  and  C_6
REMARK    5  A    between atoms: C_9  and  C_10
REMARK    6  A    between atoms: C_10  and  N_11
REMARK    7  A    between atoms: C_12  and  C_14
REMARK                            x       y       z     vdW  Elec       q    Type
REMARK                         _______ _______ _______ _____ _____    ______ ____
ROOT
ATOM      1  N   UNL     1      46.804   6.728  12.665  0.00  0.00    +0.000 N 
ATOM      2  C   UNL     1      48.144   7.018  12.828  0.00  0.00    +0.000 C 
ATOM      3  O   UNL     1      48.853   7.503  11.953  0.00  0.00    +0.000 OA
ATOM      4  H   UNL     1      46.256   6.649  13.517  0.00  0.00    +0.000 HD
ENDROOT
BRANCH   2   5
ATOM      5  C   UNL     1      48.721   6.724  14.174  0.00  0.00    +0.000 A 
ATOM      6  C   UNL     1      49.889   7.359  14.612  0.00  0.00    +0.000 A 
ATOM      7  C   UNL     1      50.389   7.107  15.896  0.00  0.00    +0.000 A 
ATOM      8  C   UNL     1      49.736   6.211  16.757  0.00  0.00    +0.000 A 
ATOM      9  C   UNL     1      48.554   5.596  16.318  0.00  0.00    +0.000 A 
ATOM     10  C   UNL     1      48.050   5.851  15.037  0.00  0.00    +0.000 A 
BRANCH   8  11
ATOM     11  C   UNL     1      50.281   5.941  18.137  0.00  0.00    +0.000 C 
BRANCH  11  12
ATOM     12  N   UNL     1      51.131   7.014  18.595  0.00  0.00    +0.000 N 
ATOM     13  C   UNL     1      50.689   7.923  19.528  0.00  0.00    +0.000 C 
ATOM     14  O   UNL     1      49.559   7.880  20.006  0.00  0.00    +0.000 OA
ATOM     15  H   UNL     1      52.083   7.048  18.269  0.00  0.00    +0.000 HD
BRANCH  13  16
ATOM     16  C   UNL     1      51.644   8.926  19.913  0.00  0.00    +0.000 A 
ATOM     17  C   UNL     1      52.105   9.380  21.138  0.00  0.00    +0.000 A 
ATOM     18  C   UNL     1      53.042  10.381  20.832  0.00  0.00    +0.000 A 
ATOM     19  N   UNL     1      53.180  10.562  19.519  0.00  0.00    +0.000 NA
ATOM     20  N   UNL     1      52.329   9.668  18.987  0.00  0.00    +0.000 N 
ATOM     21  H   UNL     1      52.250   9.602  17.974  0.00  0.00    +0.000 HD
ENDBRANCH  13  16
ENDBRANCH  11  12
ENDBRANCH   8  11
ENDBRANCH   2   5
BRANCH   1  23
ATOM     22  C   UNL     1      44.903   7.942  11.610  0.00  0.00    +0.000 C 
ATOM     23  C   UNL     1      46.097   6.998  11.430  0.00  0.00    +0.000 C 
BRANCH  23  24
ATOM     24  C   UNL     1      45.638   5.711  10.754  0.00  0.00    +0.000 A 
ATOM     25  C   UNL     1      45.820   5.504   9.393  0.00  0.00    +0.000 A 
ATOM     26  S   UNL     1      45.064   4.092   8.806  0.00  0.00    +0.000 S 
ATOM     27  C   UNL     1      44.486   3.687  10.353  0.00  0.00    +0.000 A 
ATOM     28  N   UNL     1      43.718   2.581  10.544  0.00  0.00    +0.000 NA
ATOM     29  C   UNL     1      43.347   2.392  11.765  0.00  0.00    +0.000 A 
ATOM     30  N   UNL     1      43.683   3.205  12.818  0.00  0.00    +0.000 N 
ATOM     31  C   UNL     1      44.495   4.307  12.680  0.00  0.00    +0.000 A 
ATOM     32  O   UNL     1      44.881   4.940  13.659  0.00  0.00    +0.000 OA
ATOM     33  C   UNL     1      44.893   4.599  11.313  0.00  0.00    +0.000 A 
ATOM     34  H   UNL     1      43.403   2.971  13.759  0.00  0.00    +0.000 HD
ENDBRANCH  23  24
ENDBRANCH   1  23
TORSDOF 6
ENDMDL
MODEL 9
REMARK VINA RESULT:    -5.370      2.374      3.175
REMARK INTER + INTRA:          -8.319
REMARK INTER:                  -8.353
REMARK INTRA:                   0.034
REMARK UNBOUND:                -1.065
REMARK  Name = 
REMARK  7 active torsions:
REMARK  status: ('A' for Active; 'I' for Inactive)
REMARK    1  A    between atoms: C_1  and  C_2
REMARK    2  A    between atoms: C_2  and  N_3
REMARK    3  A    between atoms: C_2  and  C_21
REMARK    4  A    between atoms: C_4  and  C_6
REMARK    5  A    between atoms: C_9  and  C_10
REMARK    6  A    between atoms: C_10  and  N_11
REMARK    7  A    between atoms: C_12  and  C_14
REMARK                            x       y       z     vdW  Elec       q    Type
REMARK                         _______ _______ _______ _____ _____    ______ ____
ROOT
ATOM      1  N   UNL     1      49.120   6.712  15.203  0.00  0.00    +0.000 N 
ATOM      2  C   UNL     1      48.279   5.619  15.265  0.00  0.00    +0.000 C 
ATOM      3  O   UNL     1      48.270   4.811  16.187  0.00  0.00    +0.000 OA
ATOM      4  H   UNL     1      48.827   7.470  14.593  0.00  0.00    +0.000 HD
ENDROOT
BRANCH   2   5
ATOM      5  C   UNL     1      47.326   5.459  14.127  0.00  0.00    +0.000 A 
ATOM      6  C   UNL     1      47.186   6.457  13.157  0.00  0.00    +0.000 A 
ATOM      7  C   UNL     1      46.323   6.269  12.070  0.00  0.00    +0.000 A 
ATOM      8  C   UNL     1      45.579   5.087  11.942  0.00  0.00    +0.000 A 
ATOM      9  C   UNL     1      45.740   4.081  12.907  0.00  0.00    +0.000 A 
ATOM     10  C   UNL     1      46.608   4.265  13.991  0.00  0.00    +0.000 A 
BRANCH   8  11
ATOM     11  C   UNL     1      44.647   4.891  10.772  0.00  0.00    +0.000 C 
BRANCH  11  12
ATOM     12  N   UNL     1      45.121   3.860   9.879  0.00  0.00    +0.000 N 
ATOM     13  C   UNL     1      45.802   4.175   8.726  0.00  0.00    +0.000 C 
ATOM     14  O   UNL     1      46.031   5.335   8.393  0.00  0.00    +0.000 OA
ATOM     15  H   UNL     1      45.002   2.897  10.148  0.00  0.00    +0.000 HD
BRANCH  13  16
ATOM     16  C   UNL     1      46.236   3.054   7.940  0.00  0.00    +0.000 A 
ATOM     17  C   UNL     1      46.813   2.938   6.685  0.00  0.00    +0.000 A 
ATOM     18  C   UNL     1      47.000   1.559   6.490  0.00  0.00    +0.000 A 
ATOM     19  N   UNL     1      46.581   0.839   7.530  0.00  0.00    +0.000 NA
ATOM     20  N   UNL     1      46.130   1.765   8.394  0.00  0.00    +0.000 N 
ATOM     21  H   UNL     1      45.753   1.464   9.290  0.00  0.00    +0.000 HD
ENDBRANCH  13  16
ENDBRANCH  11  12
ENDBRANCH   8  11
ENDBRANCH   2   5
BRANCH   1  23
ATOM     22  C   UNL     1      50.569   5.782  17.005  0.00  0.00    +0.000 C 
ATOM     23  C   UNL     1      50.068   7.021  16.254  0.00  0.00    +0.000 C 
BRANCH  23  24
ATOM     24  C   UNL     1      49.497   8.027  17.246  0.00  0.00    +0.000 A 
ATOM     25  C   UNL     1      48.157   8.006  17.609  0.00  0.00    +0.000 A 
ATOM     26  S   UNL     1      47.684   9.331  18.574  0.00  0.00    +0.000 S 
ATOM     27  C   UNL     1      49.259   9.973  18.567  0.00  0.00    +0.000 A 
ATOM     28  N   UNL     1      49.538  11.144  19.199  0.00  0.00    +0.000 NA
ATOM     29  C   UNL     1      50.771  11.516  19.116  0.00  0.00    +0.000 A 
ATOM     30  N   UNL     1      51.755  10.816  18.465  0.00  0.00    +0.000 N 
ATOM     31  C   UNL     1      51.530   9.605  17.853  0.00  0.00    +0.000 A 
ATOM     32  O   UNL     1      52.455   8.943  17.392  0.00  0.00    +0.000 OA
ATOM     33  C   UNL     1      50.144   9.168  17.868  0.00  0.00    +0.000 A 
ATOM     34  H   UNL     1      52.712  11.136  18.484  0.00  0.00    +0.000 HD
ENDBRANCH  23  24
ENDBRANCH   1  23
TORSDOF 6
ENDMDL
