MODEL 1
REMARK VINA RESULT:    -9.114      0.000      0.000
REMARK INTER + INTRA:         -12.638
REMARK INTER:                 -11.778
REMARK INTRA:                  -0.860
REMARK UNBOUND:                -0.860
REMARK  Name = 
REMARK  5 active torsions:
REMARK  status: ('A' for Active; 'I' for Inactive)
REMARK    1  A    between atoms: C_7  and  C_8
REMARK    2  A    between atoms: N_10  and  C_11
REMARK    3  A    between atoms: C_11  and  C_12
REMARK    4  A    between atoms: C_15  and  C_16
REMARK    5  A    between atoms: C_16  and  N_17
REMARK                            x       y       z     vdW  Elec       q    Type
REMARK                         _______ _______ _______ _____ _____    ______ ____
ROOT
ATOM      1  C   UNL     1      48.486   6.691  14.291  0.00  0.00    +0.000 C 
ATOM      2  O   UNL     1      49.176   6.646  13.269  0.00  0.00    +0.000 OA
ATOM      3  N   UNL     1      47.171   7.079  14.269  0.00  0.00    +0.000 N 
ATOM      4  H   UNL     1      46.621   7.056  15.121  0.00  0.00    +0.000 HD
ENDROOT
BRANCH   1  11
ATOM      5  N   UNL     1      48.359   3.164  20.020  0.00  0.00    +0.000 N 
ATOM      6  C   UNL     1      48.513   3.921  18.903  0.00  0.00    +0.000 A 
ATOM      7  N   UNL     1      49.478   4.795  18.830  0.00  0.00    +0.000 NA
ATOM      8  C   UNL     1      49.505   5.482  17.664  0.00  0.00    +0.000 A 
ATOM      9  N   UNL     1      50.433   6.437  17.380  0.00  0.00    +0.000 N 
ATOM     10  C   UNL     1      50.170   6.954  16.137  0.00  0.00    +0.000 A 
ATOM     11  C   UNL     1      49.048   6.327  15.598  0.00  0.00    +0.000 A 
ATOM     12  C   UNL     1      48.659   5.365  16.582  0.00  0.00    +0.000 A 
ATOM     13  C   UNL     1      47.626   4.365  16.674  0.00  0.00    +0.000 A 
ATOM     14  O   UNL     1      46.844   4.099  15.766  0.00  0.00    +0.000 OA
ATOM     15  N   UNL     1      47.604   3.709  17.891  0.00  0.00    +0.000 N 
ATOM     16  H   UNL     1      48.896   3.521  20.804  0.00  0.00    +0.000 HD
ATOM     17  H   UNL     1      47.418   2.896  20.274  0.00  0.00    +0.000 HD
ATOM     18  H   UNL     1      51.182   6.710  17.999  0.00  0.00    +0.000 HD
ATOM     19  H   UNL     1      46.917   2.980  17.982  0.00  0.00    +0.000 HD
ENDBRANCH   1  11
BRANCH   3  20
ATOM     20  C   UNL     1      46.497   7.480  13.049  0.00  0.00    +0.000 C 
BRANCH  20  21
ATOM     21  C   UNL     1      45.920   6.311  12.284  0.00  0.00    +0.000 A 
ATOM     22  C   UNL     1      45.359   5.225  12.969  0.00  0.00    +0.000 A 
ATOM     23  C   UNL     1      44.845   4.125  12.273  0.00  0.00    +0.000 A 
ATOM     24  C   UNL     1      44.883   4.085  10.872  0.00  0.00    +0.000 A 
ATOM     25  C   UNL     1      45.410   5.184  10.183  0.00  0.00    +0.000 A 
ATOM     26  C   UNL     1      45.933   6.281  10.882  0.00  0.00    +0.000 A 
BRANCH  24  27
ATOM     27  C   UNL     1      44.392   2.861  10.132  0.00  0.00    +0.000 C 
BRANCH  27  28
ATOM     28  N   UNL     1      44.295   3.121   8.709  0.00  0.00    +0.000 N 
ATOM     29  C   UNL     1      45.365   2.601   7.991  0.00  0.00    +0.000 A 
ATOM     30  N   UNL     1      45.965   1.473   8.407  0.00  0.00    +0.000 NA
ATOM     31  C   UNL     1      47.016   1.031   7.697  0.00  0.00    +0.000 A 
ATOM     32  C   UNL     1      47.496   1.668   6.583  0.00  0.00    +0.000 A 
ATOM     33  C   UNL     1      46.813   2.805   6.227  0.00  0.00    +0.000 A 
ATOM     34  N   UNL     1      45.758   3.292   6.914  0.00  0.00    +0.000 NA
ATOM     35  H   UNL     1      44.217   4.098   8.451  0.00  0.00    +0.000 HD
ENDBRANCH  27  28
ENDBRANCH  24  27
ENDBRANCH  20  21
ENDBRANCH   3  20
TORSDOF 5
ENDMDL
MODEL 2
REMARK VINA RESULT:    -8.241      2.229      2.655
REMARK INTER + INTRA:         -11.510
REMARK INTER:                 -10.647
REMARK INTRA:                  -0.863
REMARK UNBOUND:                -0.860
REMARK  Name = 
REMARK  5 active torsions:
REMARK  status: ('A' for Active; 'I' for Inactive)
REMARK    1  A    between atoms: C_7  and  C_8
REMARK    2  A    between atoms: N_10  and  C_11
REMARK    3  A    between atoms: C_11  and  C_12
REMARK    4  A    between atoms: C_15  and  C_16
REMARK    5  A    between atoms: C_16  and  N_17
REMARK                            x       y       z     vdW  Elec       q    Type
REMARK                         _______ _______ _______ _____ _____    ______ ____
ROOT
ATOM      1  C   UNL     1      49.213   6.137  16.614  0.00  0.00    +0.000 C 
ATOM      2  O   UNL     1      48.344   6.558  17.381  0.00  0.00    +0.000 OA
ATOM      3  N   UNL     1      49.206   6.426  15.273  0.00  0.00    +0.000 N 
ATOM      4  H   UNL     1      49.964   6.103  14.680  0.00  0.00    +0.000 HD
ENDROOT
BRANCH   1  11
ATOM      5  N   UNL     1      51.869   0.131  18.082  0.00  0.00    +0.000 N 
ATOM      6  C   UNL     1      51.461   1.398  17.811  0.00  0.00    +0.000 A 
ATOM      7  N   UNL     1      52.219   2.412  18.122  0.00  0.00    +0.000 NA
ATOM      8  C   UNL     1      51.683   3.613  17.801  0.00  0.00    +0.000 A 
ATOM      9  N   UNL     1      52.309   4.799  18.035  0.00  0.00    +0.000 N 
ATOM     10  C   UNL     1      51.494   5.820  17.618  0.00  0.00    +0.000 A 
ATOM     11  C   UNL     1      50.310   5.293  17.104  0.00  0.00    +0.000 A 
ATOM     12  C   UNL     1      50.468   3.875  17.202  0.00  0.00    +0.000 A 
ATOM     13  C   UNL     1      49.669   2.735  16.835  0.00  0.00    +0.000 A 
ATOM     14  O   UNL     1      48.601   2.809  16.235  0.00  0.00    +0.000 OA
ATOM     15  N   UNL     1      50.229   1.527  17.210  0.00  0.00    +0.000 N 
ATOM     16  H   UNL     1      52.655   0.109  18.723  0.00  0.00    +0.000 HD
ATOM     17  H   UNL     1      51.156  -0.549  18.307  0.00  0.00    +0.000 HD
ATOM     18  H   UNL     1      53.223   4.891  18.453  0.00  0.00    +0.000 HD
ATOM     19  H   UNL     1      49.716   0.705  16.941  0.00  0.00    +0.000 HD
ENDBRANCH   1  11
BRANCH   3  20
ATOM     20  C   UNL     1      48.172   7.233  14.655  0.00  0.00    +0.000 C 
BRANCH  20  21
ATOM     21  C   UNL     1      47.269   6.435  13.744  0.00  0.00    +0.000 A 
ATOM     22  C   UNL     1      46.709   7.030  12.605  0.00  0.00    +0.000 A 
ATOM     23  C   UNL     1      45.850   6.309  11.767  0.00  0.00    +0.000 A 
ATOM     24  C   UNL     1      45.529   4.974  12.050  0.00  0.00    +0.000 A 
ATOM     25  C   UNL     1      46.115   4.366  13.167  0.00  0.00    +0.000 A 
ATOM     26  C   UNL     1      46.967   5.092  14.011  0.00  0.00    +0.000 A 
BRANCH  24  27
ATOM     27  C   UNL     1      44.543   4.227  11.180  0.00  0.00    +0.000 C 
BRANCH  27  28
ATOM     28  N   UNL     1      44.578   4.720   9.818  0.00  0.00    +0.000 N 
ATOM     29  C   UNL     1      45.277   3.881   8.958  0.00  0.00    +0.000 A 
ATOM     30  N   UNL     1      45.277   2.554   9.171  0.00  0.00    +0.000 NA
ATOM     31  C   UNL     1      45.995   1.790   8.331  0.00  0.00    +0.000 A 
ATOM     32  C   UNL     1      46.718   2.296   7.282  0.00  0.00    +0.000 A 
ATOM     33  C   UNL     1      46.649   3.660   7.137  0.00  0.00    +0.000 A 
ATOM     34  N   UNL     1      45.949   4.468   7.959  0.00  0.00    +0.000 NA
ATOM     35  H   UNL     1      44.969   5.648   9.702  0.00  0.00    +0.000 HD
ENDBRANCH  27  28
ENDBRANCH  24  27
ENDBRANCH  20  21
ENDBRANCH   3  20
TORSDOF 5
ENDMDL
MODEL 3
REMARK VINA RESULT:    -8.025      1.675      1.876
REMARK INTER + INTRA:         -11.230
REMARK INTER:                 -10.259
REMARK INTRA:                  -0.971
REMARK UNBOUND:                -0.860
REMARK  Name = 
REMARK  5 active torsions:
REMARK  status: ('A' for Active; 'I' for Inactive)
REMARK    1  A    between atoms: C_7  and  C_8
REMARK    2  A    between atoms: N_10  and  C_11
REMARK    3  A    between atoms: C_11  and  C_12
REMARK    4  A    between atoms: C_15  and  C_16
REMARK    5  A    between atoms: C_16  and  N_17
REMARK                            x       y       z     vdW  Elec       q    Type
REMARK                         _______ _______ _______ _____ _____    ______ ____
ROOT
ATOM      1  C   UNL     1      48.535   7.920  15.428  0.00  0.00    +0.000 C 
ATOM      2  O   UNL     1      47.951   8.911  14.982  0.00  0.00    +0.000 OA
ATOM      3  N   UNL     1      49.063   6.954  14.610  0.00  0.00    +0.000 N 
ATOM      4  H   UNL     1      49.580   6.178  15.009  0.00  0.00    +0.000 HD
ENDROOT
BRANCH   1  11
ATOM      5  N   UNL     1      48.655   4.000  20.895  0.00  0.00    +0.000 N 
ATOM      6  C   UNL     1      48.677   4.896  19.875  0.00  0.00    +0.000 A 
ATOM      7  N   UNL     1      48.821   6.168  20.122  0.00  0.00    +0.000 NA
ATOM      8  C   UNL     1      48.817   6.943  19.012  0.00  0.00    +0.000 A 
ATOM      9  N   UNL     1      48.959   8.297  19.044  0.00  0.00    +0.000 N 
ATOM     10  C   UNL     1      48.888   8.780  17.762  0.00  0.00    +0.000 A 
ATOM     11  C   UNL     1      48.694   7.723  16.874  0.00  0.00    +0.000 A 
ATOM     12  C   UNL     1      48.685   6.552  17.696  0.00  0.00    +0.000 A 
ATOM     13  C   UNL     1      48.566   5.138  17.449  0.00  0.00    +0.000 A 
ATOM     14  O   UNL     1      48.510   4.637  16.330  0.00  0.00    +0.000 OA
ATOM     15  N   UNL     1      48.536   4.380  18.606  0.00  0.00    +0.000 N 
ATOM     16  H   UNL     1      48.527   4.447  21.797  0.00  0.00    +0.000 HD
ATOM     17  H   UNL     1      48.082   3.175  20.778  0.00  0.00    +0.000 HD
ATOM     18  H   UNL     1      49.088   8.839  19.885  0.00  0.00    +0.000 HD
ATOM     19  H   UNL     1      48.487   3.384  18.474  0.00  0.00    +0.000 HD
ENDBRANCH   1  11
BRANCH   3  20
ATOM     20  C   UNL     1      48.962   7.016  13.164  0.00  0.00    +0.000 C 
BRANCH  20  21
ATOM     21  C   UNL     1      47.676   6.423  12.638  0.00  0.00    +0.000 A 
ATOM     22  C   UNL     1      47.152   5.254  13.207  0.00  0.00    +0.000 A 
ATOM     23  C   UNL     1      45.975   4.681  12.712  0.00  0.00    +0.000 A 
ATOM     24  C   UNL     1      45.295   5.262  11.633  0.00  0.00    +0.000 A 
ATOM     25  C   UNL     1      45.796   6.450  11.086  0.00  0.00    +0.000 A 
ATOM     26  C   UNL     1      46.980   7.018  11.577  0.00  0.00    +0.000 A 
BRANCH  24  27
ATOM     27  C   UNL     1      44.066   4.595  11.059  0.00  0.00    +0.000 C 
BRANCH  27  28
ATOM     28  N   UNL     1      44.005   4.773   9.622  0.00  0.00    +0.000 N 
ATOM     29  C   UNL     1      44.775   3.845   8.930  0.00  0.00    +0.000 A 
ATOM     30  N   UNL     1      44.940   2.608   9.427  0.00  0.00    +0.000 NA
ATOM     31  C   UNL     1      45.722   1.761   8.738  0.00  0.00    +0.000 A 
ATOM     32  C   UNL     1      46.350   2.097   7.567  0.00  0.00    +0.000 A 
ATOM     33  C   UNL     1      46.115   3.378   7.131  0.00  0.00    +0.000 A 
ATOM     34  N   UNL     1      45.345   4.266   7.793  0.00  0.00    +0.000 NA
ATOM     35  H   UNL     1      44.278   5.688   9.285  0.00  0.00    +0.000 HD
ENDBRANCH  27  28
ENDBRANCH  24  27
ENDBRANCH  20  21
ENDBRANCH   3  20
TORSDOF 5
ENDMDL
MODEL 4
REMARK VINA RESULT:    -7.813      2.377      9.146
REMARK INTER + INTRA:         -10.957
REMARK INTER:                 -10.243
REMARK INTRA:                  -0.713
REMARK UNBOUND:                -0.860
REMARK  Name = 
REMARK  5 active torsions:
REMARK  status: ('A' for Active; 'I' for Inactive)
REMARK    1  A    between atoms: C_7  and  C_8
REMARK    2  A    between atoms: N_10  and  C_11
REMARK    3  A    between atoms: C_11  and  C_12
REMARK    4  A    between atoms: C_15  and  C_16
REMARK    5  A    between atoms: C_16  and  N_17
REMARK                            x       y       z     vdW  Elec       q    Type
REMARK                         _______ _______ _______ _____ _____    ______ ____
ROOT
ATOM      1  C   UNL     1      44.112   4.090  10.467  0.00  0.00    +0.000 C 
ATOM      2  O   UNL     1      43.016   3.857  10.984  0.00  0.00    +0.000 OA
ATOM      3  N   UNL     1      44.786   5.266  10.681  0.00  0.00    +0.000 N 
ATOM      4  H   UNL     1      45.707   5.403  10.279  0.00  0.00    +0.000 HD
ENDROOT
BRANCH   1  11
ATOM      5  N   UNL     1      48.210   2.490   5.376  0.00  0.00    +0.000 N 
ATOM      6  C   UNL     1      47.374   2.674   6.429  0.00  0.00    +0.000 A 
ATOM      7  N   UNL     1      46.741   1.660   6.951  0.00  0.00    +0.000 NA
ATOM      8  C   UNL     1      45.938   1.992   7.988  0.00  0.00    +0.000 A 
ATOM      9  N   UNL     1      45.191   1.085   8.677  0.00  0.00    +0.000 N 
ATOM     10  C   UNL     1      44.475   1.744   9.643  0.00  0.00    +0.000 A 
ATOM     11  C   UNL     1      44.756   3.108   9.585  0.00  0.00    +0.000 A 
ATOM     12  C   UNL     1      45.721   3.238   8.537  0.00  0.00    +0.000 A 
ATOM     13  C   UNL     1      46.461   4.334   7.967  0.00  0.00    +0.000 A 
ATOM     14  O   UNL     1      46.425   5.484   8.394  0.00  0.00    +0.000 OA
ATOM     15  N   UNL     1      47.243   3.966   6.887  0.00  0.00    +0.000 N 
ATOM     16  H   UNL     1      48.087   1.581   4.941  0.00  0.00    +0.000 HD
ATOM     17  H   UNL     1      48.286   3.243   4.705  0.00  0.00    +0.000 HD
ATOM     18  H   UNL     1      45.177   0.094   8.488  0.00  0.00    +0.000 HD
ATOM     19  H   UNL     1      47.802   4.698   6.483  0.00  0.00    +0.000 HD
ENDBRANCH   1  11
BRANCH   3  20
ATOM     20  C   UNL     1      44.256   6.327  11.515  0.00  0.00    +0.000 C 
BRANCH  20  21
ATOM     21  C   UNL     1      45.325   7.038  12.311  0.00  0.00    +0.000 A 
ATOM     22  C   UNL     1      46.408   6.323  12.839  0.00  0.00    +0.000 A 
ATOM     23  C   UNL     1      47.391   6.966  13.599  0.00  0.00    +0.000 A 
ATOM     24  C   UNL     1      47.313   8.343  13.853  0.00  0.00    +0.000 A 
ATOM     25  C   UNL     1      46.251   9.067  13.297  0.00  0.00    +0.000 A 
ATOM     26  C   UNL     1      45.262   8.420  12.543  0.00  0.00    +0.000 A 
BRANCH  24  27
ATOM     27  C   UNL     1      48.339   9.014  14.737  0.00  0.00    +0.000 C 
BRANCH  27  28
ATOM     28  N   UNL     1      48.169   8.618  16.120  0.00  0.00    +0.000 N 
ATOM     29  C   UNL     1      49.045   7.608  16.504  0.00  0.00    +0.000 A 
ATOM     30  N   UNL     1      50.267   7.537  15.951  0.00  0.00    +0.000 NA
ATOM     31  C   UNL     1      51.062   6.523  16.330  0.00  0.00    +0.000 A 
ATOM     32  C   UNL     1      50.688   5.572  17.243  0.00  0.00    +0.000 A 
ATOM     33  C   UNL     1      49.427   5.732  17.762  0.00  0.00    +0.000 A 
ATOM     34  N   UNL     1      48.590   6.729  17.405  0.00  0.00    +0.000 NA
ATOM     35  H   UNL     1      47.238   8.307  16.372  0.00  0.00    +0.000 HD
ENDBRANCH  27  28
ENDBRANCH  24  27
ENDBRANCH  20  21
ENDBRANCH   3  20
TORSDOF 5
ENDMDL
MODEL 5
REMARK VINA RESULT:    -7.664      3.395      8.587
REMARK INTER + INTRA:         -10.764
REMARK INTER:                 -10.076
REMARK INTRA:                  -0.688
REMARK UNBOUND:                -0.860
REMARK  Name = 
REMARK  5 active torsions:
REMARK  status: ('A' for Active; 'I' for Inactive)
REMARK    1  A    between atoms: C_7  and  C_8
REMARK    2  A    between atoms: N_10  and  C_11
REMARK    3  A    between atoms: C_11  and  C_12
REMARK    4  A    between atoms: C_15  and  C_16
REMARK    5  A    between atoms: C_16  and  N_17
REMARK                            x       y       z     vdW  Elec       q    Type
REMARK                         _______ _______ _______ _____ _____    ______ ____
ROOT
ATOM      1  C   UNL     1      47.877   6.824  13.571  0.00  0.00    +0.000 C 
ATOM      2  O   UNL     1      48.880   6.503  12.928  0.00  0.00    +0.000 OA
ATOM      3  N   UNL     1      47.952   7.581  14.713  0.00  0.00    +0.000 N 
ATOM      4  H   UNL     1      47.103   7.868  15.188  0.00  0.00    +0.000 HD
ENDROOT
BRANCH   1  11
ATOM      5  N   UNL     1      43.392   2.084  11.932  0.00  0.00    +0.000 N 
ATOM      6  C   UNL     1      44.190   3.133  12.256  0.00  0.00    +0.000 A 
ATOM      7  N   UNL     1      43.758   4.355  12.115  0.00  0.00    +0.000 NA
ATOM      8  C   UNL     1      44.662   5.298  12.468  0.00  0.00    +0.000 A 
ATOM      9  N   UNL     1      44.413   6.635  12.402  0.00  0.00    +0.000 N 
ATOM     10  C   UNL     1      45.534   7.315  12.806  0.00  0.00    +0.000 A 
ATOM     11  C   UNL     1      46.537   6.406  13.141  0.00  0.00    +0.000 A 
ATOM     12  C   UNL     1      45.943   5.119  12.947  0.00  0.00    +0.000 A 
ATOM     13  C   UNL     1      46.381   3.759  13.130  0.00  0.00    +0.000 A 
ATOM     14  O   UNL     1      47.465   3.445  13.611  0.00  0.00    +0.000 OA
ATOM     15  N   UNL     1      45.447   2.823  12.724  0.00  0.00    +0.000 N 
ATOM     16  H   UNL     1      42.587   2.368  11.383  0.00  0.00    +0.000 HD
ATOM     17  H   UNL     1      43.840   1.251  11.575  0.00  0.00    +0.000 HD
ATOM     18  H   UNL     1      43.541   7.041  12.098  0.00  0.00    +0.000 HD
ATOM     19  H   UNL     1      45.703   1.861  12.867  0.00  0.00    +0.000 HD
ENDBRANCH   1  11
BRANCH   3  20
ATOM     20  C   UNL     1      49.213   8.047  15.258  0.00  0.00    +0.000 C 
BRANCH  20  21
ATOM     21  C   UNL     1      49.952   6.977  16.027  0.00  0.00    +0.000 A 
ATOM     22  C   UNL     1      49.243   5.962  16.684  0.00  0.00    +0.000 A 
ATOM     23  C   UNL     1      49.915   4.979  17.421  0.00  0.00    +0.000 A 
ATOM     24  C   UNL     1      51.314   4.991  17.520  0.00  0.00    +0.000 A 
ATOM     25  C   UNL     1      52.026   5.983  16.836  0.00  0.00    +0.000 A 
ATOM     26  C   UNL     1      51.352   6.972  16.106  0.00  0.00    +0.000 A 
BRANCH  24  27
ATOM     27  C   UNL     1      52.025   3.970  18.379  0.00  0.00    +0.000 C 
BRANCH  27  28
ATOM     28  N   UNL     1      51.695   2.622  17.960  0.00  0.00    +0.000 N 
ATOM     29  C   UNL     1      52.772   1.748  18.053  0.00  0.00    +0.000 A 
ATOM     30  N   UNL     1      53.695   1.924  19.014  0.00  0.00    +0.000 NA
ATOM     31  C   UNL     1      54.734   1.073  19.040  0.00  0.00    +0.000 A 
ATOM     32  C   UNL     1      54.893   0.049  18.144  0.00  0.00    +0.000 A 
ATOM     33  C   UNL     1      53.895  -0.060  17.206  0.00  0.00    +0.000 A 
ATOM     34  N   UNL     1      52.838   0.776  17.136  0.00  0.00    +0.000 NA
ATOM     35  H   UNL     1      51.331   2.537  17.018  0.00  0.00    +0.000 HD
ENDBRANCH  27  28
ENDBRANCH  24  27
ENDBRANCH  20  21
ENDBRANCH   3  20
TORSDOF 5
ENDMDL
MODEL 6
REMARK VINA RESULT:    -7.570      3.109      8.335
REMARK INTER + INTRA:         -10.642
REMARK INTER:                  -9.775
REMARK INTRA:                  -0.867
REMARK UNBOUND:                -0.860
REMARK  Name = 
REMARK  5 active torsions:
REMARK  status: ('A' for Active; 'I' for Inactive)
REMARK    1  A    between atoms: C_7  and  C_8
REMARK    2  A    between atoms: N_10  and  C_11
REMARK    3  A    between atoms: C_11  and  C_12
REMARK    4  A    between atoms: C_15  and  C_16
REMARK    5  A    between atoms: C_16  and  N_17
REMARK                            x       y       z     vdW  Elec       q    Type
REMARK                         _______ _______ _______ _____ _____    ______ ____
ROOT
ATOM      1  C   UNL     1      46.150   7.602  12.648  0.00  0.00    +0.000 C 
ATOM      2  O   UNL     1      45.924   8.683  13.198  0.00  0.00    +0.000 OA
ATOM      3  N   UNL     1      47.422   7.111  12.495  0.00  0.00    +0.000 N 
ATOM      4  H   UNL     1      47.566   6.196  12.082  0.00  0.00    +0.000 HD
ENDROOT
BRANCH   1  11
ATOM      5  N   UNL     1      43.174   1.653  11.633  0.00  0.00    +0.000 N 
ATOM      6  C   UNL     1      43.656   2.913  11.787  0.00  0.00    +0.000 A 
ATOM      7  N   UNL     1      43.041   3.923  11.238  0.00  0.00    +0.000 NA
ATOM      8  C   UNL     1      43.638   5.116  11.468  0.00  0.00    +0.000 A 
ATOM      9  N   UNL     1      43.158   6.297  10.991  0.00  0.00    +0.000 N 
ATOM     10  C   UNL     1      44.001   7.307  11.379  0.00  0.00    +0.000 A 
ATOM     11  C   UNL     1      45.054   6.777  12.123  0.00  0.00    +0.000 A 
ATOM     12  C   UNL     1      44.782   5.375  12.194  0.00  0.00    +0.000 A 
ATOM     13  C   UNL     1      45.419   4.246  12.822  0.00  0.00    +0.000 A 
ATOM     14  O   UNL     1      46.401   4.330  13.553  0.00  0.00    +0.000 OA
ATOM     15  N   UNL     1      44.805   3.040  12.535  0.00  0.00    +0.000 N 
ATOM     16  H   UNL     1      42.480   1.595  10.894  0.00  0.00    +0.000 HD
ATOM     17  H   UNL     1      43.845   0.898  11.605  0.00  0.00    +0.000 HD
ATOM     18  H   UNL     1      42.319   6.393  10.437  0.00  0.00    +0.000 HD
ATOM     19  H   UNL     1      45.201   2.231  12.983  0.00  0.00    +0.000 HD
ENDBRANCH   1  11
BRANCH   3  20
ATOM     20  C   UNL     1      48.595   7.831  12.952  0.00  0.00    +0.000 C 
BRANCH  20  21
ATOM     21  C   UNL     1      49.132   7.307  14.264  0.00  0.00    +0.000 A 
ATOM     22  C   UNL     1      50.433   7.630  14.674  0.00  0.00    +0.000 A 
ATOM     23  C   UNL     1      50.951   7.131  15.874  0.00  0.00    +0.000 A 
ATOM     24  C   UNL     1      50.181   6.292  16.692  0.00  0.00    +0.000 A 
ATOM     25  C   UNL     1      48.869   5.997  16.303  0.00  0.00    +0.000 A 
ATOM     26  C   UNL     1      48.354   6.490  15.096  0.00  0.00    +0.000 A 
BRANCH  24  27
ATOM     27  C   UNL     1      50.776   5.698  17.949  0.00  0.00    +0.000 C 
BRANCH  27  28
ATOM     28  N   UNL     1      52.066   5.097  17.677  0.00  0.00    +0.000 N 
ATOM     29  C   UNL     1      52.018   3.708  17.644  0.00  0.00    +0.000 A 
ATOM     30  N   UNL     1      50.906   3.087  17.217  0.00  0.00    +0.000 NA
ATOM     31  C   UNL     1      50.898   1.743  17.237  0.00  0.00    +0.000 A 
ATOM     32  C   UNL     1      51.958   0.989  17.668  0.00  0.00    +0.000 A 
ATOM     33  C   UNL     1      53.054   1.711  18.075  0.00  0.00    +0.000 A 
ATOM     34  N   UNL     1      53.104   3.059  18.081  0.00  0.00    +0.000 NA
ATOM     35  H   UNL     1      52.807   5.348  18.320  0.00  0.00    +0.000 HD
ENDBRANCH  27  28
ENDBRANCH  24  27
ENDBRANCH  20  21
ENDBRANCH   3  20
TORSDOF 5
ENDMDL
MODEL 7
REMARK VINA RESULT:    -7.463      3.187      3.667
REMARK INTER + INTRA:         -10.505
REMARK INTER:                  -9.869
REMARK INTRA:                  -0.636
REMARK UNBOUND:                -0.860
REMARK  Name = 
REMARK  5 active torsions:
REMARK  status: ('A' for Active; 'I' for Inactive)
REMARK    1  A    between atoms: C_7  and  C_8
REMARK    2  A    between atoms: N_10  and  C_11
REMARK    3  A    between atoms: C_11  and  C_12
REMARK    4  A    between atoms: C_15  and  C_16
REMARK    5  A    between atoms: C_16  and  N_17
REMARK                            x       y       z     vdW  Elec       q    Type
REMARK                         _______ _______ _______ _____ _____    ______ ____
ROOT
ATOM      1  C   UNL     1      48.610   7.293  16.014  0.00  0.00    +0.000 C 
ATOM      2  O   UNL     1      49.237   6.440  16.648  0.00  0.00    +0.000 OA
ATOM      3  N   UNL     1      48.060   7.033  14.785  0.00  0.00    +0.000 N 
ATOM      4  H   UNL     1      47.509   7.743  14.315  0.00  0.00    +0.000 HD
ENDROOT
BRANCH   1  11
ATOM      5  N   UNL     1      46.637  11.516  20.867  0.00  0.00    +0.000 N 
ATOM      6  C   UNL     1      47.088  10.777  19.821  0.00  0.00    +0.000 A 
ATOM      7  N   UNL     1      47.496  11.363  18.730  0.00  0.00    +0.000 NA
ATOM      8  C   UNL     1      47.910  10.503  17.771  0.00  0.00    +0.000 A 
ATOM      9  N   UNL     1      48.378  10.906  16.557  0.00  0.00    +0.000 N 
ATOM     10  C   UNL     1      48.691   9.796  15.813  0.00  0.00    +0.000 A 
ATOM     11  C   UNL     1      48.420   8.646  16.552  0.00  0.00    +0.000 A 
ATOM     12  C   UNL     1      47.951   9.126  17.816  0.00  0.00    +0.000 A 
ATOM     13  C   UNL     1      47.532   8.506  19.046  0.00  0.00    +0.000 A 
ATOM     14  O   UNL     1      47.579   7.298  19.259  0.00  0.00    +0.000 OA
ATOM     15  N   UNL     1      47.080   9.411  19.990  0.00  0.00    +0.000 N 
ATOM     16  H   UNL     1      46.446  12.478  20.604  0.00  0.00    +0.000 HD
ATOM     17  H   UNL     1      45.910  11.112  21.443  0.00  0.00    +0.000 HD
ATOM     18  H   UNL     1      48.469  11.869  16.268  0.00  0.00    +0.000 HD
ATOM     19  H   UNL     1      46.810   9.019  20.876  0.00  0.00    +0.000 HD
ENDBRANCH   1  11
BRANCH   3  20
ATOM     20  C   UNL     1      48.187   5.745  14.131  0.00  0.00    +0.000 C 
BRANCH  20  21
ATOM     21  C   UNL     1      47.026   5.432  13.216  0.00  0.00    +0.000 A 
ATOM     22  C   UNL     1      46.362   4.202  13.311  0.00  0.00    +0.000 A 
ATOM     23  C   UNL     1      45.301   3.891  12.452  0.00  0.00    +0.000 A 
ATOM     24  C   UNL     1      44.882   4.804  11.473  0.00  0.00    +0.000 A 
ATOM     25  C   UNL     1      45.520   6.048  11.400  0.00  0.00    +0.000 A 
ATOM     26  C   UNL     1      46.588   6.355  12.255  0.00  0.00    +0.000 A 
BRANCH  24  27
ATOM     27  C   UNL     1      43.785   4.429  10.502  0.00  0.00    +0.000 C 
BRANCH  27  28
ATOM     28  N   UNL     1      44.165   4.755   9.142  0.00  0.00    +0.000 N 
ATOM     29  C   UNL     1      45.021   3.814   8.581  0.00  0.00    +0.000 A 
ATOM     30  N   UNL     1      44.924   2.523   8.939  0.00  0.00    +0.000 NA
ATOM     31  C   UNL     1      45.797   1.659   8.395  0.00  0.00    +0.000 A 
ATOM     32  C   UNL     1      46.768   2.031   7.502  0.00  0.00    +0.000 A 
ATOM     33  C   UNL     1      46.784   3.368   7.188  0.00  0.00    +0.000 A 
ATOM     34  N   UNL     1      45.934   4.273   7.716  0.00  0.00    +0.000 NA
ATOM     35  H   UNL     1      44.604   5.659   9.018  0.00  0.00    +0.000 HD
ENDBRANCH  27  28
ENDBRANCH  24  27
ENDBRANCH  20  21
ENDBRANCH   3  20
TORSDOF 5
ENDMDL
MODEL 8
REMARK VINA RESULT:    -7.300      2.897      4.792
REMARK INTER + INTRA:         -10.293
REMARK INTER:                  -9.293
REMARK INTRA:                  -1.001
REMARK UNBOUND:                -0.860
REMARK  Name = 
REMARK  5 active torsions:
REMARK  status: ('A' for Active; 'I' for Inactive)
REMARK    1  A    between atoms: C_7  and  C_8
REMARK    2  A    between atoms: N_10  and  C_11
REMARK    3  A    between atoms: C_11  and  C_12
REMARK    4  A    between atoms: C_15  and  C_16
REMARK    5  A    between atoms: C_16  and  N_17
REMARK                            x       y       z     vdW  Elec       q    Type
REMARK                         _______ _______ _______ _____ _____    ______ ____
ROOT
ATOM      1  C   UNL     1      49.362   6.985  15.057  0.00  0.00    +0.000 C 
ATOM      2  O   UNL     1      49.854   6.313  15.967  0.00  0.00    +0.000 OA
ATOM      3  N   UNL     1      48.223   6.599  14.396  0.00  0.00    +0.000 N 
ATOM      4  H   UNL     1      47.819   7.201  13.687  0.00  0.00    +0.000 HD
ENDROOT
BRANCH   1  11
ATOM      5  N   UNL     1      51.309  11.314  10.287  0.00  0.00    +0.000 N 
ATOM      6  C   UNL     1      50.950  10.541  11.344  0.00  0.00    +0.000 A 
ATOM      7  N   UNL     1      51.280  10.891  12.556  0.00  0.00    +0.000 NA
ATOM      8  C   UNL     1      50.863  10.023  13.507  0.00  0.00    +0.000 A 
ATOM      9  N   UNL     1      51.097  10.200  14.837  0.00  0.00    +0.000 N 
ATOM     10  C   UNL     1      50.569   9.138  15.526  0.00  0.00    +0.000 A 
ATOM     11  C   UNL     1      49.979   8.247  14.630  0.00  0.00    +0.000 A 
ATOM     12  C   UNL     1      50.152   8.852  13.346  0.00  0.00    +0.000 A 
ATOM     13  C   UNL     1      49.768   8.509  12.001  0.00  0.00    +0.000 A 
ATOM     14  O   UNL     1      49.077   7.537  11.710  0.00  0.00    +0.000 OA
ATOM     15  N   UNL     1      50.242   9.397  11.051  0.00  0.00    +0.000 N 
ATOM     16  H   UNL     1      52.015  12.000  10.535  0.00  0.00    +0.000 HD
ATOM     17  H   UNL     1      51.502  10.845   9.412  0.00  0.00    +0.000 HD
ATOM     18  H   UNL     1      51.587  10.990  15.232  0.00  0.00    +0.000 HD
ATOM     19  H   UNL     1      49.966   9.209  10.102  0.00  0.00    +0.000 HD
ENDBRANCH   1  11
BRANCH   3  20
ATOM     20  C   UNL     1      47.522   5.368  14.706  0.00  0.00    +0.000 C 
BRANCH  20  21
ATOM     21  C   UNL     1      46.512   4.985  13.649  0.00  0.00    +0.000 A 
ATOM     22  C   UNL     1      46.344   3.642  13.286  0.00  0.00    +0.000 A 
ATOM     23  C   UNL     1      45.429   3.277  12.291  0.00  0.00    +0.000 A 
ATOM     24  C   UNL     1      44.662   4.248  11.634  0.00  0.00    +0.000 A 
ATOM     25  C   UNL     1      44.801   5.587  12.019  0.00  0.00    +0.000 A 
ATOM     26  C   UNL     1      45.724   5.953  13.010  0.00  0.00    +0.000 A 
BRANCH  24  27
ATOM     27  C   UNL     1      43.731   3.852  10.510  0.00  0.00    +0.000 C 
BRANCH  27  28
ATOM     28  N   UNL     1      44.153   4.444   9.256  0.00  0.00    +0.000 N 
ATOM     29  C   UNL     1      45.105   3.680   8.591  0.00  0.00    +0.000 A 
ATOM     30  N   UNL     1      45.089   2.342   8.707  0.00  0.00    +0.000 NA
ATOM     31  C   UNL     1      46.051   1.652   8.073  0.00  0.00    +0.000 A 
ATOM     32  C   UNL     1      47.035   2.244   7.324  0.00  0.00    +0.000 A 
ATOM     33  C   UNL     1      46.964   3.613   7.254  0.00  0.00    +0.000 A 
ATOM     34  N   UNL     1      46.022   4.348   7.881  0.00  0.00    +0.000 NA
ATOM     35  H   UNL     1      44.527   5.383   9.323  0.00  0.00    +0.000 HD
ENDBRANCH  27  28
ENDBRANCH  24  27
ENDBRANCH  20  21
ENDBRANCH   3  20
TORSDOF 5
ENDMDL
MODEL 9
REMARK VINA RESULT:    -7.071      3.201      8.272
REMARK INTER + INTRA:          -9.998
REMARK INTER:                  -8.936
REMARK INTRA:                  -1.062
REMARK UNBOUND:                -0.860
REMARK  Name = 
REMARK  5 active torsions:
REMARK  status: ('A' for Active; 'I' for Inactive)
REMARK    1  A    between atoms: C_7  and  C_8
REMARK    2  A    between atoms: N_10  and  C_11
REMARK    3  A    between atoms: C_11  and  C_12
REMARK    4  A    between atoms: C_15  and  C_16
REMARK    5  A    between atoms: C_16  and  N_17
REMARK                            x       y       z     vdW  Elec       q    Type
REMARK                         _______ _______ _______ _____ _____    ______ ____
ROOT
ATOM      1  C   UNL     1      47.504   7.982  13.476  0.00  0.00    +0.000 C 
ATOM      2  O   UNL     1      48.605   7.717  12.988  0.00  0.00    +0.000 OA
ATOM      3  N   UNL     1      47.353   8.896  14.487  0.00  0.00    +0.000 N 
ATOM      4  H   UNL     1      46.426   9.125  14.830  0.00  0.00    +0.000 HD
ENDROOT
BRANCH   1  11
ATOM      5  N   UNL     1      43.763   2.492  12.404  0.00  0.00    +0.000 N 
ATOM      6  C   UNL     1      44.405   3.676  12.580  0.00  0.00    +0.000 A 
ATOM      7  N   UNL     1      43.886   4.779  12.120  0.00  0.00    +0.000 NA
ATOM      8  C   UNL     1      44.637   5.879  12.362  0.00  0.00    +0.000 A 
ATOM      9  N   UNL     1      44.277   7.132  11.970  0.00  0.00    +0.000 N 
ATOM     10  C   UNL     1      45.260   8.012  12.345  0.00  0.00    +0.000 A 
ATOM     11  C   UNL     1      46.284   7.322  12.991  0.00  0.00    +0.000 A 
ATOM     12  C   UNL     1      45.847   5.961  13.019  0.00  0.00    +0.000 A 
ATOM     13  C   UNL     1      46.379   4.733  13.551  0.00  0.00    +0.000 A 
ATOM     14  O   UNL     1      47.408   4.660  14.216  0.00  0.00    +0.000 OA
ATOM     15  N   UNL     1      45.605   3.625  13.254  0.00  0.00    +0.000 N 
ATOM     16  H   UNL     1      43.023   2.556  11.713  0.00  0.00    +0.000 HD
ATOM     17  H   UNL     1      44.334   1.664  12.298  0.00  0.00    +0.000 HD
ATOM     18  H   UNL     1      43.423   7.356  11.481  0.00  0.00    +0.000 HD
ATOM     19  H   UNL     1      45.927   2.752  13.637  0.00  0.00    +0.000 HD
ENDBRANCH   1  11
BRANCH   3  20
ATOM     20  C   UNL     1      48.475   9.606  15.070  0.00  0.00    +0.000 C 
BRANCH  20  21
ATOM     21  C   UNL     1      49.080   8.883  16.250  0.00  0.00    +0.000 A 
ATOM     22  C   UNL     1      50.370   8.342  16.162  0.00  0.00    +0.000 A 
ATOM     23  C   UNL     1      50.932   7.648  17.240  0.00  0.00    +0.000 A 
ATOM     24  C   UNL     1      50.215   7.476  18.432  0.00  0.00    +0.000 A 
ATOM     25  C   UNL     1      48.941   8.046  18.536  0.00  0.00    +0.000 A 
ATOM     26  C   UNL     1      48.375   8.733  17.453  0.00  0.00    +0.000 A 
BRANCH  24  27
ATOM     27  C   UNL     1      50.802   6.662  19.563  0.00  0.00    +0.000 C 
BRANCH  27  28
ATOM     28  N   UNL     1      49.886   5.619  19.979  0.00  0.00    +0.000 N 
ATOM     29  C   UNL     1      49.839   4.555  19.085  0.00  0.00    +0.000 A 
ATOM     30  N   UNL     1      50.936   4.218  18.387  0.00  0.00    +0.000 NA
ATOM     31  C   UNL     1      50.829   3.205  17.512  0.00  0.00    +0.000 A 
ATOM     32  C   UNL     1      49.668   2.509  17.303  0.00  0.00    +0.000 A 
ATOM     33  C   UNL     1      48.603   2.915  18.069  0.00  0.00    +0.000 A 
ATOM     34  N   UNL     1      48.661   3.933  18.953  0.00  0.00    +0.000 NA
ATOM     35  H   UNL     1      48.929   5.915  20.130  0.00  0.00    +0.000 HD
ENDBRANCH  27  28
ENDBRANCH  24  27
ENDBRANCH  20  21
ENDBRANCH   3  20
TORSDOF 5
ENDMDL
