MODEL 1
REMARK VINA RESULT:    -7.743      0.000      0.000
REMARK INTER + INTRA:         -12.341
REMARK INTER:                 -10.911
REMARK INTRA:                  -1.430
REMARK UNBOUND:                -1.430
REMARK  Name = 
REMARK  8 active torsions:
REMARK  status: ('A' for Active; 'I' for Inactive)
REMARK    1  A    between atoms: C_1  and  C_2
REMARK    2  A    between atoms: C_2  and  C_3
REMARK    3  A    between atoms: C_2  and  C_23
REMARK    4  A    between atoms: C_3  and  N_4
REMARK    5  A    between atoms: C_9  and  C_10
REMARK    6  A    between atoms: C_14  and  O_15
REMARK    7  A    between atoms: O_15  and  C_16
REMARK    8  A    between atoms: C_16  and  C_17
REMARK                            x       y       z     vdW  Elec       q    Type
REMARK                         _______ _______ _______ _____ _____    ______ ____
ROOT
ATOM      1  N   UNL     1      44.045   5.224  12.328  0.00  0.00    +0.000 N 
ATOM      2  C   UNL     1      45.361   5.578  12.602  0.00  0.00    +0.000 A 
ATOM      3  C   UNL     1      46.095   6.408  11.761  0.00  0.00    +0.000 A 
ATOM      4  C   UNL     1      47.416   6.698  12.068  0.00  0.00    +0.000 A 
ATOM      5  C   UNL     1      47.964   6.190  13.236  0.00  0.00    +0.000 A 
ATOM      6  C   UNL     1      47.177   5.388  14.062  0.00  0.00    +0.000 A 
ATOM      7  N   UNL     1      45.887   5.091  13.747  0.00  0.00    +0.000 NA
ATOM      8  H   UNL     1      43.787   4.477  12.969  0.00  0.00    +0.000 HD
ENDROOT
BRANCH   6   9
ATOM      9  C   UNL     1      47.687   4.836  15.337  0.00  0.00    +0.000 A 
ATOM     10  C   UNL     1      47.499   3.492  15.690  0.00  0.00    +0.000 A 
ATOM     11  C   UNL     1      47.992   3.036  16.901  0.00  0.00    +0.000 A 
ATOM     12  N   UNL     1      48.648   3.813  17.782  0.00  0.00    +0.000 NA
ATOM     13  C   UNL     1      48.827   5.107  17.453  0.00  0.00    +0.000 A 
ATOM     14  C   UNL     1      48.371   5.651  16.259  0.00  0.00    +0.000 A 
BRANCH  13  15
ATOM     15  O   UNL     1      49.413   5.829  18.452  0.00  0.00    +0.000 OA
BRANCH  15  16
ATOM     16  C   UNL     1      48.785   5.751  19.732  0.00  0.00    +0.000 C 
BRANCH  16  17
ATOM     17  C   UNL     1      47.466   6.520  19.740  0.00  0.00    +0.000 C 
ATOM     18  F   UNL     1      46.435   5.825  19.212  0.00  0.00    +0.000 F 
ATOM     19  F   UNL     1      47.116   6.868  21.001  0.00  0.00    +0.000 F 
ATOM     20  F   UNL     1      47.581   7.670  19.030  0.00  0.00    +0.000 F 
ENDBRANCH  16  17
ENDBRANCH  15  16
ENDBRANCH  13  15
ENDBRANCH   6   9
BRANCH   1  21
ATOM     21  C   UNL     1      43.679   5.028  10.938  0.00  0.00    +0.000 C 
BRANCH  21  23
ATOM     22  C   UNL     1      43.425   2.500  11.378  0.00  0.00    +0.000 C 
ATOM     23  C   UNL     1      43.951   3.616  10.535  0.00  0.00    +0.000 C 
BRANCH  23  24
ATOM     24  C   UNL     1      44.896   3.334   9.445  0.00  0.00    +0.000 A 
ATOM     25  C   UNL     1      45.444   4.372   8.680  0.00  0.00    +0.000 A 
ATOM     26  C   UNL     1      46.316   4.093   7.625  0.00  0.00    +0.000 A 
ATOM     27  C   UNL     1      46.647   2.773   7.321  0.00  0.00    +0.000 A 
ATOM     28  C   UNL     1      46.124   1.735   8.086  0.00  0.00    +0.000 A 
ATOM     29  C   UNL     1      45.262   2.015   9.148  0.00  0.00    +0.000 A 
ENDBRANCH  23  24
ENDBRANCH  21  23
ENDBRANCH   1  21
TORSDOF 7
ENDMDL
MODEL 2
REMARK VINA RESULT:    -7.664      2.205      3.026
REMARK INTER + INTRA:         -12.230
REMARK INTER:                 -11.250
REMARK INTRA:                  -0.980
REMARK UNBOUND:                -1.430
REMARK  Name = 
REMARK  8 active torsions:
REMARK  status: ('A' for Active; 'I' for Inactive)
REMARK    1  A    between atoms: C_1  and  C_2
REMARK    2  A    between atoms: C_2  and  C_3
REMARK    3  A    between atoms: C_2  and  C_23
REMARK    4  A    between atoms: C_3  and  N_4
REMARK    5  A    between atoms: C_9  and  C_10
REMARK    6  A    between atoms: C_14  and  O_15
REMARK    7  A    between atoms: O_15  and  C_16
REMARK    8  A    between atoms: C_16  and  C_17
REMARK                            x       y       z     vdW  Elec       q    Type
REMARK                         _______ _______ _______ _____ _____    ______ ____
ROOT
ATOM      1  N   UNL     1      45.293   4.467  11.096  0.00  0.00    +0.000 N 
ATOM      2  C   UNL     1      45.623   5.699  11.647  0.00  0.00    +0.000 A 
ATOM      3  C   UNL     1      44.936   6.864  11.322  0.00  0.00    +0.000 A 
ATOM      4  C   UNL     1      45.334   8.071  11.877  0.00  0.00    +0.000 A 
ATOM      5  C   UNL     1      46.383   8.083  12.784  0.00  0.00    +0.000 A 
ATOM      6  C   UNL     1      47.019   6.884  13.100  0.00  0.00    +0.000 A 
ATOM      7  N   UNL     1      46.638   5.704  12.539  0.00  0.00    +0.000 NA
ATOM      8  H   UNL     1      46.037   3.814  11.332  0.00  0.00    +0.000 HD
ENDROOT
BRANCH   6   9
ATOM      9  C   UNL     1      48.126   6.818  14.080  0.00  0.00    +0.000 A 
ATOM     10  C   UNL     1      49.344   7.480  13.869  0.00  0.00    +0.000 A 
ATOM     11  C   UNL     1      50.346   7.373  14.818  0.00  0.00    +0.000 A 
ATOM     12  N   UNL     1      50.228   6.659  15.953  0.00  0.00    +0.000 NA
ATOM     13  C   UNL     1      49.064   6.015  16.160  0.00  0.00    +0.000 A 
ATOM     14  C   UNL     1      48.003   6.068  15.265  0.00  0.00    +0.000 A 
BRANCH  13  15
ATOM     15  O   UNL     1      49.081   5.242  17.286  0.00  0.00    +0.000 OA
BRANCH  15  16
ATOM     16  C   UNL     1      47.852   4.596  17.621  0.00  0.00    +0.000 C 
BRANCH  16  17
ATOM     17  C   UNL     1      47.946   3.090  17.381  0.00  0.00    +0.000 C 
ATOM     18  F   UNL     1      48.952   2.500  18.061  0.00  0.00    +0.000 F 
ATOM     19  F   UNL     1      46.796   2.471  17.741  0.00  0.00    +0.000 F 
ATOM     20  F   UNL     1      48.142   2.829  16.065  0.00  0.00    +0.000 F 
ENDBRANCH  16  17
ENDBRANCH  15  16
ENDBRANCH  13  15
ENDBRANCH   6   9
BRANCH   1  21
ATOM     21  C   UNL     1      44.840   4.448   9.718  0.00  0.00    +0.000 C 
BRANCH  21  23
ATOM     22  C   UNL     1      44.093   1.988   9.920  0.00  0.00    +0.000 C 
ATOM     23  C   UNL     1      44.857   3.049   9.196  0.00  0.00    +0.000 C 
BRANCH  23  24
ATOM     24  C   UNL     1      45.779   2.683   8.111  0.00  0.00    +0.000 A 
ATOM     25  C   UNL     1      46.390   1.423   8.078  0.00  0.00    +0.000 A 
ATOM     26  C   UNL     1      47.290   1.096   7.060  0.00  0.00    +0.000 A 
ATOM     27  C   UNL     1      47.592   2.027   6.068  0.00  0.00    +0.000 A 
ATOM     28  C   UNL     1      46.977   3.275   6.079  0.00  0.00    +0.000 A 
ATOM     29  C   UNL     1      46.069   3.597   7.088  0.00  0.00    +0.000 A 
ENDBRANCH  23  24
ENDBRANCH  21  23
ENDBRANCH   1  21
TORSDOF 7
ENDMDL
MODEL 3
REMARK VINA RESULT:    -7.653      4.831      8.580
REMARK INTER + INTRA:         -12.215
REMARK INTER:                 -11.135
REMARK INTRA:                  -1.080
REMARK UNBOUND:                -1.430
REMARK  Name = 
REMARK  8 active torsions:
REMARK  status: ('A' for Active; 'I' for Inactive)
REMARK    1  A    between atoms: C_1  and  C_2
REMARK    2  A    between atoms: C_2  and  C_3
REMARK    3  A    between atoms: C_2  and  C_23
REMARK    4  A    between atoms: C_3  and  N_4
REMARK    5  A    between atoms: C_9  and  C_10
REMARK    6  A    between atoms: C_14  and  O_15
REMARK    7  A    between atoms: O_15  and  C_16
REMARK    8  A    between atoms: C_16  and  C_17
REMARK                            x       y       z     vdW  Elec       q    Type
REMARK                         _______ _______ _______ _____ _____    ______ ____
ROOT
ATOM      1  N   UNL     1      48.707   6.647  14.514  0.00  0.00    +0.000 N 
ATOM      2  C   UNL     1      47.565   7.002  13.806  0.00  0.00    +0.000 A 
ATOM      3  C   UNL     1      47.179   8.328  13.639  0.00  0.00    +0.000 A 
ATOM      4  C   UNL     1      46.010   8.620  12.953  0.00  0.00    +0.000 A 
ATOM      5  C   UNL     1      45.272   7.580  12.406  0.00  0.00    +0.000 A 
ATOM      6  C   UNL     1      45.717   6.270  12.575  0.00  0.00    +0.000 A 
ATOM      7  N   UNL     1      46.856   5.987  13.265  0.00  0.00    +0.000 NA
ATOM      8  H   UNL     1      48.679   5.640  14.660  0.00  0.00    +0.000 HD
ENDROOT
BRANCH   6   9
ATOM      9  C   UNL     1      44.996   5.115  11.995  0.00  0.00    +0.000 A 
ATOM     10  C   UNL     1      44.240   4.239  12.788  0.00  0.00    +0.000 A 
ATOM     11  C   UNL     1      43.595   3.171  12.189  0.00  0.00    +0.000 A 
ATOM     12  N   UNL     1      43.650   2.909  10.869  0.00  0.00    +0.000 NA
ATOM     13  C   UNL     1      44.379   3.741  10.102  0.00  0.00    +0.000 A 
ATOM     14  C   UNL     1      45.056   4.840  10.616  0.00  0.00    +0.000 A 
BRANCH  13  15
ATOM     15  O   UNL     1      44.451   3.333   8.801  0.00  0.00    +0.000 OA
BRANCH  15  16
ATOM     16  C   UNL     1      45.526   2.448   8.482  0.00  0.00    +0.000 C 
BRANCH  16  17
ATOM     17  C   UNL     1      46.446   3.066   7.431  0.00  0.00    +0.000 C 
ATOM     18  F   UNL     1      45.940   3.019   6.180  0.00  0.00    +0.000 F 
ATOM     19  F   UNL     1      46.701   4.365   7.716  0.00  0.00    +0.000 F 
ATOM     20  F   UNL     1      47.640   2.423   7.407  0.00  0.00    +0.000 F 
ENDBRANCH  16  17
ENDBRANCH  15  16
ENDBRANCH  13  15
ENDBRANCH   6   9
BRANCH   1  21
ATOM     21  C   UNL     1      49.056   7.451  15.670  0.00  0.00    +0.000 C 
BRANCH  21  23
ATOM     22  C   UNL     1      48.335   7.532  18.145  0.00  0.00    +0.000 C 
ATOM     23  C   UNL     1      48.664   6.738  16.922  0.00  0.00    +0.000 C 
BRANCH  23  24
ATOM     24  C   UNL     1      48.804   5.277  17.007  0.00  0.00    +0.000 A 
ATOM     25  C   UNL     1      50.006   4.691  17.423  0.00  0.00    +0.000 A 
ATOM     26  C   UNL     1      50.139   3.300  17.470  0.00  0.00    +0.000 A 
ATOM     27  C   UNL     1      49.074   2.483  17.097  0.00  0.00    +0.000 A 
ATOM     28  C   UNL     1      47.869   3.053  16.701  0.00  0.00    +0.000 A 
ATOM     29  C   UNL     1      47.731   4.441  16.666  0.00  0.00    +0.000 A 
ENDBRANCH  23  24
ENDBRANCH  21  23
ENDBRANCH   1  21
TORSDOF 7
ENDMDL
MODEL 4
REMARK VINA RESULT:    -6.805      5.806      8.679
REMARK INTER + INTRA:         -11.020
REMARK INTER:                 -10.043
REMARK INTRA:                  -0.977
REMARK UNBOUND:                -1.430
REMARK  Name = 
REMARK  8 active torsions:
REMARK  status: ('A' for Active; 'I' for Inactive)
REMARK    1  A    between atoms: C_1  and  C_2
REMARK    2  A    between atoms: C_2  and  C_3
REMARK    3  A    between atoms: C_2  and  C_23
REMARK    4  A    between atoms: C_3  and  N_4
REMARK    5  A    between atoms: C_9  and  C_10
REMARK    6  A    between atoms: C_14  and  O_15
REMARK    7  A    between atoms: O_15  and  C_16
REMARK    8  A    between atoms: C_16  and  C_17
REMARK                            x       y       z     vdW  Elec       q    Type
REMARK                         _______ _______ _______ _____ _____    ______ ____
ROOT
ATOM      1  N   UNL     1      48.915   7.595  11.406  0.00  0.00    +0.000 N 
ATOM      2  C   UNL     1      47.601   7.570  11.857  0.00  0.00    +0.000 A 
ATOM      3  C   UNL     1      47.031   8.643  12.535  0.00  0.00    +0.000 A 
ATOM      4  C   UNL     1      45.725   8.547  12.994  0.00  0.00    +0.000 A 
ATOM      5  C   UNL     1      44.999   7.396  12.724  0.00  0.00    +0.000 A 
ATOM      6  C   UNL     1      45.606   6.362  12.014  0.00  0.00    +0.000 A 
ATOM      7  N   UNL     1      46.894   6.453  11.582  0.00  0.00    +0.000 NA
ATOM      8  H   UNL     1      49.160   6.650  11.116  0.00  0.00    +0.000 HD
ENDROOT
BRANCH   6   9
ATOM      9  C   UNL     1      44.883   5.119  11.667  0.00  0.00    +0.000 A 
ATOM     10  C   UNL     1      44.026   4.480  12.576  0.00  0.00    +0.000 A 
ATOM     11  C   UNL     1      43.384   3.314  12.196  0.00  0.00    +0.000 A 
ATOM     12  N   UNL     1      43.533   2.738  10.989  0.00  0.00    +0.000 NA
ATOM     13  C   UNL     1      44.358   3.341  10.112  0.00  0.00    +0.000 A 
ATOM     14  C   UNL     1      45.041   4.515  10.405  0.00  0.00    +0.000 A 
BRANCH  13  15
ATOM     15  O   UNL     1      44.516   2.627   8.959  0.00  0.00    +0.000 OA
BRANCH  15  16
ATOM     16  C   UNL     1      44.789   3.391   7.783  0.00  0.00    +0.000 C 
BRANCH  16  17
ATOM     17  C   UNL     1      46.215   3.147   7.294  0.00  0.00    +0.000 C 
ATOM     18  F   UNL     1      46.814   2.092   7.889  0.00  0.00    +0.000 F 
ATOM     19  F   UNL     1      46.237   2.924   5.958  0.00  0.00    +0.000 F 
ATOM     20  F   UNL     1      46.992   4.234   7.527  0.00  0.00    +0.000 F 
ENDBRANCH  16  17
ENDBRANCH  15  16
ENDBRANCH  13  15
ENDBRANCH   6   9
BRANCH   1  21
ATOM     21  C   UNL     1      49.893   8.285  12.225  0.00  0.00    +0.000 C 
BRANCH  21  23
ATOM     22  C   UNL     1      50.260  10.502  10.959  0.00  0.00    +0.000 C 
ATOM     23  C   UNL     1      50.755   9.152  11.366  0.00  0.00    +0.000 C 
BRANCH  23  24
ATOM     24  C   UNL     1      51.976   8.601  10.762  0.00  0.00    +0.000 A 
ATOM     25  C   UNL     1      51.988   7.316  10.205  0.00  0.00    +0.000 A 
ATOM     26  C   UNL     1      53.163   6.788   9.662  0.00  0.00    +0.000 A 
ATOM     27  C   UNL     1      54.337   7.538   9.674  0.00  0.00    +0.000 A 
ATOM     28  C   UNL     1      54.333   8.823  10.206  0.00  0.00    +0.000 A 
ATOM     29  C   UNL     1      53.157   9.355  10.738  0.00  0.00    +0.000 A 
ENDBRANCH  23  24
ENDBRANCH  21  23
ENDBRANCH   1  21
TORSDOF 7
ENDMDL
MODEL 5
REMARK VINA RESULT:    -6.756      5.325      9.113
REMARK INTER + INTRA:         -10.950
REMARK INTER:                 -10.097
REMARK INTRA:                  -0.853
REMARK UNBOUND:                -1.430
REMARK  Name = 
REMARK  8 active torsions:
REMARK  status: ('A' for Active; 'I' for Inactive)
REMARK    1  A    between atoms: C_1  and  C_2
REMARK    2  A    between atoms: C_2  and  C_3
REMARK    3  A    between atoms: C_2  and  C_23
REMARK    4  A    between atoms: C_3  and  N_4
REMARK    5  A    between atoms: C_9  and  C_10
REMARK    6  A    between atoms: C_14  and  O_15
REMARK    7  A    between atoms: O_15  and  C_16
REMARK    8  A    between atoms: C_16  and  C_17
REMARK                            x       y       z     vdW  Elec       q    Type
REMARK                         _______ _______ _______ _____ _____    ______ ____
ROOT
ATOM      1  N   UNL     1      48.532   7.849  12.706  0.00  0.00    +0.000 N 
ATOM      2  C   UNL     1      47.202   7.868  12.305  0.00  0.00    +0.000 A 
ATOM      3  C   UNL     1      46.410   9.006  12.423  0.00  0.00    +0.000 A 
ATOM      4  C   UNL     1      45.077   8.955  12.040  0.00  0.00    +0.000 A 
ATOM      5  C   UNL     1      44.576   7.779  11.501  0.00  0.00    +0.000 A 
ATOM      6  C   UNL     1      45.419   6.677  11.375  0.00  0.00    +0.000 A 
ATOM      7  N   UNL     1      46.721   6.725  11.770  0.00  0.00    +0.000 NA
ATOM      8  H   UNL     1      48.843   6.880  12.700  0.00  0.00    +0.000 HD
ENDROOT
BRANCH   6   9
ATOM      9  C   UNL     1      44.959   5.401  10.783  0.00  0.00    +0.000 A 
ATOM     10  C   UNL     1      44.134   4.512  11.487  0.00  0.00    +0.000 A 
ATOM     11  C   UNL     1      43.744   3.329  10.883  0.00  0.00    +0.000 A 
ATOM     12  N   UNL     1      44.115   2.965   9.641  0.00  0.00    +0.000 NA
ATOM     13  C   UNL     1      44.912   3.811   8.961  0.00  0.00    +0.000 A 
ATOM     14  C   UNL     1      45.350   5.020   9.485  0.00  0.00    +0.000 A 
BRANCH  13  15
ATOM     15  O   UNL     1      45.310   3.306   7.756  0.00  0.00    +0.000 OA
BRANCH  15  16
ATOM     16  C   UNL     1      46.652   3.602   7.366  0.00  0.00    +0.000 C 
BRANCH  16  17
ATOM     17  C   UNL     1      47.349   2.356   6.823  0.00  0.00    +0.000 C 
ATOM     18  F   UNL     1      47.263   1.290   7.648  0.00  0.00    +0.000 F 
ATOM     19  F   UNL     1      46.822   1.988   5.631  0.00  0.00    +0.000 F 
ATOM     20  F   UNL     1      48.667   2.598   6.616  0.00  0.00    +0.000 F 
ENDBRANCH  16  17
ENDBRANCH  15  16
ENDBRANCH  13  15
ENDBRANCH   6   9
BRANCH   1  21
ATOM     21  C   UNL     1      48.892   8.627  13.877  0.00  0.00    +0.000 C 
BRANCH  21  23
ATOM     22  C   UNL     1      51.462   8.414  13.895  0.00  0.00    +0.000 C 
ATOM     23  C   UNL     1      50.135   8.074  14.492  0.00  0.00    +0.000 C 
BRANCH  23  24
ATOM     24  C   UNL     1      50.039   7.046  15.539  0.00  0.00    +0.000 A 
ATOM     25  C   UNL     1      51.172   6.638  16.254  0.00  0.00    +0.000 A 
ATOM     26  C   UNL     1      51.077   5.637  17.224  0.00  0.00    +0.000 A 
ATOM     27  C   UNL     1      49.850   5.030  17.485  0.00  0.00    +0.000 A 
ATOM     28  C   UNL     1      48.714   5.440  16.795  0.00  0.00    +0.000 A 
ATOM     29  C   UNL     1      48.806   6.448  15.835  0.00  0.00    +0.000 A 
ENDBRANCH  23  24
ENDBRANCH  21  23
ENDBRANCH   1  21
TORSDOF 7
ENDMDL
MODEL 6
REMARK VINA RESULT:    -6.747      4.975      9.016
REMARK INTER + INTRA:         -10.938
REMARK INTER:                 -10.538
REMARK INTRA:                  -0.400
REMARK UNBOUND:                -1.430
REMARK  Name = 
REMARK  8 active torsions:
REMARK  status: ('A' for Active; 'I' for Inactive)
REMARK    1  A    between atoms: C_1  and  C_2
REMARK    2  A    between atoms: C_2  and  C_3
REMARK    3  A    between atoms: C_2  and  C_23
REMARK    4  A    between atoms: C_3  and  N_4
REMARK    5  A    between atoms: C_9  and  C_10
REMARK    6  A    between atoms: C_14  and  O_15
REMARK    7  A    between atoms: O_15  and  C_16
REMARK    8  A    between atoms: C_16  and  C_17
REMARK                            x       y       z     vdW  Elec       q    Type
REMARK                         _______ _______ _______ _____ _____    ______ ____
ROOT
ATOM      1  N   UNL     1      48.010   4.586  16.111  0.00  0.00    +0.000 N 
ATOM      2  C   UNL     1      47.621   5.306  14.987  0.00  0.00    +0.000 A 
ATOM      3  C   UNL     1      48.149   6.558  14.691  0.00  0.00    +0.000 A 
ATOM      4  C   UNL     1      47.696   7.246  13.575  0.00  0.00    +0.000 A 
ATOM      5  C   UNL     1      46.757   6.645  12.749  0.00  0.00    +0.000 A 
ATOM      6  C   UNL     1      46.283   5.375  13.072  0.00  0.00    +0.000 A 
ATOM      7  N   UNL     1      46.716   4.712  14.179  0.00  0.00    +0.000 NA
ATOM      8  H   UNL     1      47.366   3.805  16.215  0.00  0.00    +0.000 HD
ENDROOT
BRANCH   6   9
ATOM      9  C   UNL     1      45.304   4.663  12.221  0.00  0.00    +0.000 A 
ATOM     10  C   UNL     1      44.311   3.836  12.766  0.00  0.00    +0.000 A 
ATOM     11  C   UNL     1      43.428   3.189  11.918  0.00  0.00    +0.000 A 
ATOM     12  N   UNL     1      43.463   3.300  10.577  0.00  0.00    +0.000 NA
ATOM     13  C   UNL     1      44.417   4.087  10.045  0.00  0.00    +0.000 A 
ATOM     14  C   UNL     1      45.343   4.777  10.818  0.00  0.00    +0.000 A 
BRANCH  13  15
ATOM     15  O   UNL     1      44.429   4.053   8.681  0.00  0.00    +0.000 OA
BRANCH  15  16
ATOM     16  C   UNL     1      45.699   4.262   8.061  0.00  0.00    +0.000 C 
BRANCH  16  17
ATOM     17  C   UNL     1      46.216   2.970   7.430  0.00  0.00    +0.000 C 
ATOM     18  F   UNL     1      47.561   2.850   7.478  0.00  0.00    +0.000 F 
ATOM     19  F   UNL     1      45.691   1.886   8.049  0.00  0.00    +0.000 F 
ATOM     20  F   UNL     1      45.852   2.897   6.126  0.00  0.00    +0.000 F 
ENDBRANCH  16  17
ENDBRANCH  15  16
ENDBRANCH  13  15
ENDBRANCH   6   9
BRANCH   1  21
ATOM     21  C   UNL     1      48.308   5.335  17.317  0.00  0.00    +0.000 C 
BRANCH  21  23
ATOM     22  C   UNL     1      50.482   6.704  17.528  0.00  0.00    +0.000 C 
ATOM     23  C   UNL     1      49.784   5.383  17.534  0.00  0.00    +0.000 C 
BRANCH  23  24
ATOM     24  C   UNL     1      50.564   4.137  17.544  0.00  0.00    +0.000 A 
ATOM     25  C   UNL     1      49.962   2.908  17.247  0.00  0.00    +0.000 A 
ATOM     26  C   UNL     1      50.705   1.725  17.290  0.00  0.00    +0.000 A 
ATOM     27  C   UNL     1      52.055   1.758  17.634  0.00  0.00    +0.000 A 
ATOM     28  C   UNL     1      52.669   2.975  17.911  0.00  0.00    +0.000 A 
ATOM     29  C   UNL     1      51.931   4.158  17.856  0.00  0.00    +0.000 A 
ENDBRANCH  23  24
ENDBRANCH  21  23
ENDBRANCH   1  21
TORSDOF 7
ENDMDL
MODEL 7
REMARK VINA RESULT:    -6.578      2.193      2.429
REMARK INTER + INTRA:         -10.699
REMARK INTER:                  -9.576
REMARK INTRA:                  -1.124
REMARK UNBOUND:                -1.430
REMARK  Name = 
REMARK  8 active torsions:
REMARK  status: ('A' for Active; 'I' for Inactive)
REMARK    1  A    between atoms: C_1  and  C_2
REMARK    2  A    between atoms: C_2  and  C_3
REMARK    3  A    between atoms: C_2  and  C_23
REMARK    4  A    between atoms: C_3  and  N_4
REMARK    5  A    between atoms: C_9  and  C_10
REMARK    6  A    between atoms: C_14  and  O_15
REMARK    7  A    between atoms: O_15  and  C_16
REMARK    8  A    between atoms: C_16  and  C_17
REMARK                            x       y       z     vdW  Elec       q    Type
REMARK                         _______ _______ _______ _____ _____    ______ ____
ROOT
ATOM      1  N   UNL     1      45.076   5.927  12.029  0.00  0.00    +0.000 N 
ATOM      2  C   UNL     1      46.304   6.201  12.619  0.00  0.00    +0.000 A 
ATOM      3  C   UNL     1      47.240   7.040  12.023  0.00  0.00    +0.000 A 
ATOM      4  C   UNL     1      48.464   7.249  12.641  0.00  0.00    +0.000 A 
ATOM      5  C   UNL     1      48.710   6.651  13.869  0.00  0.00    +0.000 A 
ATOM      6  C   UNL     1      47.727   5.844  14.439  0.00  0.00    +0.000 A 
ATOM      7  N   UNL     1      46.534   5.627  13.820  0.00  0.00    +0.000 NA
ATOM      8  H   UNL     1      44.651   5.159  12.545  0.00  0.00    +0.000 HD
ENDROOT
BRANCH   6   9
ATOM      9  C   UNL     1      47.909   5.198  15.758  0.00  0.00    +0.000 A 
ATOM     10  C   UNL     1      47.186   4.056  16.131  0.00  0.00    +0.000 A 
ATOM     11  C   UNL     1      47.394   3.502  17.382  0.00  0.00    +0.000 A 
ATOM     12  N   UNL     1      48.259   3.999  18.286  0.00  0.00    +0.000 NA
ATOM     13  C   UNL     1      48.952   5.100  17.938  0.00  0.00    +0.000 A 
ATOM     14  C   UNL     1      48.811   5.721  16.704  0.00  0.00    +0.000 A 
BRANCH  13  15
ATOM     15  O   UNL     1      49.724   5.580  18.957  0.00  0.00    +0.000 OA
BRANCH  15  16
ATOM     16  C   UNL     1      50.956   6.192  18.572  0.00  0.00    +0.000 C 
BRANCH  16  17
ATOM     17  C   UNL     1      52.041   5.140  18.348  0.00  0.00    +0.000 C 
ATOM     18  F   UNL     1      51.814   3.986  19.012  0.00  0.00    +0.000 F 
ATOM     19  F   UNL     1      52.154   4.835  17.034  0.00  0.00    +0.000 F 
ATOM     20  F   UNL     1      53.248   5.606  18.753  0.00  0.00    +0.000 F 
ENDBRANCH  16  17
ENDBRANCH  15  16
ENDBRANCH  13  15
ENDBRANCH   6   9
BRANCH   1  21
ATOM     21  C   UNL     1      45.034   5.826  10.583  0.00  0.00    +0.000 C 
BRANCH  21  23
ATOM     22  C   UNL     1      43.426   3.842  10.947  0.00  0.00    +0.000 C 
ATOM     23  C   UNL     1      44.544   4.473  10.182  0.00  0.00    +0.000 C 
BRANCH  23  24
ATOM     24  C   UNL     1      45.289   3.690   9.185  0.00  0.00    +0.000 A 
ATOM     25  C   UNL     1      45.997   4.322   8.155  0.00  0.00    +0.000 A 
ATOM     26  C   UNL     1      46.676   3.569   7.194  0.00  0.00    +0.000 A 
ATOM     27  C   UNL     1      46.650   2.177   7.250  0.00  0.00    +0.000 A 
ATOM     28  C   UNL     1      45.966   1.538   8.279  0.00  0.00    +0.000 A 
ATOM     29  C   UNL     1      45.298   2.290   9.246  0.00  0.00    +0.000 A 
ENDBRANCH  23  24
ENDBRANCH  21  23
ENDBRANCH   1  21
TORSDOF 7
ENDMDL
MODEL 8
REMARK VINA RESULT:    -6.507      5.849      8.520
REMARK INTER + INTRA:         -10.600
REMARK INTER:                  -9.902
REMARK INTRA:                  -0.698
REMARK UNBOUND:                -1.430
REMARK  Name = 
REMARK  8 active torsions:
REMARK  status: ('A' for Active; 'I' for Inactive)
REMARK    1  A    between atoms: C_1  and  C_2
REMARK    2  A    between atoms: C_2  and  C_3
REMARK    3  A    between atoms: C_2  and  C_23
REMARK    4  A    between atoms: C_3  and  N_4
REMARK    5  A    between atoms: C_9  and  C_10
REMARK    6  A    between atoms: C_14  and  O_15
REMARK    7  A    between atoms: O_15  and  C_16
REMARK    8  A    between atoms: C_16  and  C_17
REMARK                            x       y       z     vdW  Elec       q    Type
REMARK                         _______ _______ _______ _____ _____    ______ ____
ROOT
ATOM      1  N   UNL     1      44.940   9.201  12.687  0.00  0.00    +0.000 N 
ATOM      2  C   UNL     1      45.644   8.005  12.758  0.00  0.00    +0.000 A 
ATOM      3  C   UNL     1      46.893   7.916  13.363  0.00  0.00    +0.000 A 
ATOM      4  C   UNL     1      47.565   6.703  13.373  0.00  0.00    +0.000 A 
ATOM      5  C   UNL     1      46.953   5.589  12.817  0.00  0.00    +0.000 A 
ATOM      6  C   UNL     1      45.687   5.723  12.250  0.00  0.00    +0.000 A 
ATOM      7  N   UNL     1      45.039   6.920  12.227  0.00  0.00    +0.000 NA
ATOM      8  H   UNL     1      44.160   9.062  12.048  0.00  0.00    +0.000 HD
ENDROOT
BRANCH   6   9
ATOM      9  C   UNL     1      44.963   4.573  11.666  0.00  0.00    +0.000 A 
ATOM     10  C   UNL     1      44.041   3.822  12.410  0.00  0.00    +0.000 A 
ATOM     11  C   UNL     1      43.401   2.750  11.810  0.00  0.00    +0.000 A 
ATOM     12  N   UNL     1      43.612   2.371  10.536  0.00  0.00    +0.000 NA
ATOM     13  C   UNL     1      44.501   3.082   9.818  0.00  0.00    +0.000 A 
ATOM     14  C   UNL     1      45.187   4.174  10.334  0.00  0.00    +0.000 A 
BRANCH  13  15
ATOM     15  O   UNL     1      44.716   2.558   8.575  0.00  0.00    +0.000 OA
BRANCH  15  16
ATOM     16  C   UNL     1      46.002   1.978   8.355  0.00  0.00    +0.000 C 
BRANCH  16  17
ATOM     17  C   UNL     1      46.759   2.729   7.262  0.00  0.00    +0.000 C 
ATOM     18  F   UNL     1      48.010   2.262   7.056  0.00  0.00    +0.000 F 
ATOM     19  F   UNL     1      46.101   2.656   6.081  0.00  0.00    +0.000 F 
ATOM     20  F   UNL     1      46.867   4.044   7.575  0.00  0.00    +0.000 F 
ENDBRANCH  16  17
ENDBRANCH  15  16
ENDBRANCH  13  15
ENDBRANCH   6   9
BRANCH   1  21
ATOM     21  C   UNL     1      45.704  10.420  12.505  0.00  0.00    +0.000 C 
BRANCH  21  23
ATOM     22  C   UNL     1      46.648  11.516  10.370  0.00  0.00    +0.000 C 
ATOM     23  C   UNL     1      45.489  10.955  11.127  0.00  0.00    +0.000 C 
BRANCH  23  24
ATOM     24  C   UNL     1      44.122  11.117  10.610  0.00  0.00    +0.000 A 
ATOM     25  C   UNL     1      43.026  11.176  11.479  0.00  0.00    +0.000 A 
ATOM     26  C   UNL     1      41.727  11.298  10.976  0.00  0.00    +0.000 A 
ATOM     27  C   UNL     1      41.512  11.357   9.601  0.00  0.00    +0.000 A 
ATOM     28  C   UNL     1      42.596  11.318   8.729  0.00  0.00    +0.000 A 
ATOM     29  C   UNL     1      43.893  11.209   9.230  0.00  0.00    +0.000 A 
ENDBRANCH  23  24
ENDBRANCH  21  23
ENDBRANCH   1  21
TORSDOF 7
ENDMDL
MODEL 9
REMARK VINA RESULT:    -6.175      2.142      2.897
REMARK INTER + INTRA:         -10.131
REMARK INTER:                  -8.842
REMARK INTRA:                  -1.289
REMARK UNBOUND:                -1.430
REMARK  Name = 
REMARK  8 active torsions:
REMARK  status: ('A' for Active; 'I' for Inactive)
REMARK    1  A    between atoms: C_1  and  C_2
REMARK    2  A    between atoms: C_2  and  C_3
REMARK    3  A    between atoms: C_2  and  C_23
REMARK    4  A    between atoms: C_3  and  N_4
REMARK    5  A    between atoms: C_9  and  C_10
REMARK    6  A    between atoms: C_14  and  O_15
REMARK    7  A    between atoms: O_15  and  C_16
REMARK    8  A    between atoms: C_16  and  C_17
REMARK                            x       y       z     vdW  Elec       q    Type
REMARK                         _______ _______ _______ _____ _____    ______ ____
ROOT
ATOM      1  N   UNL     1      45.547   6.825  13.259  0.00  0.00    +0.000 N 
ATOM      2  C   UNL     1      46.864   7.200  13.020  0.00  0.00    +0.000 A 
ATOM      3  C   UNL     1      47.264   7.773  11.817  0.00  0.00    +0.000 A 
ATOM      4  C   UNL     1      48.599   8.094  11.622  0.00  0.00    +0.000 A 
ATOM      5  C   UNL     1      49.501   7.880  12.654  0.00  0.00    +0.000 A 
ATOM      6  C   UNL     1      49.044   7.333  13.852  0.00  0.00    +0.000 A 
ATOM      7  N   UNL     1      47.737   7.001  14.032  0.00  0.00    +0.000 NA
ATOM      8  H   UNL     1      45.535   6.270  14.112  0.00  0.00    +0.000 HD
ENDROOT
BRANCH   6   9
ATOM      9  C   UNL     1      49.945   7.104  15.004  0.00  0.00    +0.000 A 
ATOM     10  C   UNL     1      51.207   7.709  15.090  0.00  0.00    +0.000 A 
ATOM     11  C   UNL     1      52.009   7.450  16.188  0.00  0.00    +0.000 A 
ATOM     12  N   UNL     1      51.651   6.635  17.199  0.00  0.00    +0.000 NA
ATOM     13  C   UNL     1      50.443   6.045  17.121  0.00  0.00    +0.000 A 
ATOM     14  C   UNL     1      49.572   6.250  16.059  0.00  0.00    +0.000 A 
BRANCH  13  15
ATOM     15  O   UNL     1      50.219   5.166  18.141  0.00  0.00    +0.000 OA
BRANCH  15  16
ATOM     16  C   UNL     1      49.747   3.873  17.759  0.00  0.00    +0.000 C 
BRANCH  16  17
ATOM     17  C   UNL     1      48.275   3.700  18.128  0.00  0.00    +0.000 C 
ATOM     18  F   UNL     1      48.004   2.515  18.717  0.00  0.00    +0.000 F 
ATOM     19  F   UNL     1      47.872   4.675  18.977  0.00  0.00    +0.000 F 
ATOM     20  F   UNL     1      47.493   3.788  17.023  0.00  0.00    +0.000 F 
ENDBRANCH  16  17
ENDBRANCH  15  16
ENDBRANCH  13  15
ENDBRANCH   6   9
BRANCH   1  21
ATOM     21  C   UNL     1      44.787   6.297  12.142  0.00  0.00    +0.000 C 
BRANCH  21  23
ATOM     22  C   UNL     1      45.578   4.048  13.124  0.00  0.00    +0.000 C 
ATOM     23  C   UNL     1      45.094   4.847  11.958  0.00  0.00    +0.000 C 
BRANCH  23  24
ATOM     24  C   UNL     1      45.119   4.269  10.607  0.00  0.00    +0.000 A 
ATOM     25  C   UNL     1      45.629   4.994   9.522  0.00  0.00    +0.000 A 
ATOM     26  C   UNL     1      45.619   4.449   8.236  0.00  0.00    +0.000 A 
ATOM     27  C   UNL     1      45.095   3.176   8.019  0.00  0.00    +0.000 A 
ATOM     28  C   UNL     1      44.602   2.439   9.092  0.00  0.00    +0.000 A 
ATOM     29  C   UNL     1      44.624   2.978  10.379  0.00  0.00    +0.000 A 
ENDBRANCH  23  24
ENDBRANCH  21  23
ENDBRANCH   1  21
TORSDOF 7
ENDMDL
