MODEL 1
REMARK VINA RESULT:    -8.212      0.000      0.000
REMARK INTER + INTRA:         -13.672
REMARK INTER:                 -12.773
REMARK INTRA:                  -0.899
REMARK UNBOUND:                -0.899
REMARK  Name = 
REMARK  10 active torsions:
REMARK  status: ('A' for Active; 'I' for Inactive)
REMARK    1  A    between atoms: N_1  and  C_2
REMARK    2  A    between atoms: C_2  and  C_3
REMARK    3  A    between atoms: C_3  and  N_4
REMARK    4  A    between atoms: C_3  and  C_20
REMARK    5  A    between atoms: N_4  and  C_5
REMARK    6  A    between atoms: C_5  and  C_6
REMARK    7  A    between atoms: C_9  and  C_10
REMARK    8  A    between atoms: C_10  and  N_11
REMARK    9  A    between atoms: N_11  and  C_12
REMARK   10  A    between atoms: C_12  and  C_13
REMARK                            x       y       z     vdW  Elec       q    Type
REMARK                         _______ _______ _______ _____ _____    ______ ____
ROOT
ATOM      1  N   UNL     1      48.121   6.054  16.137  0.00  0.00    +0.000 NA
ATOM      2  H   UNL     1      48.666   6.668  16.740  0.00  0.00    +0.000 HD
ENDROOT
BRANCH   1   3
ATOM      3  C   UNL     1      48.234   4.686  16.684  0.00  0.00    +0.000 C 
BRANCH   3   4
ATOM      4  C   UNL     1      49.601   4.589  17.354  0.00  0.00    +0.000 A 
ATOM      5  C   UNL     1      50.216   5.616  18.064  0.00  0.00    +0.000 A 
ATOM      6  S   UNL     1      51.738   5.185  18.704  0.00  0.00    +0.000 S 
ATOM      7  C   UNL     1      51.613   3.605  18.082  0.00  0.00    +0.000 A 
ATOM      8  N   UNL     1      52.596   2.687  18.288  0.00  0.00    +0.000 NA
ATOM      9  C   UNL     1      52.358   1.532  17.763  0.00  0.00    +0.000 A 
ATOM     10  N   UNL     1      51.229   1.207  17.048  0.00  0.00    +0.000 N 
ATOM     11  C   UNL     1      50.209   2.100  16.818  0.00  0.00    +0.000 A 
ATOM     12  O   UNL     1      49.205   1.780  16.189  0.00  0.00    +0.000 OA
ATOM     13  C   UNL     1      50.438   3.417  17.384  0.00  0.00    +0.000 A 
ATOM     14  H   UNL     1      51.109   0.281  16.674  0.00  0.00    +0.000 HD
ENDBRANCH   3   4
BRANCH   3  15
ATOM     15  C   UNL     1      47.094   4.314  17.684  0.00  0.00    +0.000 C 
BRANCH  15  16
ATOM     16  N   UNL     1      46.691   2.901  17.633  0.00  0.00    +0.000 NA
ATOM     17  H   UNL     1      46.148   2.722  16.794  0.00  0.00    +0.000 HD
ATOM     18  H   UNL     1      46.097   2.712  18.442  0.00  0.00    +0.000 HD
ENDBRANCH  15  16
ENDBRANCH   3  15
ENDBRANCH   1   3
BRANCH   1  19
ATOM     19  C   UNL     1      48.633   6.187  14.776  0.00  0.00    +0.000 C 
BRANCH  19  20
ATOM     20  C   UNL     1      47.540   5.896  13.770  0.00  0.00    +0.000 A 
ATOM     21  C   UNL     1      47.414   6.674  12.611  0.00  0.00    +0.000 A 
ATOM     22  C   UNL     1      46.402   6.410  11.688  0.00  0.00    +0.000 A 
ATOM     23  C   UNL     1      45.510   5.346  11.887  0.00  0.00    +0.000 A 
ATOM     24  C   UNL     1      45.634   4.569  13.043  0.00  0.00    +0.000 A 
ATOM     25  C   UNL     1      46.637   4.845  13.978  0.00  0.00    +0.000 A 
BRANCH  23  26
ATOM     26  C   UNL     1      44.482   5.021  10.828  0.00  0.00    +0.000 C 
BRANCH  26  27
ATOM     27  N   UNL     1      44.998   3.940   9.997  0.00  0.00    +0.000 NA
ATOM     28  H   UNL     1      44.282   3.217   9.920  0.00  0.00    +0.000 HD
BRANCH  27  29
ATOM     29  C   UNL     1      45.436   4.364   8.676  0.00  0.00    +0.000 C 
BRANCH  29  30
ATOM     30  C   UNL     1      45.622   3.111   7.819  0.00  0.00    +0.000 C 
ATOM     31  C   UNL     1      46.982   3.012   7.146  0.00  0.00    +0.000 C 
ATOM     32  C   UNL     1      47.089   1.525   6.882  0.00  0.00    +0.000 C 
ATOM     33  N   UNL     1      46.573   0.906   8.106  0.00  0.00    +0.000 NA
ATOM     34  C   UNL     1      45.511   1.800   8.605  0.00  0.00    +0.000 C 
ATOM     35  H   UNL     1      47.320   0.892   8.802  0.00  0.00    +0.000 HD
ENDBRANCH  29  30
ENDBRANCH  27  29
ENDBRANCH  26  27
ENDBRANCH  23  26
ENDBRANCH  19  20
ENDBRANCH   1  19
TORSDOF 10
ENDMDL
MODEL 2
REMARK VINA RESULT:    -7.752      2.419      2.941
REMARK INTER + INTRA:         -12.957
REMARK INTER:                 -11.403
REMARK INTRA:                  -1.554
REMARK UNBOUND:                -0.899
REMARK  Name = 
REMARK  10 active torsions:
REMARK  status: ('A' for Active; 'I' for Inactive)
REMARK    1  A    between atoms: N_1  and  C_2
REMARK    2  A    between atoms: C_2  and  C_3
REMARK    3  A    between atoms: C_3  and  N_4
REMARK    4  A    between atoms: C_3  and  C_20
REMARK    5  A    between atoms: N_4  and  C_5
REMARK    6  A    between atoms: C_5  and  C_6
REMARK    7  A    between atoms: C_9  and  C_10
REMARK    8  A    between atoms: C_10  and  N_11
REMARK    9  A    between atoms: N_11  and  C_12
REMARK   10  A    between atoms: C_12  and  C_13
REMARK                            x       y       z     vdW  Elec       q    Type
REMARK                         _______ _______ _______ _____ _____    ______ ____
ROOT
ATOM      1  N   UNL     1      48.487   6.129  16.753  0.00  0.00    +0.000 NA
ATOM      2  H   UNL     1      48.968   6.620  17.506  0.00  0.00    +0.000 HD
ENDROOT
BRANCH   1   3
ATOM      3  C   UNL     1      48.535   4.687  17.069  0.00  0.00    +0.000 C 
BRANCH   3   4
ATOM      4  C   UNL     1      49.894   4.418  17.708  0.00  0.00    +0.000 A 
ATOM      5  C   UNL     1      50.573   5.302  18.540  0.00  0.00    +0.000 A 
ATOM      6  S   UNL     1      52.065   4.698  19.104  0.00  0.00    +0.000 S 
ATOM      7  C   UNL     1      51.841   3.223  18.282  0.00  0.00    +0.000 A 
ATOM      8  N   UNL     1      52.764   2.227  18.356  0.00  0.00    +0.000 NA
ATOM      9  C   UNL     1      52.453   1.167  17.688  0.00  0.00    +0.000 A 
ATOM     10  N   UNL     1      51.305   1.010  16.948  0.00  0.00    +0.000 N 
ATOM     11  C   UNL     1      50.343   1.987  16.846  0.00  0.00    +0.000 A 
ATOM     12  O   UNL     1      49.320   1.816  16.190  0.00  0.00    +0.000 OA
ATOM     13  C   UNL     1      50.655   3.202  17.577  0.00  0.00    +0.000 A 
ATOM     14  H   UNL     1      51.126   0.150  16.457  0.00  0.00    +0.000 HD
ENDBRANCH   3   4
BRANCH   3  15
ATOM     15  C   UNL     1      47.375   4.210  18.001  0.00  0.00    +0.000 C 
BRANCH  15  16
ATOM     16  N   UNL     1      46.797   2.913  17.619  0.00  0.00    +0.000 NA
ATOM     17  H   UNL     1      46.767   2.293  18.423  0.00  0.00    +0.000 HD
ATOM     18  H   UNL     1      47.404   2.491  16.915  0.00  0.00    +0.000 HD
ENDBRANCH  15  16
ENDBRANCH   3  15
ENDBRANCH   1   3
BRANCH   1  19
ATOM     19  C   UNL     1      49.143   6.478  15.497  0.00  0.00    +0.000 C 
BRANCH  19  20
ATOM     20  C   UNL     1      48.113   6.721  14.414  0.00  0.00    +0.000 A 
ATOM     21  C   UNL     1      47.431   5.646  13.827  0.00  0.00    +0.000 A 
ATOM     22  C   UNL     1      46.488   5.871  12.823  0.00  0.00    +0.000 A 
ATOM     23  C   UNL     1      46.184   7.173  12.402  0.00  0.00    +0.000 A 
ATOM     24  C   UNL     1      46.864   8.247  12.988  0.00  0.00    +0.000 A 
ATOM     25  C   UNL     1      47.823   8.022  13.981  0.00  0.00    +0.000 A 
BRANCH  23  26
ATOM     26  C   UNL     1      45.092   7.397  11.382  0.00  0.00    +0.000 C 
BRANCH  26  27
ATOM     27  N   UNL     1      43.812   7.056  11.991  0.00  0.00    +0.000 NA
ATOM     28  H   UNL     1      43.387   7.909  12.356  0.00  0.00    +0.000 HD
BRANCH  27  29
ATOM     29  C   UNL     1      42.892   6.374  11.093  0.00  0.00    +0.000 C 
BRANCH  29  30
ATOM     30  C   UNL     1      42.679   4.957  11.629  0.00  0.00    +0.000 C 
ATOM     31  C   UNL     1      43.582   3.910  10.997  0.00  0.00    +0.000 C 
ATOM     32  C   UNL     1      43.573   2.818  12.047  0.00  0.00    +0.000 C 
ATOM     33  N   UNL     1      43.681   3.543  13.316  0.00  0.00    +0.000 NA
ATOM     34  C   UNL     1      42.955   4.814  13.130  0.00  0.00    +0.000 C 
ATOM     35  H   UNL     1      44.664   3.768  13.479  0.00  0.00    +0.000 HD
ENDBRANCH  29  30
ENDBRANCH  27  29
ENDBRANCH  26  27
ENDBRANCH  23  26
ENDBRANCH  19  20
ENDBRANCH   1  19
TORSDOF 10
ENDMDL
MODEL 3
REMARK VINA RESULT:    -7.493      1.799      2.673
REMARK INTER + INTRA:         -12.553
REMARK INTER:                 -11.304
REMARK INTRA:                  -1.249
REMARK UNBOUND:                -0.899
REMARK  Name = 
REMARK  10 active torsions:
REMARK  status: ('A' for Active; 'I' for Inactive)
REMARK    1  A    between atoms: N_1  and  C_2
REMARK    2  A    between atoms: C_2  and  C_3
REMARK    3  A    between atoms: C_3  and  N_4
REMARK    4  A    between atoms: C_3  and  C_20
REMARK    5  A    between atoms: N_4  and  C_5
REMARK    6  A    between atoms: C_5  and  C_6
REMARK    7  A    between atoms: C_9  and  C_10
REMARK    8  A    between atoms: C_10  and  N_11
REMARK    9  A    between atoms: N_11  and  C_12
REMARK   10  A    between atoms: C_12  and  C_13
REMARK                            x       y       z     vdW  Elec       q    Type
REMARK                         _______ _______ _______ _____ _____    ______ ____
ROOT
ATOM      1  N   UNL     1      48.284   6.004  14.721  0.00  0.00    +0.000 NA
ATOM      2  H   UNL     1      47.502   5.479  15.111  0.00  0.00    +0.000 HD
ENDROOT
BRANCH   1   3
ATOM      3  C   UNL     1      48.718   6.974  15.747  0.00  0.00    +0.000 C 
BRANCH   3   4
ATOM      4  C   UNL     1      50.145   6.598  16.137  0.00  0.00    +0.000 A 
ATOM      5  C   UNL     1      51.285   7.302  15.764  0.00  0.00    +0.000 A 
ATOM      6  S   UNL     1      52.730   6.632  16.374  0.00  0.00    +0.000 S 
ATOM      7  C   UNL     1      51.881   5.397  17.182  0.00  0.00    +0.000 A 
ATOM      8  N   UNL     1      52.532   4.464  17.927  0.00  0.00    +0.000 NA
ATOM      9  C   UNL     1      51.755   3.597  18.485  0.00  0.00    +0.000 A 
ATOM     10  N   UNL     1      50.385   3.572  18.366  0.00  0.00    +0.000 N 
ATOM     11  C   UNL     1      49.684   4.495  17.627  0.00  0.00    +0.000 A 
ATOM     12  O   UNL     1      48.460   4.460  17.549  0.00  0.00    +0.000 OA
ATOM     13  C   UNL     1      50.519   5.487  16.974  0.00  0.00    +0.000 A 
ATOM     14  H   UNL     1      49.844   2.867  18.837  0.00  0.00    +0.000 HD
ENDBRANCH   3   4
BRANCH   3  15
ATOM     15  C   UNL     1      48.641   8.461  15.278  0.00  0.00    +0.000 C 
BRANCH  15  16
ATOM     16  N   UNL     1      47.623   9.257  15.979  0.00  0.00    +0.000 NA
ATOM     17  H   UNL     1      46.836   9.441  15.364  0.00  0.00    +0.000 HD
ATOM     18  H   UNL     1      48.041  10.153  16.234  0.00  0.00    +0.000 HD
ENDBRANCH  15  16
ENDBRANCH   3  15
ENDBRANCH   1   3
BRANCH   1  19
ATOM     19  C   UNL     1      47.836   6.623  13.478  0.00  0.00    +0.000 C 
BRANCH  19  20
ATOM     20  C   UNL     1      46.819   5.742  12.786  0.00  0.00    +0.000 A 
ATOM     21  C   UNL     1      46.431   4.521  13.355  0.00  0.00    +0.000 A 
ATOM     22  C   UNL     1      45.500   3.706  12.712  0.00  0.00    +0.000 A 
ATOM     23  C   UNL     1      44.914   4.102  11.501  0.00  0.00    +0.000 A 
ATOM     24  C   UNL     1      45.300   5.320  10.932  0.00  0.00    +0.000 A 
ATOM     25  C   UNL     1      46.247   6.130  11.566  0.00  0.00    +0.000 A 
BRANCH  23  26
ATOM     26  C   UNL     1      43.838   3.247  10.872  0.00  0.00    +0.000 C 
BRANCH  26  27
ATOM     27  N   UNL     1      44.026   3.252   9.427  0.00  0.00    +0.000 NA
ATOM     28  H   UNL     1      44.563   4.081   9.172  0.00  0.00    +0.000 HD
BRANCH  27  29
ATOM     29  C   UNL     1      44.664   2.053   8.907  0.00  0.00    +0.000 C 
BRANCH  29  30
ATOM     30  C   UNL     1      46.065   2.437   8.428  0.00  0.00    +0.000 C 
ATOM     31  C   UNL     1      46.756   1.365   7.601  0.00  0.00    +0.000 C 
ATOM     32  C   UNL     1      47.777   2.178   6.832  0.00  0.00    +0.000 C 
ATOM     33  N   UNL     1      47.045   3.382   6.430  0.00  0.00    +0.000 NA
ATOM     34  C   UNL     1      46.092   3.671   7.519  0.00  0.00    +0.000 C 
ATOM     35  H   UNL     1      46.503   3.167   5.591  0.00  0.00    +0.000 HD
ENDBRANCH  29  30
ENDBRANCH  27  29
ENDBRANCH  26  27
ENDBRANCH  23  26
ENDBRANCH  19  20
ENDBRANCH   1  19
TORSDOF 10
ENDMDL
MODEL 4
REMARK VINA RESULT:    -7.259      2.321      3.211
REMARK INTER + INTRA:         -12.189
REMARK INTER:                 -11.342
REMARK INTRA:                  -0.847
REMARK UNBOUND:                -0.899
REMARK  Name = 
REMARK  10 active torsions:
REMARK  status: ('A' for Active; 'I' for Inactive)
REMARK    1  A    between atoms: N_1  and  C_2
REMARK    2  A    between atoms: C_2  and  C_3
REMARK    3  A    between atoms: C_3  and  N_4
REMARK    4  A    between atoms: C_3  and  C_20
REMARK    5  A    between atoms: N_4  and  C_5
REMARK    6  A    between atoms: C_5  and  C_6
REMARK    7  A    between atoms: C_9  and  C_10
REMARK    8  A    between atoms: C_10  and  N_11
REMARK    9  A    between atoms: N_11  and  C_12
REMARK   10  A    between atoms: C_12  and  C_13
REMARK                            x       y       z     vdW  Elec       q    Type
REMARK                         _______ _______ _______ _____ _____    ______ ____
ROOT
ATOM      1  N   UNL     1      47.292   4.969  15.952  0.00  0.00    +0.000 NA
ATOM      2  H   UNL     1      47.001   5.717  16.581  0.00  0.00    +0.000 HD
ENDROOT
BRANCH   1   3
ATOM      3  C   UNL     1      48.408   4.255  16.604  0.00  0.00    +0.000 C 
BRANCH   3   4
ATOM      4  C   UNL     1      49.247   5.306  17.324  0.00  0.00    +0.000 A 
ATOM      5  C   UNL     1      50.572   5.607  17.030  0.00  0.00    +0.000 A 
ATOM      6  S   UNL     1      51.224   6.842  18.009  0.00  0.00    +0.000 S 
ATOM      7  C   UNL     1      49.750   7.039  18.838  0.00  0.00    +0.000 A 
ATOM      8  N   UNL     1      49.612   7.969  19.820  0.00  0.00    +0.000 NA
ATOM      9  C   UNL     1      48.436   8.007  20.351  0.00  0.00    +0.000 A 
ATOM     10  N   UNL     1      47.382   7.198  19.994  0.00  0.00    +0.000 N 
ATOM     11  C   UNL     1      47.474   6.247  19.005  0.00  0.00    +0.000 A 
ATOM     12  O   UNL     1      46.514   5.548  18.696  0.00  0.00    +0.000 OA
ATOM     13  C   UNL     1      48.783   6.164  18.385  0.00  0.00    +0.000 A 
ATOM     14  H   UNL     1      46.490   7.290  20.449  0.00  0.00    +0.000 HD
ENDBRANCH   3   4
BRANCH   3  15
ATOM     15  C   UNL     1      47.946   3.136  17.591  0.00  0.00    +0.000 C 
BRANCH  15  16
ATOM     16  N   UNL     1      46.499   2.877  17.565  0.00  0.00    +0.000 NA
ATOM     17  H   UNL     1      46.292   2.102  16.941  0.00  0.00    +0.000 HD
ATOM     18  H   UNL     1      46.034   3.710  17.201  0.00  0.00    +0.000 HD
ENDBRANCH  15  16
ENDBRANCH   3  15
ENDBRANCH   1   3
BRANCH   1  19
ATOM     19  C   UNL     1      47.646   5.571  14.670  0.00  0.00    +0.000 C 
BRANCH  19  20
ATOM     20  C   UNL     1      46.706   5.095  13.585  0.00  0.00    +0.000 A 
ATOM     21  C   UNL     1      46.449   3.727  13.415  0.00  0.00    +0.000 A 
ATOM     22  C   UNL     1      45.588   3.289  12.409  0.00  0.00    +0.000 A 
ATOM     23  C   UNL     1      44.942   4.205  11.567  0.00  0.00    +0.000 A 
ATOM     24  C   UNL     1      45.197   5.571  11.735  0.00  0.00    +0.000 A 
ATOM     25  C   UNL     1      46.075   6.010  12.731  0.00  0.00    +0.000 A 
BRANCH  23  26
ATOM     26  C   UNL     1      43.942   3.712  10.548  0.00  0.00    +0.000 C 
BRANCH  26  27
ATOM     27  N   UNL     1      44.653   2.945   9.533  0.00  0.00    +0.000 NA
ATOM     28  H   UNL     1      43.975   2.389   9.011  0.00  0.00    +0.000 HD
BRANCH  27  29
ATOM     29  C   UNL     1      45.450   3.757   8.626  0.00  0.00    +0.000 C 
BRANCH  29  30
ATOM     30  C   UNL     1      45.894   2.864   7.466  0.00  0.00    +0.000 C 
ATOM     31  C   UNL     1      46.911   3.509   6.538  0.00  0.00    +0.000 C 
ATOM     32  C   UNL     1      47.556   2.298   5.896  0.00  0.00    +0.000 C 
ATOM     33  N   UNL     1      47.726   1.355   7.005  0.00  0.00    +0.000 NA
ATOM     34  C   UNL     1      46.579   1.566   7.908  0.00  0.00    +0.000 C 
ATOM     35  H   UNL     1      48.574   1.605   7.516  0.00  0.00    +0.000 HD
ENDBRANCH  29  30
ENDBRANCH  27  29
ENDBRANCH  26  27
ENDBRANCH  23  26
ENDBRANCH  19  20
ENDBRANCH   1  19
TORSDOF 10
ENDMDL
MODEL 5
REMARK VINA RESULT:    -7.097      2.857      3.836
REMARK INTER + INTRA:         -11.938
REMARK INTER:                 -10.997
REMARK INTRA:                  -0.941
REMARK UNBOUND:                -0.899
REMARK  Name = 
REMARK  10 active torsions:
REMARK  status: ('A' for Active; 'I' for Inactive)
REMARK    1  A    between atoms: N_1  and  C_2
REMARK    2  A    between atoms: C_2  and  C_3
REMARK    3  A    between atoms: C_3  and  N_4
REMARK    4  A    between atoms: C_3  and  C_20
REMARK    5  A    between atoms: N_4  and  C_5
REMARK    6  A    between atoms: C_5  and  C_6
REMARK    7  A    between atoms: C_9  and  C_10
REMARK    8  A    between atoms: C_10  and  N_11
REMARK    9  A    between atoms: N_11  and  C_12
REMARK   10  A    between atoms: C_12  and  C_13
REMARK                            x       y       z     vdW  Elec       q    Type
REMARK                         _______ _______ _______ _____ _____    ______ ____
ROOT
ATOM      1  N   UNL     1      47.147   7.626  14.028  0.00  0.00    +0.000 NA
ATOM      2  H   UNL     1      46.599   7.718  14.882  0.00  0.00    +0.000 HD
ENDROOT
BRANCH   1   3
ATOM      3  C   UNL     1      48.340   8.484  14.177  0.00  0.00    +0.000 C 
BRANCH   3   4
ATOM      4  C   UNL     1      48.572   8.664  15.675  0.00  0.00    +0.000 A 
ATOM      5  C   UNL     1      48.609   9.888  16.334  0.00  0.00    +0.000 A 
ATOM      6  S   UNL     1      48.874   9.750  18.013  0.00  0.00    +0.000 S 
ATOM      7  C   UNL     1      48.916   8.050  17.922  0.00  0.00    +0.000 A 
ATOM      8  N   UNL     1      49.099   7.288  19.034  0.00  0.00    +0.000 NA
ATOM      9  C   UNL     1      49.100   6.018  18.810  0.00  0.00    +0.000 A 
ATOM     10  N   UNL     1      48.940   5.434  17.575  0.00  0.00    +0.000 N 
ATOM     11  C   UNL     1      48.750   6.162  16.425  0.00  0.00    +0.000 A 
ATOM     12  O   UNL     1      48.595   5.616  15.337  0.00  0.00    +0.000 OA
ATOM     13  C   UNL     1      48.748   7.599  16.629  0.00  0.00    +0.000 A 
ATOM     14  H   UNL     1      48.946   4.432  17.478  0.00  0.00    +0.000 HD
ENDBRANCH   3   4
BRANCH   3  15
ATOM     15  C   UNL     1      49.616   7.913  13.479  0.00  0.00    +0.000 C 
BRANCH  15  16
ATOM     16  N   UNL     1      49.410   6.609  12.832  0.00  0.00    +0.000 NA
ATOM     17  H   UNL     1      48.687   6.680  12.122  0.00  0.00    +0.000 HD
ATOM     18  H   UNL     1      49.090   5.949  13.544  0.00  0.00    +0.000 HD
ENDBRANCH  15  16
ENDBRANCH   3  15
ENDBRANCH   1   3
BRANCH   1  19
ATOM     19  C   UNL     1      46.295   7.995  12.902  0.00  0.00    +0.000 C 
BRANCH  19  20
ATOM     20  C   UNL     1      45.642   6.765  12.310  0.00  0.00    +0.000 A 
ATOM     21  C   UNL     1      45.953   6.351  11.007  0.00  0.00    +0.000 A 
ATOM     22  C   UNL     1      45.344   5.222  10.459  0.00  0.00    +0.000 A 
ATOM     23  C   UNL     1      44.433   4.464  11.207  0.00  0.00    +0.000 A 
ATOM     24  C   UNL     1      44.121   4.875  12.508  0.00  0.00    +0.000 A 
ATOM     25  C   UNL     1      44.717   6.017  13.051  0.00  0.00    +0.000 A 
BRANCH  23  26
ATOM     26  C   UNL     1      43.859   3.192  10.626  0.00  0.00    +0.000 C 
BRANCH  26  27
ATOM     27  N   UNL     1      44.961   2.347  10.182  0.00  0.00    +0.000 NA
ATOM     28  H   UNL     1      44.968   1.497  10.747  0.00  0.00    +0.000 HD
BRANCH  27  29
ATOM     29  C   UNL     1      44.919   2.014   8.766  0.00  0.00    +0.000 C 
BRANCH  29  30
ATOM     30  C   UNL     1      46.264   2.408   8.153  0.00  0.00    +0.000 C 
ATOM     31  C   UNL     1      46.955   1.286   7.395  0.00  0.00    +0.000 C 
ATOM     32  C   UNL     1      47.880   2.056   6.476  0.00  0.00    +0.000 C 
ATOM     33  N   UNL     1      47.062   3.176   6.003  0.00  0.00    +0.000 NA
ATOM     34  C   UNL     1      46.168   3.536   7.120  0.00  0.00    +0.000 C 
ATOM     35  H   UNL     1      46.479   2.847   5.231  0.00  0.00    +0.000 HD
ENDBRANCH  29  30
ENDBRANCH  27  29
ENDBRANCH  26  27
ENDBRANCH  23  26
ENDBRANCH  19  20
ENDBRANCH   1  19
TORSDOF 10
ENDMDL
MODEL 6
REMARK VINA RESULT:    -6.984      3.024      4.057
REMARK INTER + INTRA:         -11.761
REMARK INTER:                 -10.698
REMARK INTRA:                  -1.063
REMARK UNBOUND:                -0.899
REMARK  Name = 
REMARK  10 active torsions:
REMARK  status: ('A' for Active; 'I' for Inactive)
REMARK    1  A    between atoms: N_1  and  C_2
REMARK    2  A    between atoms: C_2  and  C_3
REMARK    3  A    between atoms: C_3  and  N_4
REMARK    4  A    between atoms: C_3  and  C_20
REMARK    5  A    between atoms: N_4  and  C_5
REMARK    6  A    between atoms: C_5  and  C_6
REMARK    7  A    between atoms: C_9  and  C_10
REMARK    8  A    between atoms: C_10  and  N_11
REMARK    9  A    between atoms: N_11  and  C_12
REMARK   10  A    between atoms: C_12  and  C_13
REMARK                            x       y       z     vdW  Elec       q    Type
REMARK                         _______ _______ _______ _____ _____    ______ ____
ROOT
ATOM      1  N   UNL     1      48.849   6.503  14.320  0.00  0.00    +0.000 NA
ATOM      2  H   UNL     1      48.483   5.573  14.522  0.00  0.00    +0.000 HD
ENDROOT
BRANCH   1   3
ATOM      3  C   UNL     1      49.330   7.073  15.595  0.00  0.00    +0.000 C 
BRANCH   3   4
ATOM      4  C   UNL     1      48.677   6.267  16.715  0.00  0.00    +0.000 A 
ATOM      5  C   UNL     1      48.348   4.918  16.638  0.00  0.00    +0.000 A 
ATOM      6  S   UNL     1      47.642   4.307  18.066  0.00  0.00    +0.000 S 
ATOM      7  C   UNL     1      47.781   5.814  18.845  0.00  0.00    +0.000 A 
ATOM      8  N   UNL     1      47.368   5.985  20.130  0.00  0.00    +0.000 NA
ATOM      9  C   UNL     1      47.543   7.179  20.587  0.00  0.00    +0.000 A 
ATOM     10  N   UNL     1      48.092   8.223  19.879  0.00  0.00    +0.000 N 
ATOM     11  C   UNL     1      48.526   8.097  18.581  0.00  0.00    +0.000 A 
ATOM     12  O   UNL     1      49.026   9.040  17.976  0.00  0.00    +0.000 OA
ATOM     13  C   UNL     1      48.341   6.770  18.022  0.00  0.00    +0.000 A 
ATOM     14  H   UNL     1      48.204   9.127  20.306  0.00  0.00    +0.000 HD
ENDBRANCH   3   4
BRANCH   3  15
ATOM     15  C   UNL     1      50.885   7.069  15.737  0.00  0.00    +0.000 C 
BRANCH  15  16
ATOM     16  N   UNL     1      51.593   7.617  14.572  0.00  0.00    +0.000 NA
ATOM     17  H   UNL     1      52.467   7.119  14.426  0.00  0.00    +0.000 HD
ATOM     18  H   UNL     1      51.815   8.595  14.767  0.00  0.00    +0.000 HD
ENDBRANCH  15  16
ENDBRANCH   3  15
ENDBRANCH   1   3
BRANCH   1  19
ATOM     19  C   UNL     1      47.784   7.280  13.693  0.00  0.00    +0.000 C 
BRANCH  19  20
ATOM     20  C   UNL     1      46.891   6.380  12.867  0.00  0.00    +0.000 A 
ATOM     21  C   UNL     1      46.527   5.111  13.339  0.00  0.00    +0.000 A 
ATOM     22  C   UNL     1      45.711   4.279  12.574  0.00  0.00    +0.000 A 
ATOM     23  C   UNL     1      45.214   4.705  11.333  0.00  0.00    +0.000 A 
ATOM     24  C   UNL     1      45.575   5.971  10.861  0.00  0.00    +0.000 A 
ATOM     25  C   UNL     1      46.409   6.798  11.619  0.00  0.00    +0.000 A 
BRANCH  23  26
ATOM     26  C   UNL     1      44.254   3.824  10.567  0.00  0.00    +0.000 C 
BRANCH  26  27
ATOM     27  N   UNL     1      44.834   3.531   9.262  0.00  0.00    +0.000 NA
ATOM     28  H   UNL     1      45.624   4.158   9.109  0.00  0.00    +0.000 HD
BRANCH  27  29
ATOM     29  C   UNL     1      45.243   2.146   9.092  0.00  0.00    +0.000 C 
BRANCH  29  30
ATOM     30  C   UNL     1      45.903   2.017   7.719  0.00  0.00    +0.000 C 
ATOM     31  C   UNL     1      46.673   3.252   7.279  0.00  0.00    +0.000 C 
ATOM     32  C   UNL     1      47.628   2.674   6.256  0.00  0.00    +0.000 C 
ATOM     33  N   UNL     1      48.084   1.420   6.862  0.00  0.00    +0.000 NA
ATOM     34  C   UNL     1      46.942   0.893   7.633  0.00  0.00    +0.000 C 
ATOM     35  H   UNL     1      48.834   1.634   7.522  0.00  0.00    +0.000 HD
ENDBRANCH  29  30
ENDBRANCH  27  29
ENDBRANCH  26  27
ENDBRANCH  23  26
ENDBRANCH  19  20
ENDBRANCH   1  19
TORSDOF 10
ENDMDL
MODEL 7
REMARK VINA RESULT:    -6.811      3.454      9.104
REMARK INTER + INTRA:         -11.494
REMARK INTER:                  -9.948
REMARK INTRA:                  -1.546
REMARK UNBOUND:                -0.899
REMARK  Name = 
REMARK  10 active torsions:
REMARK  status: ('A' for Active; 'I' for Inactive)
REMARK    1  A    between atoms: N_1  and  C_2
REMARK    2  A    between atoms: C_2  and  C_3
REMARK    3  A    between atoms: C_3  and  N_4
REMARK    4  A    between atoms: C_3  and  C_20
REMARK    5  A    between atoms: N_4  and  C_5
REMARK    6  A    between atoms: C_5  and  C_6
REMARK    7  A    between atoms: C_9  and  C_10
REMARK    8  A    between atoms: C_10  and  N_11
REMARK    9  A    between atoms: N_11  and  C_12
REMARK   10  A    between atoms: C_12  and  C_13
REMARK                            x       y       z     vdW  Elec       q    Type
REMARK                         _______ _______ _______ _____ _____    ______ ____
ROOT
ATOM      1  N   UNL     1      46.847   6.453  11.513  0.00  0.00    +0.000 NA
ATOM      2  H   UNL     1      47.458   6.764  10.759  0.00  0.00    +0.000 HD
ENDROOT
BRANCH   1   3
ATOM      3  C   UNL     1      45.455   6.641  11.056  0.00  0.00    +0.000 C 
BRANCH   3   4
ATOM      4  C   UNL     1      44.790   5.268  11.085  0.00  0.00    +0.000 A 
ATOM      5  C   UNL     1      43.948   4.812  12.094  0.00  0.00    +0.000 A 
ATOM      6  S   UNL     1      43.354   3.235  11.825  0.00  0.00    +0.000 S 
ATOM      7  C   UNL     1      44.176   3.121  10.337  0.00  0.00    +0.000 A 
ATOM      8  N   UNL     1      44.082   2.006   9.563  0.00  0.00    +0.000 NA
ATOM      9  C   UNL     1      44.753   2.069   8.463  0.00  0.00    +0.000 A 
ATOM     10  N   UNL     1      45.515   3.141   8.063  0.00  0.00    +0.000 N 
ATOM     11  C   UNL     1      45.637   4.289   8.810  0.00  0.00    +0.000 A 
ATOM     12  O   UNL     1      46.312   5.238   8.423  0.00  0.00    +0.000 OA
ATOM     13  C   UNL     1      44.904   4.260  10.062  0.00  0.00    +0.000 A 
ATOM     14  H   UNL     1      46.007   3.121   7.185  0.00  0.00    +0.000 HD
ENDBRANCH   3   4
BRANCH   3  15
ATOM     15  C   UNL     1      44.648   7.671  11.908  0.00  0.00    +0.000 C 
BRANCH  15  16
ATOM     16  N   UNL     1      43.718   8.497  11.124  0.00  0.00    +0.000 NA
ATOM     17  H   UNL     1      43.160   9.079  11.742  0.00  0.00    +0.000 HD
ATOM     18  H   UNL     1      43.086   7.872  10.622  0.00  0.00    +0.000 HD
ENDBRANCH  15  16
ENDBRANCH   3  15
ENDBRANCH   1   3
BRANCH   1  19
ATOM     19  C   UNL     1      47.182   7.219  12.710  0.00  0.00    +0.000 C 
BRANCH  19  20
ATOM     20  C   UNL     1      47.477   6.288  13.866  0.00  0.00    +0.000 A 
ATOM     21  C   UNL     1      46.873   5.025  13.936  0.00  0.00    +0.000 A 
ATOM     22  C   UNL     1      47.139   4.172  15.006  0.00  0.00    +0.000 A 
ATOM     23  C   UNL     1      48.035   4.547  16.017  0.00  0.00    +0.000 A 
ATOM     24  C   UNL     1      48.640   5.807  15.949  0.00  0.00    +0.000 A 
ATOM     25  C   UNL     1      48.359   6.671  14.886  0.00  0.00    +0.000 A 
BRANCH  23  26
ATOM     26  C   UNL     1      48.380   3.568  17.116  0.00  0.00    +0.000 C 
BRANCH  26  27
ATOM     27  N   UNL     1      47.728   4.001  18.345  0.00  0.00    +0.000 NA
ATOM     28  H   UNL     1      47.083   3.271  18.646  0.00  0.00    +0.000 HD
BRANCH  27  29
ATOM     29  C   UNL     1      48.651   4.338  19.419  0.00  0.00    +0.000 C 
BRANCH  29  30
ATOM     30  C   UNL     1      48.414   5.800  19.798  0.00  0.00    +0.000 C 
ATOM     31  C   UNL     1      49.468   6.760  19.269  0.00  0.00    +0.000 C 
ATOM     32  C   UNL     1      48.723   8.078  19.285  0.00  0.00    +0.000 C 
ATOM     33  N   UNL     1      47.389   7.740  18.781  0.00  0.00    +0.000 NA
ATOM     34  C   UNL     1      47.099   6.375  19.261  0.00  0.00    +0.000 C 
ATOM     35  H   UNL     1      47.426   7.710  17.761  0.00  0.00    +0.000 HD
ENDBRANCH  29  30
ENDBRANCH  27  29
ENDBRANCH  26  27
ENDBRANCH  23  26
ENDBRANCH  19  20
ENDBRANCH   1  19
TORSDOF 10
ENDMDL
MODEL 8
REMARK VINA RESULT:    -6.723      3.192      8.584
REMARK INTER + INTRA:         -11.356
REMARK INTER:                  -9.934
REMARK INTRA:                  -1.422
REMARK UNBOUND:                -0.899
REMARK  Name = 
REMARK  10 active torsions:
REMARK  status: ('A' for Active; 'I' for Inactive)
REMARK    1  A    between atoms: N_1  and  C_2
REMARK    2  A    between atoms: C_2  and  C_3
REMARK    3  A    between atoms: C_3  and  N_4
REMARK    4  A    between atoms: C_3  and  C_20
REMARK    5  A    between atoms: N_4  and  C_5
REMARK    6  A    between atoms: C_5  and  C_6
REMARK    7  A    between atoms: C_9  and  C_10
REMARK    8  A    between atoms: C_10  and  N_11
REMARK    9  A    between atoms: N_11  and  C_12
REMARK   10  A    between atoms: C_12  and  C_13
REMARK                            x       y       z     vdW  Elec       q    Type
REMARK                         _______ _______ _______ _____ _____    ______ ____
ROOT
ATOM      1  N   UNL     1      47.074   6.636  11.467  0.00  0.00    +0.000 NA
ATOM      2  H   UNL     1      47.615   6.368  10.645  0.00  0.00    +0.000 HD
ENDROOT
BRANCH   1   3
ATOM      3  C   UNL     1      45.670   6.793  11.037  0.00  0.00    +0.000 C 
BRANCH   3   4
ATOM      4  C   UNL     1      44.993   5.440  11.231  0.00  0.00    +0.000 A 
ATOM      5  C   UNL     1      44.297   5.053  12.372  0.00  0.00    +0.000 A 
ATOM      6  S   UNL     1      43.644   3.480  12.271  0.00  0.00    +0.000 S 
ATOM      7  C   UNL     1      44.242   3.274  10.690  0.00  0.00    +0.000 A 
ATOM      8  N   UNL     1      44.019   2.126   9.996  0.00  0.00    +0.000 NA
ATOM      9  C   UNL     1      44.527   2.119   8.809  0.00  0.00    +0.000 A 
ATOM     10  N   UNL     1      45.242   3.152   8.250  0.00  0.00    +0.000 N 
ATOM     11  C   UNL     1      45.489   4.331   8.912  0.00  0.00    +0.000 A 
ATOM     12  O   UNL     1      46.117   5.244   8.385  0.00  0.00    +0.000 OA
ATOM     13  C   UNL     1      44.942   4.381  10.255  0.00  0.00    +0.000 A 
ATOM     14  H   UNL     1      45.602   3.077   7.314  0.00  0.00    +0.000 HD
ENDBRANCH   3   4
BRANCH   3  15
ATOM     15  C   UNL     1      44.902   7.917  11.802  0.00  0.00    +0.000 C 
BRANCH  15  16
ATOM     16  N   UNL     1      43.709   8.411  11.098  0.00  0.00    +0.000 NA
ATOM     17  H   UNL     1      43.565   7.885  10.241  0.00  0.00    +0.000 HD
ATOM     18  H   UNL     1      43.871   9.388  10.847  0.00  0.00    +0.000 HD
ENDBRANCH  15  16
ENDBRANCH   3  15
ENDBRANCH   1   3
BRANCH   1  19
ATOM     19  C   UNL     1      47.662   7.854  12.015  0.00  0.00    +0.000 C 
BRANCH  19  20
ATOM     20  C   UNL     1      48.434   7.546  13.280  0.00  0.00    +0.000 A 
ATOM     21  C   UNL     1      49.643   8.200  13.554  0.00  0.00    +0.000 A 
ATOM     22  C   UNL     1      50.357   7.909  14.716  0.00  0.00    +0.000 A 
ATOM     23  C   UNL     1      49.868   6.979  15.645  0.00  0.00    +0.000 A 
ATOM     24  C   UNL     1      48.661   6.326  15.373  0.00  0.00    +0.000 A 
ATOM     25  C   UNL     1      47.954   6.603  14.200  0.00  0.00    +0.000 A 
BRANCH  23  26
ATOM     26  C   UNL     1      50.612   6.751  16.941  0.00  0.00    +0.000 C 
BRANCH  26  27
ATOM     27  N   UNL     1      49.680   6.207  17.921  0.00  0.00    +0.000 NA
ATOM     28  H   UNL     1      48.829   5.919  17.436  0.00  0.00    +0.000 HD
BRANCH  27  29
ATOM     29  C   UNL     1      50.217   5.103  18.702  0.00  0.00    +0.000 C 
BRANCH  29  30
ATOM     30  C   UNL     1      49.337   3.878  18.449  0.00  0.00    +0.000 C 
ATOM     31  C   UNL     1      47.908   4.209  18.049  0.00  0.00    +0.000 C 
ATOM     32  C   UNL     1      47.481   2.939  17.344  0.00  0.00    +0.000 C 
ATOM     33  N   UNL     1      48.647   2.570  16.536  0.00  0.00    +0.000 NA
ATOM     34  C   UNL     1      49.834   2.983  17.308  0.00  0.00    +0.000 C 
ATOM     35  H   UNL     1      48.630   3.119  15.675  0.00  0.00    +0.000 HD
ENDBRANCH  29  30
ENDBRANCH  27  29
ENDBRANCH  26  27
ENDBRANCH  23  26
ENDBRANCH  19  20
ENDBRANCH   1  19
TORSDOF 10
ENDMDL
MODEL 9
REMARK VINA RESULT:    -6.593      3.656      8.176
REMARK INTER + INTRA:         -11.154
REMARK INTER:                  -9.122
REMARK INTRA:                  -2.032
REMARK UNBOUND:                -0.899
REMARK  Name = 
REMARK  10 active torsions:
REMARK  status: ('A' for Active; 'I' for Inactive)
REMARK    1  A    between atoms: N_1  and  C_2
REMARK    2  A    between atoms: C_2  and  C_3
REMARK    3  A    between atoms: C_3  and  N_4
REMARK    4  A    between atoms: C_3  and  C_20
REMARK    5  A    between atoms: N_4  and  C_5
REMARK    6  A    between atoms: C_5  and  C_6
REMARK    7  A    between atoms: C_9  and  C_10
REMARK    8  A    between atoms: C_10  and  N_11
REMARK    9  A    between atoms: N_11  and  C_12
REMARK   10  A    between atoms: C_12  and  C_13
REMARK                            x       y       z     vdW  Elec       q    Type
REMARK                         _______ _______ _______ _____ _____    ______ ____
ROOT
ATOM      1  N   UNL     1      47.160   8.844  14.396  0.00  0.00    +0.000 NA
ATOM      2  H   UNL     1      46.541   8.572  15.158  0.00  0.00    +0.000 HD
ENDROOT
BRANCH   1   3
ATOM      3  C   UNL     1      47.577   7.607  13.705  0.00  0.00    +0.000 C 
BRANCH   3   4
ATOM      4  C   UNL     1      46.359   7.092  12.944  0.00  0.00    +0.000 A 
ATOM      5  C   UNL     1      45.474   7.888  12.224  0.00  0.00    +0.000 A 
ATOM      6  S   UNL     1      44.220   7.008  11.474  0.00  0.00    +0.000 S 
ATOM      7  C   UNL     1      44.834   5.531  12.059  0.00  0.00    +0.000 A 
ATOM      8  N   UNL     1      44.228   4.349  11.764  0.00  0.00    +0.000 NA
ATOM      9  C   UNL     1      44.812   3.315  12.271  0.00  0.00    +0.000 A 
ATOM     10  N   UNL     1      45.945   3.351  13.049  0.00  0.00    +0.000 N 
ATOM     11  C   UNL     1      46.593   4.520  13.370  0.00  0.00    +0.000 A 
ATOM     12  O   UNL     1      47.611   4.523  14.055  0.00  0.00    +0.000 OA
ATOM     13  C   UNL     1      45.966   5.711  12.827  0.00  0.00    +0.000 A 
ATOM     14  H   UNL     1      46.348   2.500  13.405  0.00  0.00    +0.000 HD
ENDBRANCH   3   4
BRANCH   3  15
ATOM     15  C   UNL     1      48.794   7.802  12.746  0.00  0.00    +0.000 C 
BRANCH  15  16
ATOM     16  N   UNL     1      49.707   6.652  12.697  0.00  0.00    +0.000 NA
ATOM     17  H   UNL     1      49.202   5.794  12.900  0.00  0.00    +0.000 HD
ATOM     18  H   UNL     1      50.417   6.780  13.420  0.00  0.00    +0.000 HD
ENDBRANCH  15  16
ENDBRANCH   3  15
ENDBRANCH   1   3
BRANCH   1  19
ATOM     19  C   UNL     1      48.270   9.603  14.965  0.00  0.00    +0.000 C 
BRANCH  19  20
ATOM     20  C   UNL     1      48.687   9.012  16.294  0.00  0.00    +0.000 A 
ATOM     21  C   UNL     1      47.870   9.156  17.425  0.00  0.00    +0.000 A 
ATOM     22  C   UNL     1      48.259   8.619  18.651  0.00  0.00    +0.000 A 
ATOM     23  C   UNL     1      49.457   7.900  18.772  0.00  0.00    +0.000 A 
ATOM     24  C   UNL     1      50.272   7.753  17.645  0.00  0.00    +0.000 A 
ATOM     25  C   UNL     1      49.893   8.309  16.419  0.00  0.00    +0.000 A 
BRANCH  23  26
ATOM     26  C   UNL     1      49.810   7.245  20.088  0.00  0.00    +0.000 C 
BRANCH  26  27
ATOM     27  N   UNL     1      49.987   5.816  19.863  0.00  0.00    +0.000 NA
ATOM     28  H   UNL     1      50.588   5.442  20.598  0.00  0.00    +0.000 HD
BRANCH  27  29
ATOM     29  C   UNL     1      48.741   5.067  19.795  0.00  0.00    +0.000 C 
BRANCH  29  30
ATOM     30  C   UNL     1      48.584   4.547  18.365  0.00  0.00    +0.000 C 
ATOM     31  C   UNL     1      48.814   3.052  18.218  0.00  0.00    +0.000 C 
ATOM     32  C   UNL     1      48.072   2.748  16.934  0.00  0.00    +0.000 C 
ATOM     33  N   UNL     1      46.834   3.526  17.045  0.00  0.00    +0.000 NA
ATOM     34  C   UNL     1      47.183   4.757  17.780  0.00  0.00    +0.000 C 
ATOM     35  H   UNL     1      46.172   2.999  17.618  0.00  0.00    +0.000 HD
ENDBRANCH  29  30
ENDBRANCH  27  29
ENDBRANCH  26  27
ENDBRANCH  23  26
ENDBRANCH  19  20
ENDBRANCH   1  19
TORSDOF 10
ENDMDL
