MODEL 1
REMARK VINA RESULT:    -9.223      0.000      0.000
REMARK INTER + INTRA:         -13.357
REMARK INTER:                 -12.458
REMARK INTRA:                  -0.899
REMARK UNBOUND:                -0.899
REMARK  Name = 
REMARK  6 active torsions:
REMARK  status: ('A' for Active; 'I' for Inactive)
REMARK    1  A    between atoms: C_2  and  C_4
REMARK    2  A    between atoms: N_8  and  C_9
REMARK    3  A    between atoms: C_9  and  C_10
REMARK    4  A    between atoms: C_10  and  C_13
REMARK    5  A    between atoms: C_17  and  C_18
REMARK    6  A    between atoms: C_18  and  C_19
REMARK                            x       y       z     vdW  Elec       q    Type
REMARK                         _______ _______ _______ _____ _____    ______ ____
ROOT
ATOM      1  C   UNL     1      43.420   5.480  12.202  0.00  0.00    +0.000 C 
ATOM      2  F   UNL     1      42.913   6.645  11.701  0.00  0.00    +0.000 F 
ATOM      3  F   UNL     1      42.661   5.193  13.299  0.00  0.00    +0.000 F 
ENDROOT
BRANCH   1   4
ATOM      4  C   UNL     1      44.896   5.585  12.538  0.00  0.00    +0.000 A 
ATOM      5  C   UNL     1      45.667   6.639  12.023  0.00  0.00    +0.000 A 
ATOM      6  C   UNL     1      47.001   6.782  12.402  0.00  0.00    +0.000 A 
ATOM      7  C   UNL     1      47.572   5.885  13.305  0.00  0.00    +0.000 A 
ATOM      8  C   UNL     1      46.820   4.829  13.832  0.00  0.00    +0.000 A 
ATOM      9  C   UNL     1      45.487   4.679  13.435  0.00  0.00    +0.000 A 
BRANCH   8  10
ATOM     10  C   UNL     1      47.431   3.868  14.833  0.00  0.00    +0.000 C 
BRANCH  10  11
ATOM     11  C   UNL     1      47.286   4.399  16.255  0.00  0.00    +0.000 C 
ATOM     12  C   UNL     1      48.539   4.941  16.967  0.00  0.00    +0.000 C 
ATOM     13  N   UNL     1      48.293   4.045  18.103  0.00  0.00    +0.000 NA
ATOM     14  C   UNL     1      47.256   3.322  17.358  0.00  0.00    +0.000 C 
ATOM     15  H   UNL     1      47.950   4.518  18.939  0.00  0.00    +0.000 HD
ENDBRANCH  10  11
ENDBRANCH   8  10
ENDBRANCH   1   4
BRANCH   1  16
ATOM     16  C   UNL     1      43.234   4.364  11.144  0.00  0.00    +0.000 C 
BRANCH  16  21
ATOM     17  C   UNL     1      46.478   2.511   7.708  0.00  0.00    +0.000 A 
ATOM     18  C   UNL     1      45.651   1.846   8.604  0.00  0.00    +0.000 A 
ATOM     19  C   UNL     1      44.719   2.580   9.334  0.00  0.00    +0.000 A 
ATOM     20  C   UNL     1      44.642   3.962   9.175  0.00  0.00    +0.000 A 
ATOM     21  N   UNL     1      43.679   4.734   9.798  0.00  0.00    +0.000 N 
ATOM     22  N   UNL     1      45.468   4.620   8.339  0.00  0.00    +0.000 NA
ATOM     23  C   UNL     1      46.369   3.889   7.629  0.00  0.00    +0.000 A 
ATOM     24  H   UNL     1      43.899   5.720   9.653  0.00  0.00    +0.000 HD
BRANCH  17  26
ATOM     25  N   UNL     1      48.541   2.523   6.433  0.00  0.00    +0.000 N 
ATOM     26  C   UNL     1      47.451   1.806   6.850  0.00  0.00    +0.000 C 
ATOM     27  O   UNL     1      47.311   0.627   6.557  0.00  0.00    +0.000 OA
ATOM     28  H   UNL     1      49.261   2.001   5.946  0.00  0.00    +0.000 HD
ATOM     29  H   UNL     1      48.820   3.390   6.873  0.00  0.00    +0.000 HD
ENDBRANCH  17  26
ENDBRANCH  16  21
ENDBRANCH   1  16
TORSDOF 6
ENDMDL
MODEL 2
REMARK VINA RESULT:    -8.820      2.220      3.495
REMARK INTER + INTRA:         -12.812
REMARK INTER:                 -11.960
REMARK INTRA:                  -0.852
REMARK UNBOUND:                -0.899
REMARK  Name = 
REMARK  6 active torsions:
REMARK  status: ('A' for Active; 'I' for Inactive)
REMARK    1  A    between atoms: C_2  and  C_4
REMARK    2  A    between atoms: N_8  and  C_9
REMARK    3  A    between atoms: C_9  and  C_10
REMARK    4  A    between atoms: C_10  and  C_13
REMARK    5  A    between atoms: C_17  and  C_18
REMARK    6  A    between atoms: C_18  and  C_19
REMARK                            x       y       z     vdW  Elec       q    Type
REMARK                         _______ _______ _______ _____ _____    ______ ____
ROOT
ATOM      1  C   UNL     1      43.478   5.545  12.237  0.00  0.00    +0.000 C 
ATOM      2  F   UNL     1      43.002   6.690  11.663  0.00  0.00    +0.000 F 
ATOM      3  F   UNL     1      42.654   5.297  13.297  0.00  0.00    +0.000 F 
ENDROOT
BRANCH   1   4
ATOM      4  C   UNL     1      44.931   5.665  12.657  0.00  0.00    +0.000 A 
ATOM      5  C   UNL     1      45.456   4.819  13.646  0.00  0.00    +0.000 A 
ATOM      6  C   UNL     1      46.811   4.872  13.968  0.00  0.00    +0.000 A 
ATOM      7  C   UNL     1      47.655   5.759  13.299  0.00  0.00    +0.000 A 
ATOM      8  C   UNL     1      47.153   6.609  12.307  0.00  0.00    +0.000 A 
ATOM      9  C   UNL     1      45.789   6.565  12.000  0.00  0.00    +0.000 A 
BRANCH   8  10
ATOM     10  C   UNL     1      48.073   7.555  11.561  0.00  0.00    +0.000 C 
BRANCH  10  11
ATOM     11  C   UNL     1      48.169   8.898  12.277  0.00  0.00    +0.000 C 
ATOM     12  C   UNL     1      47.038   9.923  12.071  0.00  0.00    +0.000 C 
ATOM     13  N   UNL     1      48.019  10.939  11.672  0.00  0.00    +0.000 NA
ATOM     14  C   UNL     1      49.087   9.937  11.601  0.00  0.00    +0.000 C 
ATOM     15  H   UNL     1      48.174  11.664  12.373  0.00  0.00    +0.000 HD
ENDBRANCH  10  11
ENDBRANCH   8  10
ENDBRANCH   1   4
BRANCH   1  16
ATOM     16  C   UNL     1      43.356   4.390  11.212  0.00  0.00    +0.000 C 
BRANCH  16  21
ATOM     17  C   UNL     1      46.462   2.453   7.696  0.00  0.00    +0.000 A 
ATOM     18  C   UNL     1      45.642   1.810   8.613  0.00  0.00    +0.000 A 
ATOM     19  C   UNL     1      44.749   2.568   9.366  0.00  0.00    +0.000 A 
ATOM     20  C   UNL     1      44.702   3.952   9.207  0.00  0.00    +0.000 A 
ATOM     21  N   UNL     1      43.775   4.748   9.854  0.00  0.00    +0.000 N 
ATOM     22  N   UNL     1      45.522   4.588   8.349  0.00  0.00    +0.000 NA
ATOM     23  C   UNL     1      46.386   3.834   7.617  0.00  0.00    +0.000 A 
ATOM     24  H   UNL     1      44.016   5.728   9.702  0.00  0.00    +0.000 HD
BRANCH  17  26
ATOM     25  N   UNL     1      48.461   2.428   6.323  0.00  0.00    +0.000 N 
ATOM     26  C   UNL     1      47.395   1.723   6.814  0.00  0.00    +0.000 C 
ATOM     27  O   UNL     1      47.244   0.535   6.564  0.00  0.00    +0.000 OA
ATOM     28  H   UNL     1      49.158   1.891   5.818  0.00  0.00    +0.000 HD
ATOM     29  H   UNL     1      48.759   3.308   6.723  0.00  0.00    +0.000 HD
ENDBRANCH  17  26
ENDBRANCH  16  21
ENDBRANCH   1  16
TORSDOF 6
ENDMDL
MODEL 3
REMARK VINA RESULT:    -8.522      2.234      2.680
REMARK INTER + INTRA:         -12.410
REMARK INTER:                 -11.600
REMARK INTRA:                  -0.811
REMARK UNBOUND:                -0.899
REMARK  Name = 
REMARK  6 active torsions:
REMARK  status: ('A' for Active; 'I' for Inactive)
REMARK    1  A    between atoms: C_2  and  C_4
REMARK    2  A    between atoms: N_8  and  C_9
REMARK    3  A    between atoms: C_9  and  C_10
REMARK    4  A    between atoms: C_10  and  C_13
REMARK    5  A    between atoms: C_17  and  C_18
REMARK    6  A    between atoms: C_18  and  C_19
REMARK                            x       y       z     vdW  Elec       q    Type
REMARK                         _______ _______ _______ _____ _____    ______ ____
ROOT
ATOM      1  C   UNL     1      43.085   5.111  12.187  0.00  0.00    +0.000 C 
ATOM      2  F   UNL     1      41.866   5.660  11.904  0.00  0.00    +0.000 F 
ATOM      3  F   UNL     1      42.955   4.548  13.423  0.00  0.00    +0.000 F 
ENDROOT
BRANCH   1   4
ATOM      4  C   UNL     1      44.207   6.131  12.136  0.00  0.00    +0.000 A 
ATOM      5  C   UNL     1      43.981   7.409  11.605  0.00  0.00    +0.000 A 
ATOM      6  C   UNL     1      44.988   8.372  11.638  0.00  0.00    +0.000 A 
ATOM      7  C   UNL     1      46.224   8.072  12.212  0.00  0.00    +0.000 A 
ATOM      8  C   UNL     1      46.470   6.803  12.751  0.00  0.00    +0.000 A 
ATOM      9  C   UNL     1      45.461   5.835  12.699  0.00  0.00    +0.000 A 
BRANCH   8  10
ATOM     10  C   UNL     1      47.803   6.483  13.398  0.00  0.00    +0.000 C 
BRANCH  10  11
ATOM     11  C   UNL     1      48.803   7.612  13.172  0.00  0.00    +0.000 C 
ATOM     12  C   UNL     1      49.846   7.454  12.050  0.00  0.00    +0.000 C 
ATOM     13  N   UNL     1      50.927   7.728  13.004  0.00  0.00    +0.000 NA
ATOM     14  C   UNL     1      50.004   7.628  14.139  0.00  0.00    +0.000 C 
ATOM     15  H   UNL     1      51.354   8.648  12.895  0.00  0.00    +0.000 HD
ENDBRANCH  10  11
ENDBRANCH   8  10
ENDBRANCH   1   4
BRANCH   1  16
ATOM     16  C   UNL     1      43.380   4.001  11.147  0.00  0.00    +0.000 C 
BRANCH  16  21
ATOM     17  C   UNL     1      46.653   2.716   7.487  0.00  0.00    +0.000 A 
ATOM     18  C   UNL     1      45.928   1.913   8.357  0.00  0.00    +0.000 A 
ATOM     19  C   UNL     1      44.959   2.500   9.167  0.00  0.00    +0.000 A 
ATOM     20  C   UNL     1      44.744   3.876   9.111  0.00  0.00    +0.000 A 
ATOM     21  N   UNL     1      43.736   4.506   9.818  0.00  0.00    +0.000 N 
ATOM     22  N   UNL     1      45.471   4.667   8.300  0.00  0.00    +0.000 NA
ATOM     23  C   UNL     1      46.410   4.079   7.511  0.00  0.00    +0.000 A 
ATOM     24  H   UNL     1      43.856   5.515   9.737  0.00  0.00    +0.000 HD
BRANCH  17  26
ATOM     25  N   UNL     1      47.888   2.887   5.406  0.00  0.00    +0.000 N 
ATOM     26  C   UNL     1      47.656   2.170   6.550  0.00  0.00    +0.000 C 
ATOM     27  O   UNL     1      48.278   1.148   6.801  0.00  0.00    +0.000 OA
ATOM     28  H   UNL     1      48.659   2.570   4.828  0.00  0.00    +0.000 HD
ATOM     29  H   UNL     1      47.602   3.851   5.303  0.00  0.00    +0.000 HD
ENDBRANCH  17  26
ENDBRANCH  16  21
ENDBRANCH   1  16
TORSDOF 6
ENDMDL
MODEL 4
REMARK VINA RESULT:    -8.147      3.207      8.026
REMARK INTER + INTRA:         -11.904
REMARK INTER:                 -11.189
REMARK INTRA:                  -0.715
REMARK UNBOUND:                -0.899
REMARK  Name = 
REMARK  6 active torsions:
REMARK  status: ('A' for Active; 'I' for Inactive)
REMARK    1  A    between atoms: C_2  and  C_4
REMARK    2  A    between atoms: N_8  and  C_9
REMARK    3  A    between atoms: C_9  and  C_10
REMARK    4  A    between atoms: C_10  and  C_13
REMARK    5  A    between atoms: C_17  and  C_18
REMARK    6  A    between atoms: C_18  and  C_19
REMARK                            x       y       z     vdW  Elec       q    Type
REMARK                         _______ _______ _______ _____ _____    ______ ____
ROOT
ATOM      1  C   UNL     1      45.640   5.966  11.340  0.00  0.00    +0.000 C 
ATOM      2  F   UNL     1      44.669   6.919  11.225  0.00  0.00    +0.000 F 
ATOM      3  F   UNL     1      46.779   6.543  10.857  0.00  0.00    +0.000 F 
ENDROOT
BRANCH   1   4
ATOM      4  C   UNL     1      45.290   4.686  10.605  0.00  0.00    +0.000 A 
ATOM      5  C   UNL     1      44.552   3.679  11.245  0.00  0.00    +0.000 A 
ATOM      6  C   UNL     1      44.156   2.543  10.542  0.00  0.00    +0.000 A 
ATOM      7  C   UNL     1      44.482   2.407   9.191  0.00  0.00    +0.000 A 
ATOM      8  C   UNL     1      45.215   3.401   8.533  0.00  0.00    +0.000 A 
ATOM      9  C   UNL     1      45.624   4.531   9.248  0.00  0.00    +0.000 A 
BRANCH   8  10
ATOM     10  C   UNL     1      45.548   3.269   7.059  0.00  0.00    +0.000 C 
BRANCH  10  11
ATOM     11  C   UNL     1      47.049   3.094   6.855  0.00  0.00    +0.000 C 
ATOM     12  C   UNL     1      47.574   2.870   5.424  0.00  0.00    +0.000 C 
ATOM     13  N   UNL     1      48.275   1.657   5.861  0.00  0.00    +0.000 NA
ATOM     14  C   UNL     1      47.593   1.684   7.160  0.00  0.00    +0.000 C 
ATOM     15  H   UNL     1      49.288   1.762   5.921  0.00  0.00    +0.000 HD
ENDBRANCH  10  11
ENDBRANCH   8  10
ENDBRANCH   1   4
BRANCH   1  16
ATOM     16  C   UNL     1      45.833   5.634  12.841  0.00  0.00    +0.000 C 
BRANCH  16  21
ATOM     17  C   UNL     1      48.498   4.421  16.988  0.00  0.00    +0.000 A 
ATOM     18  C   UNL     1      47.543   3.689  16.295  0.00  0.00    +0.000 A 
ATOM     19  C   UNL     1      47.072   4.175  15.078  0.00  0.00    +0.000 A 
ATOM     20  C   UNL     1      47.544   5.389  14.583  0.00  0.00    +0.000 A 
ATOM     21  N   UNL     1      47.189   5.880  13.340  0.00  0.00    +0.000 N 
ATOM     22  N   UNL     1      48.439   6.126  15.268  0.00  0.00    +0.000 NA
ATOM     23  C   UNL     1      48.894   5.635  16.453  0.00  0.00    +0.000 A 
ATOM     24  H   UNL     1      47.535   6.835  13.250  0.00  0.00    +0.000 HD
BRANCH  17  26
ATOM     25  N   UNL     1      48.295   3.203  19.076  0.00  0.00    +0.000 N 
ATOM     26  C   UNL     1      49.095   3.953  18.254  0.00  0.00    +0.000 C 
ATOM     27  O   UNL     1      50.261   4.189  18.539  0.00  0.00    +0.000 OA
ATOM     28  H   UNL     1      48.747   2.788  19.883  0.00  0.00    +0.000 HD
ATOM     29  H   UNL     1      47.443   2.768  18.752  0.00  0.00    +0.000 HD
ENDBRANCH  17  26
ENDBRANCH  16  21
ENDBRANCH   1  16
TORSDOF 6
ENDMDL
MODEL 5
REMARK VINA RESULT:    -7.951      2.737      4.793
REMARK INTER + INTRA:         -11.638
REMARK INTER:                 -10.640
REMARK INTRA:                  -0.998
REMARK UNBOUND:                -0.899
REMARK  Name = 
REMARK  6 active torsions:
REMARK  status: ('A' for Active; 'I' for Inactive)
REMARK    1  A    between atoms: C_2  and  C_4
REMARK    2  A    between atoms: N_8  and  C_9
REMARK    3  A    between atoms: C_9  and  C_10
REMARK    4  A    between atoms: C_10  and  C_13
REMARK    5  A    between atoms: C_17  and  C_18
REMARK    6  A    between atoms: C_18  and  C_19
REMARK                            x       y       z     vdW  Elec       q    Type
REMARK                         _______ _______ _______ _____ _____    ______ ____
ROOT
ATOM      1  C   UNL     1      43.348   4.982  12.286  0.00  0.00    +0.000 C 
ATOM      2  F   UNL     1      42.144   5.573  12.544  0.00  0.00    +0.000 F 
ATOM      3  F   UNL     1      43.497   4.019  13.242  0.00  0.00    +0.000 F 
ENDROOT
BRANCH   1   4
ATOM      4  C   UNL     1      44.496   5.975  12.289  0.00  0.00    +0.000 A 
ATOM      5  C   UNL     1      45.806   5.544  12.549  0.00  0.00    +0.000 A 
ATOM      6  C   UNL     1      46.869   6.441  12.466  0.00  0.00    +0.000 A 
ATOM      7  C   UNL     1      46.637   7.770  12.111  0.00  0.00    +0.000 A 
ATOM      8  C   UNL     1      45.339   8.220  11.845  0.00  0.00    +0.000 A 
ATOM      9  C   UNL     1      44.273   7.320  11.947  0.00  0.00    +0.000 A 
BRANCH   8  10
ATOM     10  C   UNL     1      45.087   9.657  11.434  0.00  0.00    +0.000 C 
BRANCH  10  11
ATOM     11  C   UNL     1      43.730   9.798  10.752  0.00  0.00    +0.000 C 
ATOM     12  C   UNL     1      43.636  10.651   9.473  0.00  0.00    +0.000 C 
ATOM     13  N   UNL     1      42.553  11.443  10.070  0.00  0.00    +0.000 NA
ATOM     14  C   UNL     1      42.783  10.837  11.386  0.00  0.00    +0.000 C 
ATOM     15  H   UNL     1      41.632  11.248   9.677  0.00  0.00    +0.000 HD
ENDBRANCH  10  11
ENDBRANCH   8  10
ENDBRANCH   1   4
BRANCH   1  16
ATOM     16  C   UNL     1      43.282   4.311  10.891  0.00  0.00    +0.000 C 
BRANCH  16  21
ATOM     17  C   UNL     1      46.566   2.681   7.380  0.00  0.00    +0.000 A 
ATOM     18  C   UNL     1      46.258   3.974   7.782  0.00  0.00    +0.000 A 
ATOM     19  C   UNL     1      45.439   4.158   8.893  0.00  0.00    +0.000 A 
ATOM     20  C   UNL     1      44.925   3.054   9.570  0.00  0.00    +0.000 A 
ATOM     21  N   UNL     1      44.184   3.167  10.733  0.00  0.00    +0.000 N 
ATOM     22  N   UNL     1      45.184   1.797   9.163  0.00  0.00    +0.000 NA
ATOM     23  C   UNL     1      45.990   1.634   8.079  0.00  0.00    +0.000 A 
ATOM     24  H   UNL     1      43.798   2.254  10.970  0.00  0.00    +0.000 HD
BRANCH  17  26
ATOM     25  N   UNL     1      47.409   3.239   5.176  0.00  0.00    +0.000 N 
ATOM     26  C   UNL     1      47.473   2.394   6.252  0.00  0.00    +0.000 C 
ATOM     27  O   UNL     1      48.272   1.468   6.291  0.00  0.00    +0.000 OA
ATOM     28  H   UNL     1      48.115   3.106   4.460  0.00  0.00    +0.000 HD
ATOM     29  H   UNL     1      46.972   4.148   5.226  0.00  0.00    +0.000 HD
ENDBRANCH  17  26
ENDBRANCH  16  21
ENDBRANCH   1  16
TORSDOF 6
ENDMDL
MODEL 6
REMARK VINA RESULT:    -7.297      3.115      7.176
REMARK INTER + INTRA:         -10.755
REMARK INTER:                  -9.702
REMARK INTRA:                  -1.053
REMARK UNBOUND:                -0.899
REMARK  Name = 
REMARK  6 active torsions:
REMARK  status: ('A' for Active; 'I' for Inactive)
REMARK    1  A    between atoms: C_2  and  C_4
REMARK    2  A    between atoms: N_8  and  C_9
REMARK    3  A    between atoms: C_9  and  C_10
REMARK    4  A    between atoms: C_10  and  C_13
REMARK    5  A    between atoms: C_17  and  C_18
REMARK    6  A    between atoms: C_18  and  C_19
REMARK                            x       y       z     vdW  Elec       q    Type
REMARK                         _______ _______ _______ _____ _____    ______ ____
ROOT
ATOM      1  C   UNL     1      44.380   3.343  12.423  0.00  0.00    +0.000 C 
ATOM      2  F   UNL     1      43.641   2.256  12.798  0.00  0.00    +0.000 F 
ATOM      3  F   UNL     1      43.799   4.412  13.041  0.00  0.00    +0.000 F 
ENDROOT
BRANCH   1   4
ATOM      4  C   UNL     1      44.438   3.514  10.916  0.00  0.00    +0.000 A 
ATOM      5  C   UNL     1      43.818   4.613  10.303  0.00  0.00    +0.000 A 
ATOM      6  C   UNL     1      43.946   4.815   8.930  0.00  0.00    +0.000 A 
ATOM      7  C   UNL     1      44.704   3.931   8.160  0.00  0.00    +0.000 A 
ATOM      8  C   UNL     1      45.333   2.831   8.753  0.00  0.00    +0.000 A 
ATOM      9  C   UNL     1      45.187   2.622  10.128  0.00  0.00    +0.000 A 
BRANCH   8  10
ATOM     10  C   UNL     1      46.178   1.884   7.923  0.00  0.00    +0.000 C 
BRANCH  10  11
ATOM     11  C   UNL     1      47.178   2.654   7.068  0.00  0.00    +0.000 C 
ATOM     12  C   UNL     1      46.947   2.720   5.547  0.00  0.00    +0.000 C 
ATOM     13  N   UNL     1      48.305   2.217   5.309  0.00  0.00    +0.000 NA
ATOM     14  C   UNL     1      48.476   1.893   6.729  0.00  0.00    +0.000 C 
ATOM     15  H   UNL     1      48.955   2.923   4.963  0.00  0.00    +0.000 HD
ENDBRANCH  10  11
ENDBRANCH   8  10
ENDBRANCH   1   4
BRANCH   1  16
ATOM     16  C   UNL     1      45.824   3.166  12.954  0.00  0.00    +0.000 C 
BRANCH  16  21
ATOM     17  C   UNL     1      48.347   7.570  12.840  0.00  0.00    +0.000 A 
ATOM     18  C   UNL     1      47.473   7.018  11.913  0.00  0.00    +0.000 A 
ATOM     19  C   UNL     1      46.770   5.864  12.252  0.00  0.00    +0.000 A 
ATOM     20  C   UNL     1      46.965   5.270  13.498  0.00  0.00    +0.000 A 
ATOM     21  N   UNL     1      46.231   4.181  13.931  0.00  0.00    +0.000 N 
ATOM     22  N   UNL     1      47.841   5.775  14.387  0.00  0.00    +0.000 NA
ATOM     23  C   UNL     1      48.517   6.905  14.043  0.00  0.00    +0.000 A 
ATOM     24  H   UNL     1      46.637   3.833  14.799  0.00  0.00    +0.000 HD
BRANCH  17  26
ATOM     25  N   UNL     1      49.638   9.444  13.677  0.00  0.00    +0.000 N 
ATOM     26  C   UNL     1      49.087   8.822  12.588  0.00  0.00    +0.000 C 
ATOM     27  O   UNL     1      49.234   9.264  11.457  0.00  0.00    +0.000 OA
ATOM     28  H   UNL     1      50.242  10.236  13.482  0.00  0.00    +0.000 HD
ATOM     29  H   UNL     1      49.769   8.973  14.562  0.00  0.00    +0.000 HD
ENDBRANCH  17  26
ENDBRANCH  16  21
ENDBRANCH   1  16
TORSDOF 6
ENDMDL
MODEL 7
REMARK VINA RESULT:    -6.862      4.078      7.431
REMARK INTER + INTRA:         -10.168
REMARK INTER:                  -8.988
REMARK INTRA:                  -1.180
REMARK UNBOUND:                -0.899
REMARK  Name = 
REMARK  6 active torsions:
REMARK  status: ('A' for Active; 'I' for Inactive)
REMARK    1  A    between atoms: C_2  and  C_4
REMARK    2  A    between atoms: N_8  and  C_9
REMARK    3  A    between atoms: C_9  and  C_10
REMARK    4  A    between atoms: C_10  and  C_13
REMARK    5  A    between atoms: C_17  and  C_18
REMARK    6  A    between atoms: C_18  and  C_19
REMARK                            x       y       z     vdW  Elec       q    Type
REMARK                         _______ _______ _______ _____ _____    ______ ____
ROOT
ATOM      1  C   UNL     1      48.969   8.091  12.249  0.00  0.00    +0.000 C 
ATOM      2  F   UNL     1      49.427   9.118  11.473  0.00  0.00    +0.000 F 
ATOM      3  F   UNL     1      49.720   7.006  11.902  0.00  0.00    +0.000 F 
ENDROOT
BRANCH   1   4
ATOM      4  C   UNL     1      47.483   7.842  12.066  0.00  0.00    +0.000 A 
ATOM      5  C   UNL     1      46.553   8.845  12.378  0.00  0.00    +0.000 A 
ATOM      6  C   UNL     1      45.196   8.646  12.128  0.00  0.00    +0.000 A 
ATOM      7  C   UNL     1      44.758   7.452  11.554  0.00  0.00    +0.000 A 
ATOM      8  C   UNL     1      45.670   6.440  11.232  0.00  0.00    +0.000 A 
ATOM      9  C   UNL     1      47.029   6.638  11.501  0.00  0.00    +0.000 A 
BRANCH   8  10
ATOM     10  C   UNL     1      45.201   5.152  10.584  0.00  0.00    +0.000 C 
BRANCH  10  11
ATOM     11  C   UNL     1      44.104   4.494  11.415  0.00  0.00    +0.000 C 
ATOM     12  C   UNL     1      44.469   3.934  12.802  0.00  0.00    +0.000 C 
ATOM     13  N   UNL     1      43.902   2.631  12.435  0.00  0.00    +0.000 NA
ATOM     14  C   UNL     1      43.775   3.037  11.032  0.00  0.00    +0.000 C 
ATOM     15  H   UNL     1      43.013   2.422  12.890  0.00  0.00    +0.000 HD
ENDBRANCH  10  11
ENDBRANCH   8  10
ENDBRANCH   1   4
BRANCH   1  16
ATOM     16  C   UNL     1      49.230   8.440  13.736  0.00  0.00    +0.000 C 
BRANCH  16  21
ATOM     17  C   UNL     1      48.124   4.546  16.799  0.00  0.00    +0.000 A 
ATOM     18  C   UNL     1      47.442   5.032  15.691  0.00  0.00    +0.000 A 
ATOM     19  C   UNL     1      48.041   6.015  14.908  0.00  0.00    +0.000 A 
ATOM     20  C   UNL     1      49.297   6.511  15.253  0.00  0.00    +0.000 A 
ATOM     21  N   UNL     1      49.985   7.418  14.467  0.00  0.00    +0.000 N 
ATOM     22  N   UNL     1      49.947   6.076  16.348  0.00  0.00    +0.000 NA
ATOM     23  C   UNL     1      49.352   5.112  17.101  0.00  0.00    +0.000 A 
ATOM     24  H   UNL     1      50.805   7.744  14.978  0.00  0.00    +0.000 HD
BRANCH  17  26
ATOM     25  N   UNL     1      48.345   3.102  18.735  0.00  0.00    +0.000 N 
ATOM     26  C   UNL     1      47.592   3.463  17.650  0.00  0.00    +0.000 C 
ATOM     27  O   UNL     1      46.512   2.939  17.418  0.00  0.00    +0.000 OA
ATOM     28  H   UNL     1      47.918   2.444  19.377  0.00  0.00    +0.000 HD
ATOM     29  H   UNL     1      49.084   3.688  19.101  0.00  0.00    +0.000 HD
ENDBRANCH  17  26
ENDBRANCH  16  21
ENDBRANCH   1  16
TORSDOF 6
ENDMDL
MODEL 8
REMARK VINA RESULT:    -6.838      3.475      8.208
REMARK INTER + INTRA:         -10.136
REMARK INTER:                  -9.744
REMARK INTRA:                  -0.392
REMARK UNBOUND:                -0.899
REMARK  Name = 
REMARK  6 active torsions:
REMARK  status: ('A' for Active; 'I' for Inactive)
REMARK    1  A    between atoms: C_2  and  C_4
REMARK    2  A    between atoms: N_8  and  C_9
REMARK    3  A    between atoms: C_9  and  C_10
REMARK    4  A    between atoms: C_10  and  C_13
REMARK    5  A    between atoms: C_17  and  C_18
REMARK    6  A    between atoms: C_18  and  C_19
REMARK                            x       y       z     vdW  Elec       q    Type
REMARK                         _______ _______ _______ _____ _____    ______ ____
ROOT
ATOM      1  C   UNL     1      46.712   6.483  12.389  0.00  0.00    +0.000 C 
ATOM      2  F   UNL     1      46.365   7.545  13.175  0.00  0.00    +0.000 F 
ATOM      3  F   UNL     1      47.542   6.991  11.432  0.00  0.00    +0.000 F 
ENDROOT
BRANCH   1   4
ATOM      4  C   UNL     1      45.506   5.784  11.789  0.00  0.00    +0.000 A 
ATOM      5  C   UNL     1      44.222   6.328  11.944  0.00  0.00    +0.000 A 
ATOM      6  C   UNL     1      43.128   5.732  11.319  0.00  0.00    +0.000 A 
ATOM      7  C   UNL     1      43.307   4.597  10.527  0.00  0.00    +0.000 A 
ATOM      8  C   UNL     1      44.579   4.040  10.357  0.00  0.00    +0.000 A 
ATOM      9  C   UNL     1      45.672   4.632  11.000  0.00  0.00    +0.000 A 
BRANCH   8  10
ATOM     10  C   UNL     1      44.780   2.823   9.476  0.00  0.00    +0.000 C 
BRANCH  10  11
ATOM     11  C   UNL     1      45.167   3.235   8.060  0.00  0.00    +0.000 C 
ATOM     12  C   UNL     1      46.416   2.595   7.424  0.00  0.00    +0.000 C 
ATOM     13  N   UNL     1      46.960   3.926   7.131  0.00  0.00    +0.000 NA
ATOM     14  C   UNL     1      45.929   4.571   7.950  0.00  0.00    +0.000 C 
ATOM     15  H   UNL     1      46.927   4.180   6.143  0.00  0.00    +0.000 HD
ENDBRANCH  10  11
ENDBRANCH   8  10
ENDBRANCH   1   4
BRANCH   1  16
ATOM     16  C   UNL     1      47.493   5.462  13.253  0.00  0.00    +0.000 C 
BRANCH  16  21
ATOM     17  C   UNL     1      48.344   4.581  18.180  0.00  0.00    +0.000 A 
ATOM     18  C   UNL     1      48.799   5.610  17.366  0.00  0.00    +0.000 A 
ATOM     19  C   UNL     1      48.286   5.727  16.077  0.00  0.00    +0.000 A 
ATOM     20  C   UNL     1      47.345   4.808  15.615  0.00  0.00    +0.000 A 
ATOM     21  N   UNL     1      46.728   4.924  14.382  0.00  0.00    +0.000 N 
ATOM     22  N   UNL     1      46.929   3.784  16.383  0.00  0.00    +0.000 NA
ATOM     23  C   UNL     1      47.436   3.685  17.641  0.00  0.00    +0.000 A 
ATOM     24  H   UNL     1      46.193   4.075  14.199  0.00  0.00    +0.000 HD
BRANCH  17  26
ATOM     25  N   UNL     1      48.399   3.272  20.221  0.00  0.00    +0.000 N 
ATOM     26  C   UNL     1      48.788   4.417  19.578  0.00  0.00    +0.000 C 
ATOM     27  O   UNL     1      49.502   5.246  20.125  0.00  0.00    +0.000 OA
ATOM     28  H   UNL     1      48.805   3.112  21.136  0.00  0.00    +0.000 HD
ATOM     29  H   UNL     1      48.054   2.463  19.723  0.00  0.00    +0.000 HD
ENDBRANCH  17  26
ENDBRANCH  16  21
ENDBRANCH   1  16
TORSDOF 6
ENDMDL
MODEL 9
REMARK VINA RESULT:    -6.544      3.339      4.962
REMARK INTER + INTRA:          -9.738
REMARK INTER:                  -8.634
REMARK INTRA:                  -1.105
REMARK UNBOUND:                -0.899
REMARK  Name = 
REMARK  6 active torsions:
REMARK  status: ('A' for Active; 'I' for Inactive)
REMARK    1  A    between atoms: C_2  and  C_4
REMARK    2  A    between atoms: N_8  and  C_9
REMARK    3  A    between atoms: C_9  and  C_10
REMARK    4  A    between atoms: C_10  and  C_13
REMARK    5  A    between atoms: C_17  and  C_18
REMARK    6  A    between atoms: C_18  and  C_19
REMARK                            x       y       z     vdW  Elec       q    Type
REMARK                         _______ _______ _______ _____ _____    ______ ____
ROOT
ATOM      1  C   UNL     1      48.884   8.152  12.908  0.00  0.00    +0.000 C 
ATOM      2  F   UNL     1      48.956   7.301  11.842  0.00  0.00    +0.000 F 
ATOM      3  F   UNL     1      49.434   9.325  12.478  0.00  0.00    +0.000 F 
ENDROOT
BRANCH   1   4
ATOM      4  C   UNL     1      49.586   7.606  14.137  0.00  0.00    +0.000 A 
ATOM      5  C   UNL     1      50.953   7.848  14.340  0.00  0.00    +0.000 A 
ATOM      6  C   UNL     1      51.576   7.421  15.511  0.00  0.00    +0.000 A 
ATOM      7  C   UNL     1      50.839   6.759  16.494  0.00  0.00    +0.000 A 
ATOM      8  C   UNL     1      49.473   6.510  16.313  0.00  0.00    +0.000 A 
ATOM      9  C   UNL     1      48.857   6.926  15.129  0.00  0.00    +0.000 A 
BRANCH   8  10
ATOM     10  C   UNL     1      48.665   5.815  17.391  0.00  0.00    +0.000 C 
BRANCH  10  11
ATOM     11  C   UNL     1      48.353   4.376  16.994  0.00  0.00    +0.000 C 
ATOM     12  C   UNL     1      46.919   4.032  16.549  0.00  0.00    +0.000 C 
ATOM     13  N   UNL     1      46.859   2.954  17.544  0.00  0.00    +0.000 NA
ATOM     14  C   UNL     1      48.104   3.410  18.170  0.00  0.00    +0.000 C 
ATOM     15  H   UNL     1      46.913   2.017  17.144  0.00  0.00    +0.000 HD
ENDBRANCH  10  11
ENDBRANCH   8  10
ENDBRANCH   1   4
BRANCH   1  16
ATOM     16  C   UNL     1      47.392   8.384  13.255  0.00  0.00    +0.000 C 
BRANCH  16  21
ATOM     17  C   UNL     1      44.730   4.363  11.670  0.00  0.00    +0.000 A 
ATOM     18  C   UNL     1      45.034   4.780  12.959  0.00  0.00    +0.000 A 
ATOM     19  C   UNL     1      45.641   6.020  13.141  0.00  0.00    +0.000 A 
ATOM     20  C   UNL     1      45.953   6.812  12.038  0.00  0.00    +0.000 A 
ATOM     21  N   UNL     1      46.468   8.090  12.156  0.00  0.00    +0.000 N 
ATOM     22  N   UNL     1      45.700   6.398  10.782  0.00  0.00    +0.000 NA
ATOM     23  C   UNL     1      45.102   5.186  10.620  0.00  0.00    +0.000 A 
ATOM     24  H   UNL     1      46.749   8.420  11.233  0.00  0.00    +0.000 HD
BRANCH  17  26
ATOM     25  N   UNL     1      43.702   2.316  12.467  0.00  0.00    +0.000 N 
ATOM     26  C   UNL     1      44.034   3.092  11.388  0.00  0.00    +0.000 C 
ATOM     27  O   UNL     1      43.733   2.764  10.248  0.00  0.00    +0.000 OA
ATOM     28  H   UNL     1      43.122   1.507  12.275  0.00  0.00    +0.000 HD
ATOM     29  H   UNL     1      43.688   2.678  13.410  0.00  0.00    +0.000 HD
ENDBRANCH  17  26
ENDBRANCH  16  21
ENDBRANCH   1  16
TORSDOF 6
ENDMDL
