MODEL 1
REMARK VINA RESULT:    -6.295      0.000      0.000
REMARK INTER + INTRA:          -8.097
REMARK INTER:                  -7.583
REMARK INTRA:                  -0.515
REMARK UNBOUND:                -0.515
REMARK  Name = 
REMARK  4 active torsions:
REMARK  status: ('A' for Active; 'I' for Inactive)
REMARK    1  A    between atoms: N_1  and  C_2
REMARK    2  A    between atoms: C_2  and  C_3
REMARK    3  A    between atoms: C_6  and  C_7
REMARK    4  A    between atoms: C_7  and  N_8
REMARK                            x       y       z     vdW  Elec       q    Type
REMARK                         _______ _______ _______ _____ _____    ______ ____
ROOT
ATOM      1  C   UNL     1      48.110   7.799  12.470  0.00  0.00    +0.000 C 
ATOM      2  C   UNL     1      47.708   6.333  12.228  0.00  0.00    +0.000 C 
ATOM      3  C   UNL     1      46.467   5.930  13.029  0.00  0.00    +0.000 C 
ATOM      4  C   UNL     1      45.254   6.837  12.745  0.00  0.00    +0.000 C 
ATOM      5  C   UNL     1      45.644   8.318  12.927  0.00  0.00    +0.000 C 
ATOM      6  C   UNL     1      46.910   8.713  12.165  0.00  0.00    +0.000 C 
ENDROOT
BRANCH   1   7
ATOM      7  C   UNL     1      48.693   7.968  13.891  0.00  0.00    +0.000 C 
BRANCH   7   8
ATOM      8  N   UNL     1      49.751   7.008  14.191  0.00  0.00    +0.000 NA
ATOM      9  H   UNL     1      49.509   6.110  13.774  0.00  0.00    +0.000 HD
ATOM     10  H   UNL     1      49.787   6.841  15.195  0.00  0.00    +0.000 HD
ENDBRANCH   7   8
ENDBRANCH   1   7
BRANCH   4  11
ATOM     11  C   UNL     1      44.626   6.601  11.356  0.00  0.00    +0.000 C 
BRANCH  11  12
ATOM     12  N   UNL     1      44.305   5.212  11.067  0.00  0.00    +0.000 N 
ATOM     13  C   UNL     1      43.531   4.401  11.864  0.00  0.00    +0.000 A 
ATOM     14  C   UNL     1      43.524   3.140  11.311  0.00  0.00    +0.000 A 
ATOM     15  C   UNL     1      44.327   3.180  10.141  0.00  0.00    +0.000 A 
ATOM     16  C   UNL     1      44.723   2.243   9.173  0.00  0.00    +0.000 A 
ATOM     17  C   UNL     1      45.545   2.690   8.140  0.00  0.00    +0.000 A 
ATOM     18  C   UNL     1      45.929   4.024   8.115  0.00  0.00    +0.000 A 
ATOM     19  N   UNL     1      45.583   4.967   9.023  0.00  0.00    +0.000 NA
ATOM     20  C   UNL     1      44.791   4.488  10.006  0.00  0.00    +0.000 A 
ENDBRANCH  11  12
ENDBRANCH   4  11
TORSDOF 4
ENDMDL
MODEL 2
REMARK VINA RESULT:    -6.191      1.826      5.887
REMARK INTER + INTRA:          -7.973
REMARK INTER:                  -7.434
REMARK INTRA:                  -0.539
REMARK UNBOUND:                -0.515
REMARK  Name = 
REMARK  4 active torsions:
REMARK  status: ('A' for Active; 'I' for Inactive)
REMARK    1  A    between atoms: N_1  and  C_2
REMARK    2  A    between atoms: C_2  and  C_3
REMARK    3  A    between atoms: C_6  and  C_7
REMARK    4  A    between atoms: C_7  and  N_8
REMARK                            x       y       z     vdW  Elec       q    Type
REMARK                         _______ _______ _______ _____ _____    ______ ____
ROOT
ATOM      1  C   UNL     1      47.141   2.893   7.267  0.00  0.00    +0.000 C 
ATOM      2  C   UNL     1      46.469   4.167   7.812  0.00  0.00    +0.000 C 
ATOM      3  C   UNL     1      44.956   4.006   7.970  0.00  0.00    +0.000 C 
ATOM      4  C   UNL     1      44.573   2.814   8.868  0.00  0.00    +0.000 C 
ATOM      5  C   UNL     1      45.276   1.532   8.377  0.00  0.00    +0.000 C 
ATOM      6  C   UNL     1      46.783   1.703   8.174  0.00  0.00    +0.000 C 
ENDROOT
BRANCH   1   7
ATOM      7  C   UNL     1      46.777   2.690   5.779  0.00  0.00    +0.000 C 
BRANCH   7   8
ATOM      8  N   UNL     1      47.948   2.517   4.925  0.00  0.00    +0.000 NA
ATOM      9  H   UNL     1      48.755   2.305   5.511  0.00  0.00    +0.000 HD
ATOM     10  H   UNL     1      48.170   3.398   4.465  0.00  0.00    +0.000 HD
ENDBRANCH   7   8
ENDBRANCH   1   7
BRANCH   4  11
ATOM     11  C   UNL     1      44.861   3.059  10.364  0.00  0.00    +0.000 C 
BRANCH  11  12
ATOM     12  N   UNL     1      44.303   4.295  10.891  0.00  0.00    +0.000 N 
ATOM     13  C   UNL     1      42.960   4.568  10.999  0.00  0.00    +0.000 A 
ATOM     14  C   UNL     1      42.822   5.861  11.457  0.00  0.00    +0.000 A 
ATOM     15  C   UNL     1      44.126   6.397  11.626  0.00  0.00    +0.000 A 
ATOM     16  C   UNL     1      44.648   7.635  12.034  0.00  0.00    +0.000 A 
ATOM     17  C   UNL     1      46.034   7.771  12.070  0.00  0.00    +0.000 A 
ATOM     18  C   UNL     1      46.826   6.689  11.707  0.00  0.00    +0.000 A 
ATOM     19  N   UNL     1      46.378   5.478  11.302  0.00  0.00    +0.000 NA
ATOM     20  C   UNL     1      45.031   5.394  11.278  0.00  0.00    +0.000 A 
ENDBRANCH  11  12
ENDBRANCH   4  11
TORSDOF 4
ENDMDL
MODEL 3
REMARK VINA RESULT:    -5.895      2.116      3.166
REMARK INTER + INTRA:          -7.616
REMARK INTER:                  -7.089
REMARK INTRA:                  -0.527
REMARK UNBOUND:                -0.515
REMARK  Name = 
REMARK  4 active torsions:
REMARK  status: ('A' for Active; 'I' for Inactive)
REMARK    1  A    between atoms: N_1  and  C_2
REMARK    2  A    between atoms: C_2  and  C_3
REMARK    3  A    between atoms: C_6  and  C_7
REMARK    4  A    between atoms: C_7  and  N_8
REMARK                            x       y       z     vdW  Elec       q    Type
REMARK                         _______ _______ _______ _____ _____    ______ ____
ROOT
ATOM      1  C   UNL     1      45.113   7.510  11.369  0.00  0.00    +0.000 C 
ATOM      2  C   UNL     1      46.039   6.406  10.826  0.00  0.00    +0.000 C 
ATOM      3  C   UNL     1      45.633   5.013  11.312  0.00  0.00    +0.000 C 
ATOM      4  C   UNL     1      44.174   4.661  10.961  0.00  0.00    +0.000 C 
ATOM      5  C   UNL     1      43.227   5.777  11.446  0.00  0.00    +0.000 C 
ATOM      6  C   UNL     1      43.656   7.177  11.001  0.00  0.00    +0.000 C 
ENDROOT
BRANCH   1   7
ATOM      7  C   UNL     1      45.355   7.717  12.881  0.00  0.00    +0.000 C 
BRANCH   7   8
ATOM      8  N   UNL     1      45.329   9.122  13.275  0.00  0.00    +0.000 NA
ATOM      9  H   UNL     1      44.863   9.660  12.545  0.00  0.00    +0.000 HD
ATOM     10  H   UNL     1      46.281   9.484  13.315  0.00  0.00    +0.000 HD
ENDBRANCH   7   8
ENDBRANCH   1   7
BRANCH   4  11
ATOM     11  C   UNL     1      43.959   4.372   9.461  0.00  0.00    +0.000 C 
BRANCH  11  12
ATOM     12  N   UNL     1      44.631   3.177   8.975  0.00  0.00    +0.000 N 
ATOM     13  C   UNL     1      44.321   1.891   9.350  0.00  0.00    +0.000 A 
ATOM     14  C   UNL     1      45.224   1.041   8.752  0.00  0.00    +0.000 A 
ATOM     15  C   UNL     1      46.123   1.836   7.992  0.00  0.00    +0.000 A 
ATOM     16  C   UNL     1      47.247   1.578   7.192  0.00  0.00    +0.000 A 
ATOM     17  C   UNL     1      47.877   2.667   6.593  0.00  0.00    +0.000 A 
ATOM     18  C   UNL     1      47.370   3.941   6.812  0.00  0.00    +0.000 A 
ATOM     19  N   UNL     1      46.296   4.248   7.577  0.00  0.00    +0.000 NA
ATOM     20  C   UNL     1      45.721   3.164   8.139  0.00  0.00    +0.000 A 
ENDBRANCH  11  12
ENDBRANCH   4  11
TORSDOF 4
ENDMDL
MODEL 4
REMARK VINA RESULT:    -5.613      1.858      2.504
REMARK INTER + INTRA:          -7.276
REMARK INTER:                  -7.646
REMARK INTRA:                   0.370
REMARK UNBOUND:                -0.515
REMARK  Name = 
REMARK  4 active torsions:
REMARK  status: ('A' for Active; 'I' for Inactive)
REMARK    1  A    between atoms: N_1  and  C_2
REMARK    2  A    between atoms: C_2  and  C_3
REMARK    3  A    between atoms: C_6  and  C_7
REMARK    4  A    between atoms: C_7  and  N_8
REMARK                            x       y       z     vdW  Elec       q    Type
REMARK                         _______ _______ _______ _____ _____    ______ ____
ROOT
ATOM      1  C   UNL     1      46.912   4.941  13.286  0.00  0.00    +0.000 C 
ATOM      2  C   UNL     1      46.291   3.734  12.559  0.00  0.00    +0.000 C 
ATOM      3  C   UNL     1      44.770   3.679  12.715  0.00  0.00    +0.000 C 
ATOM      4  C   UNL     1      44.074   4.966  12.234  0.00  0.00    +0.000 C 
ATOM      5  C   UNL     1      44.713   6.199  12.906  0.00  0.00    +0.000 C 
ATOM      6  C   UNL     1      46.238   6.233  12.791  0.00  0.00    +0.000 C 
ENDROOT
BRANCH   1   7
ATOM      7  C   UNL     1      46.848   4.736  14.816  0.00  0.00    +0.000 C 
BRANCH   7   8
ATOM      8  N   UNL     1      47.464   3.486  15.250  0.00  0.00    +0.000 NA
ATOM      9  H   UNL     1      47.042   2.715  14.734  0.00  0.00    +0.000 HD
ATOM     10  H   UNL     1      47.238   3.315  16.228  0.00  0.00    +0.000 HD
ENDBRANCH   7   8
ENDBRANCH   1   7
BRANCH   4  11
ATOM     11  C   UNL     1      44.068   5.120  10.698  0.00  0.00    +0.000 C 
BRANCH  11  12
ATOM     12  N   UNL     1      44.385   3.901   9.969  0.00  0.00    +0.000 N 
ATOM     13  C   UNL     1      43.873   2.658  10.254  0.00  0.00    +0.000 A 
ATOM     14  C   UNL     1      44.469   1.746   9.410  0.00  0.00    +0.000 A 
ATOM     15  C   UNL     1      45.382   2.457   8.587  0.00  0.00    +0.000 A 
ATOM     16  C   UNL     1      46.284   2.108   7.569  0.00  0.00    +0.000 A 
ATOM     17  C   UNL     1      47.027   3.133   6.986  0.00  0.00    +0.000 A 
ATOM     18  C   UNL     1      46.843   4.434   7.432  0.00  0.00    +0.000 A 
ATOM     19  N   UNL     1      45.994   4.826   8.411  0.00  0.00    +0.000 NA
ATOM     20  C   UNL     1      45.300   3.802   8.949  0.00  0.00    +0.000 A 
ENDBRANCH  11  12
ENDBRANCH   4  11
TORSDOF 4
ENDMDL
MODEL 5
REMARK VINA RESULT:    -5.534      3.910      5.153
REMARK INTER + INTRA:          -7.181
REMARK INTER:                  -6.881
REMARK INTRA:                  -0.300
REMARK UNBOUND:                -0.515
REMARK  Name = 
REMARK  4 active torsions:
REMARK  status: ('A' for Active; 'I' for Inactive)
REMARK    1  A    between atoms: N_1  and  C_2
REMARK    2  A    between atoms: C_2  and  C_3
REMARK    3  A    between atoms: C_6  and  C_7
REMARK    4  A    between atoms: C_7  and  N_8
REMARK                            x       y       z     vdW  Elec       q    Type
REMARK                         _______ _______ _______ _____ _____    ______ ____
ROOT
ATOM      1  C   UNL     1      49.340   3.746  18.105  0.00  0.00    +0.000 C 
ATOM      2  C   UNL     1      48.194   2.815  17.665  0.00  0.00    +0.000 C 
ATOM      3  C   UNL     1      46.946   3.590  17.235  0.00  0.00    +0.000 C 
ATOM      4  C   UNL     1      47.231   4.602  16.109  0.00  0.00    +0.000 C 
ATOM      5  C   UNL     1      48.411   5.514  16.500  0.00  0.00    +0.000 C 
ATOM      6  C   UNL     1      49.646   4.744  16.974  0.00  0.00    +0.000 C 
ENDROOT
BRANCH   1   7
ATOM      7  C   UNL     1      49.003   4.406  19.462  0.00  0.00    +0.000 C 
BRANCH   7   8
ATOM      8  N   UNL     1      48.441   3.467  20.428  0.00  0.00    +0.000 NA
ATOM      9  H   UNL     1      49.183   3.153  21.052  0.00  0.00    +0.000 HD
ATOM     10  H   UNL     1      48.119   2.630  19.944  0.00  0.00    +0.000 HD
ENDBRANCH   7   8
ENDBRANCH   1   7
BRANCH   4  11
ATOM     11  C   UNL     1      47.482   3.937  14.739  0.00  0.00    +0.000 C 
BRANCH  11  12
ATOM     12  N   UNL     1      46.992   4.699  13.601  0.00  0.00    +0.000 N 
ATOM     13  C   UNL     1      47.551   5.866  13.136  0.00  0.00    +0.000 A 
ATOM     14  C   UNL     1      46.765   6.336  12.106  0.00  0.00    +0.000 A 
ATOM     15  C   UNL     1      45.685   5.428  11.943  0.00  0.00    +0.000 A 
ATOM     16  C   UNL     1      44.564   5.357  11.101  0.00  0.00    +0.000 A 
ATOM     17  C   UNL     1      43.708   4.268  11.256  0.00  0.00    +0.000 A 
ATOM     18  C   UNL     1      44.001   3.315  12.222  0.00  0.00    +0.000 A 
ATOM     19  N   UNL     1      45.062   3.336  13.062  0.00  0.00    +0.000 NA
ATOM     20  C   UNL     1      45.859   4.410  12.880  0.00  0.00    +0.000 A 
ENDBRANCH  11  12
ENDBRANCH   4  11
TORSDOF 4
ENDMDL
MODEL 6
REMARK VINA RESULT:    -5.376      2.129      6.264
REMARK INTER + INTRA:          -6.991
REMARK INTER:                  -6.679
REMARK INTRA:                  -0.312
REMARK UNBOUND:                -0.515
REMARK  Name = 
REMARK  4 active torsions:
REMARK  status: ('A' for Active; 'I' for Inactive)
REMARK    1  A    between atoms: N_1  and  C_2
REMARK    2  A    between atoms: C_2  and  C_3
REMARK    3  A    between atoms: C_6  and  C_7
REMARK    4  A    between atoms: C_7  and  N_8
REMARK                            x       y       z     vdW  Elec       q    Type
REMARK                         _______ _______ _______ _____ _____    ______ ____
ROOT
ATOM      1  C   UNL     1      44.864   3.552  11.283  0.00  0.00    +0.000 C 
ATOM      2  C   UNL     1      45.190   4.790  10.428  0.00  0.00    +0.000 C 
ATOM      3  C   UNL     1      44.860   6.100  11.147  0.00  0.00    +0.000 C 
ATOM      4  C   UNL     1      45.571   6.229  12.508  0.00  0.00    +0.000 C 
ATOM      5  C   UNL     1      45.305   4.976  13.367  0.00  0.00    +0.000 C 
ATOM      6  C   UNL     1      45.591   3.663  12.635  0.00  0.00    +0.000 C 
ENDROOT
BRANCH   1   7
ATOM      7  C   UNL     1      43.333   3.369  11.398  0.00  0.00    +0.000 C 
BRANCH   7   8
ATOM      8  N   UNL     1      42.942   1.982  11.626  0.00  0.00    +0.000 NA
ATOM      9  H   UNL     1      43.711   1.372  11.351  0.00  0.00    +0.000 HD
ATOM     10  H   UNL     1      42.168   1.738  11.010  0.00  0.00    +0.000 HD
ENDBRANCH   7   8
ENDBRANCH   1   7
BRANCH   4  11
ATOM     11  C   UNL     1      47.085   6.497  12.383  0.00  0.00    +0.000 C 
BRANCH  11  12
ATOM     12  N   UNL     1      47.438   7.900  12.223  0.00  0.00    +0.000 N 
ATOM     13  C   UNL     1      46.558   8.950  12.335  0.00  0.00    +0.000 A 
ATOM     14  C   UNL     1      47.236  10.111  12.034  0.00  0.00    +0.000 A 
ATOM     15  C   UNL     1      48.575   9.755  11.719  0.00  0.00    +0.000 A 
ATOM     16  C   UNL     1      49.724  10.458  11.322  0.00  0.00    +0.000 A 
ATOM     17  C   UNL     1      50.886   9.722  11.103  0.00  0.00    +0.000 A 
ATOM     18  C   UNL     1      50.856   8.346  11.286  0.00  0.00    +0.000 A 
ATOM     19  N   UNL     1      49.778   7.618  11.661  0.00  0.00    +0.000 NA
ATOM     20  C   UNL     1      48.675   8.371  11.858  0.00  0.00    +0.000 A 
ENDBRANCH  11  12
ENDBRANCH   4  11
TORSDOF 4
ENDMDL
MODEL 7
REMARK VINA RESULT:    -5.302      2.092      6.809
REMARK INTER + INTRA:          -6.901
REMARK INTER:                  -6.473
REMARK INTRA:                  -0.428
REMARK UNBOUND:                -0.515
REMARK  Name = 
REMARK  4 active torsions:
REMARK  status: ('A' for Active; 'I' for Inactive)
REMARK    1  A    between atoms: N_1  and  C_2
REMARK    2  A    between atoms: C_2  and  C_3
REMARK    3  A    between atoms: C_6  and  C_7
REMARK    4  A    between atoms: C_7  and  N_8
REMARK                            x       y       z     vdW  Elec       q    Type
REMARK                         _______ _______ _______ _____ _____    ______ ____
ROOT
ATOM      1  C   UNL     1      44.942   3.648  11.128  0.00  0.00    +0.000 C 
ATOM      2  C   UNL     1      45.294   5.011  10.505  0.00  0.00    +0.000 C 
ATOM      3  C   UNL     1      45.004   6.177  11.452  0.00  0.00    +0.000 C 
ATOM      4  C   UNL     1      45.729   6.042  12.805  0.00  0.00    +0.000 C 
ATOM      5  C   UNL     1      45.437   4.662  13.428  0.00  0.00    +0.000 C 
ATOM      6  C   UNL     1      45.683   3.495  12.469  0.00  0.00    +0.000 C 
ENDROOT
BRANCH   1   7
ATOM      7  C   UNL     1      43.408   3.483  11.227  0.00  0.00    +0.000 C 
BRANCH   7   8
ATOM      8  N   UNL     1      43.006   2.164  11.702  0.00  0.00    +0.000 NA
ATOM      9  H   UNL     1      42.303   1.786  11.068  0.00  0.00    +0.000 HD
ATOM     10  H   UNL     1      42.540   2.252  12.604  0.00  0.00    +0.000 HD
ENDBRANCH   7   8
ENDBRANCH   1   7
BRANCH   4  11
ATOM     11  C   UNL     1      47.249   6.291  12.711  0.00  0.00    +0.000 C 
BRANCH  11  12
ATOM     12  N   UNL     1      47.771   7.211  13.711  0.00  0.00    +0.000 N 
ATOM     13  C   UNL     1      47.890   8.570  13.544  0.00  0.00    +0.000 A 
ATOM     14  C   UNL     1      48.501   9.087  14.665  0.00  0.00    +0.000 A 
ATOM     15  C   UNL     1      48.773   8.004  15.543  0.00  0.00    +0.000 A 
ATOM     16  C   UNL     1      49.382   7.871  16.801  0.00  0.00    +0.000 A 
ATOM     17  C   UNL     1      49.457   6.593  17.350  0.00  0.00    +0.000 A 
ATOM     18  C   UNL     1      48.932   5.523  16.637  0.00  0.00    +0.000 A 
ATOM     19  N   UNL     1      48.341   5.592  15.421  0.00  0.00    +0.000 NA
ATOM     20  C   UNL     1      48.294   6.847  14.927  0.00  0.00    +0.000 A 
ENDBRANCH  11  12
ENDBRANCH   4  11
TORSDOF 4
ENDMDL
MODEL 8
REMARK VINA RESULT:    -5.293      3.162      6.755
REMARK INTER + INTRA:          -6.890
REMARK INTER:                  -6.791
REMARK INTRA:                  -0.100
REMARK UNBOUND:                -0.515
REMARK  Name = 
REMARK  4 active torsions:
REMARK  status: ('A' for Active; 'I' for Inactive)
REMARK    1  A    between atoms: N_1  and  C_2
REMARK    2  A    between atoms: C_2  and  C_3
REMARK    3  A    between atoms: C_6  and  C_7
REMARK    4  A    between atoms: C_7  and  N_8
REMARK                            x       y       z     vdW  Elec       q    Type
REMARK                         _______ _______ _______ _____ _____    ______ ____
ROOT
ATOM      1  C   UNL     1      44.545   5.004  10.850  0.00  0.00    +0.000 C 
ATOM      2  C   UNL     1      45.308   6.272  11.275  0.00  0.00    +0.000 C 
ATOM      3  C   UNL     1      45.196   6.544  12.777  0.00  0.00    +0.000 C 
ATOM      4  C   UNL     1      45.677   5.358  13.635  0.00  0.00    +0.000 C 
ATOM      5  C   UNL     1      44.968   4.062  13.195  0.00  0.00    +0.000 C 
ATOM      6  C   UNL     1      45.039   3.810  11.687  0.00  0.00    +0.000 C 
ENDROOT
BRANCH   1   7
ATOM      7  C   UNL     1      43.021   5.246  10.924  0.00  0.00    +0.000 C 
BRANCH   7   8
ATOM      8  N   UNL     1      42.668   6.662  10.937  0.00  0.00    +0.000 NA
ATOM      9  H   UNL     1      41.846   6.791  11.526  0.00  0.00    +0.000 HD
ATOM     10  H   UNL     1      42.384   6.953  10.004  0.00  0.00    +0.000 HD
ENDBRANCH   7   8
ENDBRANCH   1   7
BRANCH   4  11
ATOM     11  C   UNL     1      47.209   5.177  13.623  0.00  0.00    +0.000 C 
BRANCH  11  12
ATOM     12  N   UNL     1      47.867   5.529  14.872  0.00  0.00    +0.000 N 
ATOM     13  C   UNL     1      48.642   6.648  15.065  0.00  0.00    +0.000 A 
ATOM     14  C   UNL     1      49.161   6.594  16.341  0.00  0.00    +0.000 A 
ATOM     15  C   UNL     1      48.693   5.397  16.944  0.00  0.00    +0.000 A 
ATOM     16  C   UNL     1      48.875   4.772  18.187  0.00  0.00    +0.000 A 
ATOM     17  C   UNL     1      48.220   3.561  18.404  0.00  0.00    +0.000 A 
ATOM     18  C   UNL     1      47.427   3.036  17.393  0.00  0.00    +0.000 A 
ATOM     19  N   UNL     1      47.220   3.591  16.175  0.00  0.00    +0.000 NA
ATOM     20  C   UNL     1      47.877   4.758  16.009  0.00  0.00    +0.000 A 
ENDBRANCH  11  12
ENDBRANCH   4  11
TORSDOF 4
ENDMDL
MODEL 9
REMARK VINA RESULT:    -5.186      1.215      2.055
REMARK INTER + INTRA:          -6.762
REMARK INTER:                  -6.375
REMARK INTRA:                  -0.387
REMARK UNBOUND:                -0.515
REMARK  Name = 
REMARK  4 active torsions:
REMARK  status: ('A' for Active; 'I' for Inactive)
REMARK    1  A    between atoms: N_1  and  C_2
REMARK    2  A    between atoms: C_2  and  C_3
REMARK    3  A    between atoms: C_6  and  C_7
REMARK    4  A    between atoms: C_7  and  N_8
REMARK                            x       y       z     vdW  Elec       q    Type
REMARK                         _______ _______ _______ _____ _____    ______ ____
ROOT
ATOM      1  C   UNL     1      49.106   8.488  14.027  0.00  0.00    +0.000 C 
ATOM      2  C   UNL     1      48.491   9.071  12.741  0.00  0.00    +0.000 C 
ATOM      3  C   UNL     1      48.436   8.048  11.605  0.00  0.00    +0.000 C 
ATOM      4  C   UNL     1      47.671   6.768  11.991  0.00  0.00    +0.000 C 
ATOM      5  C   UNL     1      48.231   6.190  13.307  0.00  0.00    +0.000 C 
ATOM      6  C   UNL     1      48.330   7.223  14.432  0.00  0.00    +0.000 C 
ENDROOT
BRANCH   1   7
ATOM      7  C   UNL     1      50.625   8.271  13.843  0.00  0.00    +0.000 C 
BRANCH   7   8
ATOM      8  N   UNL     1      51.205   7.407  14.866  0.00  0.00    +0.000 NA
ATOM      9  H   UNL     1      51.446   7.973  15.678  0.00  0.00    +0.000 HD
ATOM     10  H   UNL     1      52.086   7.022  14.530  0.00  0.00    +0.000 HD
ENDBRANCH   7   8
ENDBRANCH   1   7
BRANCH   4  11
ATOM     11  C   UNL     1      46.145   6.974  12.089  0.00  0.00    +0.000 C 
BRANCH  11  12
ATOM     12  N   UNL     1      45.365   5.748  12.018  0.00  0.00    +0.000 N 
ATOM     13  C   UNL     1      44.759   5.138  13.091  0.00  0.00    +0.000 A 
ATOM     14  C   UNL     1      44.191   3.962  12.650  0.00  0.00    +0.000 A 
ATOM     15  C   UNL     1      44.469   3.847  11.262  0.00  0.00    +0.000 A 
ATOM     16  C   UNL     1      44.191   2.895  10.267  0.00  0.00    +0.000 A 
ATOM     17  C   UNL     1      44.649   3.157   8.978  0.00  0.00    +0.000 A 
ATOM     18  C   UNL     1      45.350   4.331   8.738  0.00  0.00    +0.000 A 
ATOM     19  N   UNL     1      45.651   5.278   9.658  0.00  0.00    +0.000 NA
ATOM     20  C   UNL     1      45.191   4.981  10.892  0.00  0.00    +0.000 A 
ENDBRANCH  11  12
ENDBRANCH   4  11
TORSDOF 4
ENDMDL
