MODEL 1
REMARK VINA RESULT:    -7.010      0.000      0.000
REMARK INTER + INTRA:         -10.668
REMARK INTER:                  -9.879
REMARK INTRA:                  -0.789
REMARK UNBOUND:                -0.789
REMARK  Name = 
REMARK  10 active torsions:
REMARK  status: ('A' for Active; 'I' for Inactive)
REMARK    1  A    between atoms: C_1  and  O_2
REMARK    2  A    between atoms: O_2  and  C_3
REMARK    3  A    between atoms: C_6  and  C_7
REMARK    4  A    between atoms: N_9  and  C_10
REMARK    5  A    between atoms: N_9  and  C_11
REMARK    6  A    between atoms: C_11  and  C_12
REMARK    7  A    between atoms: C_11  and  C_13
REMARK    8  A    between atoms: C_16  and  C_17
REMARK    9  A    between atoms: C_17  and  N_18
REMARK   10  A    between atoms: C_19  and  C_21
REMARK                            x       y       z     vdW  Elec       q    Type
REMARK                         _______ _______ _______ _____ _____    ______ ____
ROOT
ATOM      1  C   UNL     1      48.929   7.546  16.406  0.00  0.00    +0.000 A 
ATOM      2  C   UNL     1      48.653   6.475  15.544  0.00  0.00    +0.000 A 
ATOM      3  C   UNL     1      48.324   6.698  14.201  0.00  0.00    +0.000 A 
ATOM      4  C   UNL     1      48.245   7.998  13.689  0.00  0.00    +0.000 A 
ATOM      5  C   UNL     1      48.503   9.071  14.546  0.00  0.00    +0.000 A 
ATOM      6  C   UNL     1      48.877   8.846  15.874  0.00  0.00    +0.000 A 
ENDROOT
BRANCH   1   7
ATOM      7  C   UNL     1      49.256   7.273  17.879  0.00  0.00    +0.000 C 
ATOM      8  C   UNL     1      48.102   7.710  18.795  0.00  0.00    +0.000 C 
BRANCH   7  11
ATOM      9  C   UNL     1      50.988   5.503  17.703  0.00  0.00    +0.000 C 
ATOM     10  O   UNL     1      51.771   6.322  17.212  0.00  0.00    +0.000 OA
ATOM     11  N   UNL     1      49.712   5.886  18.171  0.00  0.00    +0.000 N 
ATOM     12  C   UNL     1      48.846   5.012  18.959  0.00  0.00    +0.000 C 
BRANCH   9  16
ATOM     13  C   UNL     1      52.203   1.472  17.915  0.00  0.00    +0.000 A 
ATOM     14  C   UNL     1      52.993   2.412  18.551  0.00  0.00    +0.000 A 
ATOM     15  C   UNL     1      52.612   3.753  18.485  0.00  0.00    +0.000 A 
ATOM     16  C   UNL     1      51.457   4.083  17.783  0.00  0.00    +0.000 A 
ATOM     17  N   UNL     1      50.750   3.140  17.121  0.00  0.00    +0.000 NA
ATOM     18  N   UNL     1      51.107   1.822  17.210  0.00  0.00    +0.000 NA
BRANCH  13  20
ATOM     19  C   UNL     1      53.986  -0.027  18.065  0.00  0.00    +0.000 C 
ATOM     20  O   UNL     1      52.570   0.148  18.023  0.00  0.00    +0.000 OA
ENDBRANCH  13  20
ENDBRANCH   9  16
ENDBRANCH   7  11
ENDBRANCH   1   7
BRANCH   4  21
ATOM     21  C   UNL     1      47.859   8.248  12.256  0.00  0.00    +0.000 C 
BRANCH  21  22
ATOM     22  N   UNL     1      47.276   7.073  11.660  0.00  0.00    +0.000 N 
ATOM     23  C   UNL     1      45.934   7.016  11.379  0.00  0.00    +0.000 C 
ATOM     24  O   UNL     1      45.189   7.969  11.578  0.00  0.00    +0.000 OA
ATOM     25  H   UNL     1      47.815   6.214  11.704  0.00  0.00    +0.000 HD
BRANCH  23  26
ATOM     26  C   UNL     1      45.441   5.776  10.767  0.00  0.00    +0.000 A 
ATOM     27  C   UNL     1      45.692   5.529   9.424  0.00  0.00    +0.000 A 
ATOM     28  S   UNL     1      45.108   4.021   8.885  0.00  0.00    +0.000 S 
ATOM     29  C   UNL     1      44.449   3.669  10.412  0.00  0.00    +0.000 A 
ATOM     30  N   UNL     1      43.776   2.506  10.631  0.00  0.00    +0.000 NA
ATOM     31  C   UNL     1      43.311   2.377  11.828  0.00  0.00    +0.000 A 
ATOM     32  N   UNL     1      43.457   3.303  12.826  0.00  0.00    +0.000 N 
ATOM     33  C   UNL     1      44.145   4.481  12.658  0.00  0.00    +0.000 A 
ATOM     34  O   UNL     1      44.278   5.279  13.583  0.00  0.00    +0.000 OA
ATOM     35  C   UNL     1      44.687   4.679  11.328  0.00  0.00    +0.000 A 
ATOM     36  H   UNL     1      43.068   3.140  13.743  0.00  0.00    +0.000 HD
ENDBRANCH  23  26
ENDBRANCH  21  22
ENDBRANCH   4  21
TORSDOF 7
ENDMDL
MODEL 2
REMARK VINA RESULT:    -7.009      5.736      7.402
REMARK INTER + INTRA:         -10.666
REMARK INTER:                  -9.487
REMARK INTRA:                  -1.179
REMARK UNBOUND:                -0.789
REMARK  Name = 
REMARK  10 active torsions:
REMARK  status: ('A' for Active; 'I' for Inactive)
REMARK    1  A    between atoms: C_1  and  O_2
REMARK    2  A    between atoms: O_2  and  C_3
REMARK    3  A    between atoms: C_6  and  C_7
REMARK    4  A    between atoms: N_9  and  C_10
REMARK    5  A    between atoms: N_9  and  C_11
REMARK    6  A    between atoms: C_11  and  C_12
REMARK    7  A    between atoms: C_11  and  C_13
REMARK    8  A    between atoms: C_16  and  C_17
REMARK    9  A    between atoms: C_17  and  N_18
REMARK   10  A    between atoms: C_19  and  C_21
REMARK                            x       y       z     vdW  Elec       q    Type
REMARK                         _______ _______ _______ _____ _____    ______ ____
ROOT
ATOM      1  C   UNL     1      50.688   8.951  11.535  0.00  0.00    +0.000 A 
ATOM      2  C   UNL     1      50.165   7.660  11.693  0.00  0.00    +0.000 A 
ATOM      3  C   UNL     1      48.791   7.455  11.865  0.00  0.00    +0.000 A 
ATOM      4  C   UNL     1      47.904   8.538  11.900  0.00  0.00    +0.000 A 
ATOM      5  C   UNL     1      48.419   9.829  11.759  0.00  0.00    +0.000 A 
ATOM      6  C   UNL     1      49.785  10.029  11.541  0.00  0.00    +0.000 A 
ENDROOT
BRANCH   1   7
ATOM      7  C   UNL     1      52.201   9.147  11.381  0.00  0.00    +0.000 C 
ATOM      8  C   UNL     1      52.908   9.115  12.745  0.00  0.00    +0.000 C 
BRANCH   7  11
ATOM      9  C   UNL     1      52.779   8.611   9.027  0.00  0.00    +0.000 C 
ATOM     10  O   UNL     1      52.343   9.709   8.672  0.00  0.00    +0.000 OA
ATOM     11  N   UNL     1      52.850   8.245  10.389  0.00  0.00    +0.000 N 
ATOM     12  C   UNL     1      53.560   7.063  10.873  0.00  0.00    +0.000 C 
BRANCH   9  16
ATOM     13  C   UNL     1      53.994   5.920   6.019  0.00  0.00    +0.000 A 
ATOM     14  C   UNL     1      54.884   6.912   6.385  0.00  0.00    +0.000 A 
ATOM     15  C   UNL     1      54.497   7.818   7.374  0.00  0.00    +0.000 A 
ATOM     16  C   UNL     1      53.235   7.682   7.944  0.00  0.00    +0.000 A 
ATOM     17  N   UNL     1      52.372   6.737   7.509  0.00  0.00    +0.000 NA
ATOM     18  N   UNL     1      52.763   5.831   6.561  0.00  0.00    +0.000 NA
BRANCH  13  20
ATOM     19  C   UNL     1      54.649   3.715   5.620  0.00  0.00    +0.000 C 
ATOM     20  O   UNL     1      54.407   5.009   5.070  0.00  0.00    +0.000 OA
ENDBRANCH  13  20
ENDBRANCH   9  16
ENDBRANCH   7  11
ENDBRANCH   1   7
BRANCH   4  21
ATOM     21  C   UNL     1      46.429   8.329  12.117  0.00  0.00    +0.000 C 
BRANCH  21  22
ATOM     22  N   UNL     1      46.054   6.960  11.871  0.00  0.00    +0.000 N 
ATOM     23  C   UNL     1      44.766   6.632  11.530  0.00  0.00    +0.000 C 
ATOM     24  O   UNL     1      43.898   7.484  11.378  0.00  0.00    +0.000 OA
ATOM     25  H   UNL     1      46.681   6.238  12.210  0.00  0.00    +0.000 HD
BRANCH  23  26
ATOM     26  C   UNL     1      44.489   5.209  11.294  0.00  0.00    +0.000 A 
ATOM     27  C   UNL     1      43.749   4.493  12.224  0.00  0.00    +0.000 A 
ATOM     28  S   UNL     1      43.465   2.874  11.773  0.00  0.00    +0.000 S 
ATOM     29  C   UNL     1      44.369   3.056  10.345  0.00  0.00    +0.000 A 
ATOM     30  N   UNL     1      44.542   2.012   9.489  0.00  0.00    +0.000 NA
ATOM     31  C   UNL     1      45.266   2.284   8.456  0.00  0.00    +0.000 A 
ATOM     32  N   UNL     1      45.834   3.503   8.200  0.00  0.00    +0.000 N 
ATOM     33  C   UNL     1      45.671   4.592   9.023  0.00  0.00    +0.000 A 
ATOM     34  O   UNL     1      46.174   5.679   8.750  0.00  0.00    +0.000 OA
ATOM     35  C   UNL     1      44.866   4.341  10.203  0.00  0.00    +0.000 A 
ATOM     36  H   UNL     1      46.391   3.650   7.371  0.00  0.00    +0.000 HD
ENDBRANCH  23  26
ENDBRANCH  21  22
ENDBRANCH   4  21
TORSDOF 7
ENDMDL
MODEL 3
REMARK VINA RESULT:    -6.822      3.528      9.137
REMARK INTER + INTRA:         -10.402
REMARK INTER:                  -9.798
REMARK INTRA:                  -0.604
REMARK UNBOUND:                -0.789
REMARK  Name = 
REMARK  10 active torsions:
REMARK  status: ('A' for Active; 'I' for Inactive)
REMARK    1  A    between atoms: C_1  and  O_2
REMARK    2  A    between atoms: O_2  and  C_3
REMARK    3  A    between atoms: C_6  and  C_7
REMARK    4  A    between atoms: N_9  and  C_10
REMARK    5  A    between atoms: N_9  and  C_11
REMARK    6  A    between atoms: C_11  and  C_12
REMARK    7  A    between atoms: C_11  and  C_13
REMARK    8  A    between atoms: C_16  and  C_17
REMARK    9  A    between atoms: C_17  and  N_18
REMARK   10  A    between atoms: C_19  and  C_21
REMARK                            x       y       z     vdW  Elec       q    Type
REMARK                         _______ _______ _______ _____ _____    ______ ____
ROOT
ATOM      1  C   UNL     1      45.820   6.067  12.920  0.00  0.00    +0.000 A 
ATOM      2  C   UNL     1      46.630   5.211  13.680  0.00  0.00    +0.000 A 
ATOM      3  C   UNL     1      47.637   5.720  14.509  0.00  0.00    +0.000 A 
ATOM      4  C   UNL     1      47.872   7.098  14.588  0.00  0.00    +0.000 A 
ATOM      5  C   UNL     1      47.079   7.956  13.822  0.00  0.00    +0.000 A 
ATOM      6  C   UNL     1      46.045   7.451  13.030  0.00  0.00    +0.000 A 
ENDROOT
BRANCH   1   7
ATOM      7  C   UNL     1      44.747   5.479  11.996  0.00  0.00    +0.000 C 
ATOM      8  C   UNL     1      43.551   6.433  11.853  0.00  0.00    +0.000 C 
BRANCH   7  11
ATOM      9  C   UNL     1      44.856   3.717  10.251  0.00  0.00    +0.000 C 
ATOM     10  O   UNL     1      44.003   3.065  10.859  0.00  0.00    +0.000 OA
ATOM     11  N   UNL     1      45.249   5.004  10.677  0.00  0.00    +0.000 N 
ATOM     12  C   UNL     1      46.078   5.903   9.876  0.00  0.00    +0.000 C 
BRANCH   9  16
ATOM     13  C   UNL     1      46.598   1.855   6.894  0.00  0.00    +0.000 A 
ATOM     14  C   UNL     1      46.170   3.161   6.749  0.00  0.00    +0.000 A 
ATOM     15  C   UNL     1      45.583   3.793   7.847  0.00  0.00    +0.000 A 
ATOM     16  C   UNL     1      45.455   3.080   9.034  0.00  0.00    +0.000 A 
ATOM     17  N   UNL     1      45.827   1.782   9.112  0.00  0.00    +0.000 NA
ATOM     18  N   UNL     1      46.429   1.173   8.045  0.00  0.00    +0.000 NA
BRANCH  13  20
ATOM     19  C   UNL     1      47.981   2.180   5.042  0.00  0.00    +0.000 C 
ATOM     20  O   UNL     1      47.211   1.259   5.813  0.00  0.00    +0.000 OA
ENDBRANCH  13  20
ENDBRANCH   9  16
ENDBRANCH   7  11
ENDBRANCH   1   7
BRANCH   4  21
ATOM     21  C   UNL     1      48.974   7.651  15.452  0.00  0.00    +0.000 C 
BRANCH  21  22
ATOM     22  N   UNL     1      49.900   6.618  15.841  0.00  0.00    +0.000 N 
ATOM     23  C   UNL     1      50.284   6.471  17.151  0.00  0.00    +0.000 C 
ATOM     24  O   UNL     1      49.826   7.176  18.043  0.00  0.00    +0.000 OA
ATOM     25  H   UNL     1      50.454   6.189  15.106  0.00  0.00    +0.000 HD
BRANCH  23  26
ATOM     26  C   UNL     1      51.226   5.385  17.442  0.00  0.00    +0.000 A 
ATOM     27  C   UNL     1      52.525   5.690  17.826  0.00  0.00    +0.000 A 
ATOM     28  S   UNL     1      53.473   4.320  18.188  0.00  0.00    +0.000 S 
ATOM     29  C   UNL     1      52.199   3.267  17.789  0.00  0.00    +0.000 A 
ATOM     30  N   UNL     1      52.360   1.917  17.864  0.00  0.00    +0.000 NA
ATOM     31  C   UNL     1      51.321   1.237  17.514  0.00  0.00    +0.000 A 
ATOM     32  N   UNL     1      50.136   1.782  17.095  0.00  0.00    +0.000 N 
ATOM     33  C   UNL     1      49.920   3.137  17.023  0.00  0.00    +0.000 A 
ATOM     34  O   UNL     1      48.836   3.593  16.668  0.00  0.00    +0.000 OA
ATOM     35  C   UNL     1      51.058   3.951  17.404  0.00  0.00    +0.000 A 
ATOM     36  H   UNL     1      49.359   1.191  16.835  0.00  0.00    +0.000 HD
ENDBRANCH  23  26
ENDBRANCH  21  22
ENDBRANCH   4  21
TORSDOF 7
ENDMDL
MODEL 4
REMARK VINA RESULT:    -6.801      1.539      2.118
REMARK INTER + INTRA:         -10.373
REMARK INTER:                 -10.089
REMARK INTRA:                  -0.283
REMARK UNBOUND:                -0.789
REMARK  Name = 
REMARK  10 active torsions:
REMARK  status: ('A' for Active; 'I' for Inactive)
REMARK    1  A    between atoms: C_1  and  O_2
REMARK    2  A    between atoms: O_2  and  C_3
REMARK    3  A    between atoms: C_6  and  C_7
REMARK    4  A    between atoms: N_9  and  C_10
REMARK    5  A    between atoms: N_9  and  C_11
REMARK    6  A    between atoms: C_11  and  C_12
REMARK    7  A    between atoms: C_11  and  C_13
REMARK    8  A    between atoms: C_16  and  C_17
REMARK    9  A    between atoms: C_17  and  N_18
REMARK   10  A    between atoms: C_19  and  C_21
REMARK                            x       y       z     vdW  Elec       q    Type
REMARK                         _______ _______ _______ _____ _____    ______ ____
ROOT
ATOM      1  C   UNL     1      49.582   5.492  17.263  0.00  0.00    +0.000 A 
ATOM      2  C   UNL     1      48.375   5.126  16.650  0.00  0.00    +0.000 A 
ATOM      3  C   UNL     1      47.999   5.672  15.417  0.00  0.00    +0.000 A 
ATOM      4  C   UNL     1      48.813   6.612  14.771  0.00  0.00    +0.000 A 
ATOM      5  C   UNL     1      50.009   6.993  15.383  0.00  0.00    +0.000 A 
ATOM      6  C   UNL     1      50.406   6.413  16.591  0.00  0.00    +0.000 A 
ENDROOT
BRANCH   1   7
ATOM      7  C   UNL     1      49.952   4.901  18.629  0.00  0.00    +0.000 C 
ATOM      8  C   UNL     1      48.793   4.079  19.212  0.00  0.00    +0.000 C 
BRANCH   7  11
ATOM      9  C   UNL     1      51.382   3.054  17.790  0.00  0.00    +0.000 C 
ATOM     10  O   UNL     1      50.543   2.802  16.921  0.00  0.00    +0.000 OA
ATOM     11  N   UNL     1      51.241   4.157  18.659  0.00  0.00    +0.000 N 
ATOM     12  C   UNL     1      52.304   4.629  19.545  0.00  0.00    +0.000 C 
BRANCH   9  16
ATOM     13  C   UNL     1      54.644   0.403  18.111  0.00  0.00    +0.000 A 
ATOM     14  C   UNL     1      54.916   1.709  17.749  0.00  0.00    +0.000 A 
ATOM     15  C   UNL     1      53.848   2.600  17.629  0.00  0.00    +0.000 A 
ATOM     16  C   UNL     1      52.562   2.134  17.878  0.00  0.00    +0.000 A 
ATOM     17  N   UNL     1      52.335   0.832  18.166  0.00  0.00    +0.000 NA
ATOM     18  N   UNL     1      53.384  -0.034  18.312  0.00  0.00    +0.000 NA
BRANCH  13  20
ATOM     19  C   UNL     1      55.339  -1.826  18.137  0.00  0.00    +0.000 C 
ATOM     20  O   UNL     1      55.713  -0.454  18.264  0.00  0.00    +0.000 OA
ENDBRANCH  13  20
ENDBRANCH   9  16
ENDBRANCH   7  11
ENDBRANCH   1   7
BRANCH   4  21
ATOM     21  C   UNL     1      48.399   7.228  13.461  0.00  0.00    +0.000 C 
BRANCH  21  22
ATOM     22  N   UNL     1      47.632   6.303  12.668  0.00  0.00    +0.000 N 
ATOM     23  C   UNL     1      46.557   6.731  11.929  0.00  0.00    +0.000 C 
ATOM     24  O   UNL     1      46.235   7.912  11.876  0.00  0.00    +0.000 OA
ATOM     25  H   UNL     1      47.734   5.315  12.877  0.00  0.00    +0.000 HD
BRANCH  23  26
ATOM     26  C   UNL     1      45.846   5.709  11.150  0.00  0.00    +0.000 A 
ATOM     27  C   UNL     1      45.947   5.711   9.765  0.00  0.00    +0.000 A 
ATOM     28  S   UNL     1      45.114   4.426   9.017  0.00  0.00    +0.000 S 
ATOM     29  C   UNL     1      44.541   3.854  10.512  0.00  0.00    +0.000 A 
ATOM     30  N   UNL     1      43.732   2.761  10.579  0.00  0.00    +0.000 NA
ATOM     31  C   UNL     1      43.356   2.449  11.773  0.00  0.00    +0.000 A 
ATOM     32  N   UNL     1      43.713   3.130  12.907  0.00  0.00    +0.000 N 
ATOM     33  C   UNL     1      44.543   4.225  12.891  0.00  0.00    +0.000 A 
ATOM     34  O   UNL     1      44.864   4.796  13.930  0.00  0.00    +0.000 OA
ATOM     35  C   UNL     1      44.995   4.621  11.572  0.00  0.00    +0.000 A 
ATOM     36  H   UNL     1      43.383   2.832  13.813  0.00  0.00    +0.000 HD
ENDBRANCH  23  26
ENDBRANCH  21  22
ENDBRANCH   4  21
TORSDOF 7
ENDMDL
MODEL 5
REMARK VINA RESULT:    -6.500      5.459      7.347
REMARK INTER + INTRA:          -9.948
REMARK INTER:                  -9.634
REMARK INTRA:                  -0.315
REMARK UNBOUND:                -0.789
REMARK  Name = 
REMARK  10 active torsions:
REMARK  status: ('A' for Active; 'I' for Inactive)
REMARK    1  A    between atoms: C_1  and  O_2
REMARK    2  A    between atoms: O_2  and  C_3
REMARK    3  A    between atoms: C_6  and  C_7
REMARK    4  A    between atoms: N_9  and  C_10
REMARK    5  A    between atoms: N_9  and  C_11
REMARK    6  A    between atoms: C_11  and  C_12
REMARK    7  A    between atoms: C_11  and  C_13
REMARK    8  A    between atoms: C_16  and  C_17
REMARK    9  A    between atoms: C_17  and  N_18
REMARK   10  A    between atoms: C_19  and  C_21
REMARK                            x       y       z     vdW  Elec       q    Type
REMARK                         _______ _______ _______ _____ _____    ______ ____
ROOT
ATOM      1  C   UNL     1      51.564   8.941  11.696  0.00  0.00    +0.000 A 
ATOM      2  C   UNL     1      51.854   8.503  12.996  0.00  0.00    +0.000 A 
ATOM      3  C   UNL     1      50.827   8.185  13.895  0.00  0.00    +0.000 A 
ATOM      4  C   UNL     1      49.484   8.314  13.522  0.00  0.00    +0.000 A 
ATOM      5  C   UNL     1      49.187   8.765  12.233  0.00  0.00    +0.000 A 
ATOM      6  C   UNL     1      50.212   9.037  11.323  0.00  0.00    +0.000 A 
ENDROOT
BRANCH   1   7
ATOM      7  C   UNL     1      52.708   9.311  10.745  0.00  0.00    +0.000 C 
ATOM      8  C   UNL     1      53.807  10.098  11.476  0.00  0.00    +0.000 C 
BRANCH   7  11
ATOM      9  C   UNL     1      53.151   8.235   8.552  0.00  0.00    +0.000 C 
ATOM     10  O   UNL     1      52.763   9.256   7.976  0.00  0.00    +0.000 OA
ATOM     11  N   UNL     1      53.260   8.173   9.958  0.00  0.00    +0.000 N 
ATOM     12  C   UNL     1      53.921   7.082  10.670  0.00  0.00    +0.000 C 
BRANCH   9  16
ATOM     13  C   UNL     1      54.057   4.884   6.160  0.00  0.00    +0.000 A 
ATOM     14  C   UNL     1      55.101   5.718   6.513  0.00  0.00    +0.000 A 
ATOM     15  C   UNL     1      54.820   6.838   7.298  0.00  0.00    +0.000 A 
ATOM     16  C   UNL     1      53.504   7.064   7.688  0.00  0.00    +0.000 A 
ATOM     17  N   UNL     1      52.504   6.258   7.265  0.00  0.00    +0.000 NA
ATOM     18  N   UNL     1      52.784   5.145   6.521  0.00  0.00    +0.000 NA
BRANCH  13  20
ATOM     19  C   UNL     1      54.703   2.642   6.233  0.00  0.00    +0.000 C 
ATOM     20  O   UNL     1      54.357   3.762   5.418  0.00  0.00    +0.000 OA
ENDBRANCH  13  20
ENDBRANCH   9  16
ENDBRANCH   7  11
ENDBRANCH   1   7
BRANCH   4  21
ATOM     21  C   UNL     1      48.375   8.008  14.493  0.00  0.00    +0.000 C 
BRANCH  21  22
ATOM     22  N   UNL     1      47.170   7.623  13.804  0.00  0.00    +0.000 N 
ATOM     23  C   UNL     1      47.025   6.360  13.288  0.00  0.00    +0.000 C 
ATOM     24  O   UNL     1      47.887   5.499  13.426  0.00  0.00    +0.000 OA
ATOM     25  H   UNL     1      46.560   8.368  13.483  0.00  0.00    +0.000 HD
BRANCH  23  26
ATOM     26  C   UNL     1      45.756   6.067  12.610  0.00  0.00    +0.000 A 
ATOM     27  C   UNL     1      45.012   7.109  12.071  0.00  0.00    +0.000 A 
ATOM     28  S   UNL     1      43.599   6.597  11.267  0.00  0.00    +0.000 S 
ATOM     29  C   UNL     1      43.901   4.970  11.657  0.00  0.00    +0.000 A 
ATOM     30  N   UNL     1      43.040   3.988  11.274  0.00  0.00    +0.000 NA
ATOM     31  C   UNL     1      43.380   2.803  11.654  0.00  0.00    +0.000 A 
ATOM     32  N   UNL     1      44.502   2.509  12.384  0.00  0.00    +0.000 N 
ATOM     33  C   UNL     1      45.410   3.463  12.776  0.00  0.00    +0.000 A 
ATOM     34  O   UNL     1      46.419   3.160  13.408  0.00  0.00    +0.000 OA
ATOM     35  C   UNL     1      45.075   4.815  12.376  0.00  0.00    +0.000 A 
ATOM     36  H   UNL     1      44.710   1.557  12.649  0.00  0.00    +0.000 HD
ENDBRANCH  23  26
ENDBRANCH  21  22
ENDBRANCH   4  21
TORSDOF 7
ENDMDL
MODEL 6
REMARK VINA RESULT:    -6.441      3.831      9.201
REMARK INTER + INTRA:          -9.865
REMARK INTER:                  -9.355
REMARK INTRA:                  -0.510
REMARK UNBOUND:                -0.789
REMARK  Name = 
REMARK  10 active torsions:
REMARK  status: ('A' for Active; 'I' for Inactive)
REMARK    1  A    between atoms: C_1  and  O_2
REMARK    2  A    between atoms: O_2  and  C_3
REMARK    3  A    between atoms: C_6  and  C_7
REMARK    4  A    between atoms: N_9  and  C_10
REMARK    5  A    between atoms: N_9  and  C_11
REMARK    6  A    between atoms: C_11  and  C_12
REMARK    7  A    between atoms: C_11  and  C_13
REMARK    8  A    between atoms: C_16  and  C_17
REMARK    9  A    between atoms: C_17  and  N_18
REMARK   10  A    between atoms: C_19  and  C_21
REMARK                            x       y       z     vdW  Elec       q    Type
REMARK                         _______ _______ _______ _____ _____    ______ ____
ROOT
ATOM      1  C   UNL     1      45.648   6.367  12.719  0.00  0.00    +0.000 A 
ATOM      2  C   UNL     1      46.749   5.783  13.361  0.00  0.00    +0.000 A 
ATOM      3  C   UNL     1      47.670   6.567  14.069  0.00  0.00    +0.000 A 
ATOM      4  C   UNL     1      47.522   7.958  14.138  0.00  0.00    +0.000 A 
ATOM      5  C   UNL     1      46.437   8.548  13.487  0.00  0.00    +0.000 A 
ATOM      6  C   UNL     1      45.494   7.761  12.821  0.00  0.00    +0.000 A 
ENDROOT
BRANCH   1   7
ATOM      7  C   UNL     1      44.675   5.488  11.925  0.00  0.00    +0.000 C 
ATOM      8  C   UNL     1      43.300   6.160  11.790  0.00  0.00    +0.000 C 
BRANCH   7  11
ATOM      9  C   UNL     1      44.840   3.698  10.213  0.00  0.00    +0.000 C 
ATOM     10  O   UNL     1      44.002   3.034  10.829  0.00  0.00    +0.000 OA
ATOM     11  N   UNL     1      45.196   5.003  10.617  0.00  0.00    +0.000 N 
ATOM     12  C   UNL     1      46.004   5.909   9.803  0.00  0.00    +0.000 C 
BRANCH   9  16
ATOM     13  C   UNL     1      46.640   1.819   6.896  0.00  0.00    +0.000 A 
ATOM     14  C   UNL     1      46.239   3.133   6.746  0.00  0.00    +0.000 A 
ATOM     15  C   UNL     1      45.634   3.770   7.830  0.00  0.00    +0.000 A 
ATOM     16  C   UNL     1      45.460   3.055   9.010  0.00  0.00    +0.000 A 
ATOM     17  N   UNL     1      45.807   1.751   9.093  0.00  0.00    +0.000 NA
ATOM     18  N   UNL     1      46.428   1.135   8.039  0.00  0.00    +0.000 NA
BRANCH  13  20
ATOM     19  C   UNL     1      47.948   2.153   4.992  0.00  0.00    +0.000 C 
ATOM     20  O   UNL     1      47.273   1.216   5.830  0.00  0.00    +0.000 OA
ENDBRANCH  13  20
ENDBRANCH   9  16
ENDBRANCH   7  11
ENDBRANCH   1   7
BRANCH   4  21
ATOM     21  C   UNL     1      48.526   8.810  14.868  0.00  0.00    +0.000 C 
BRANCH  21  22
ATOM     22  N   UNL     1      48.796   8.288  16.183  0.00  0.00    +0.000 N 
ATOM     23  C   UNL     1      50.054   7.861  16.528  0.00  0.00    +0.000 C 
ATOM     24  O   UNL     1      51.002   7.945  15.756  0.00  0.00    +0.000 OA
ATOM     25  H   UNL     1      47.999   8.000  16.741  0.00  0.00    +0.000 HD
BRANCH  23  26
ATOM     26  C   UNL     1      50.224   7.352  17.895  0.00  0.00    +0.000 A 
ATOM     27  C   UNL     1      51.169   7.935  18.729  0.00  0.00    +0.000 A 
ATOM     28  S   UNL     1      51.199   7.271  20.298  0.00  0.00    +0.000 S 
ATOM     29  C   UNL     1      49.990   6.143  19.903  0.00  0.00    +0.000 A 
ATOM     30  N   UNL     1      49.553   5.236  20.820  0.00  0.00    +0.000 NA
ATOM     31  C   UNL     1      48.649   4.428  20.381  0.00  0.00    +0.000 A 
ATOM     32  N   UNL     1      48.141   4.441  19.109  0.00  0.00    +0.000 N 
ATOM     33  C   UNL     1      48.535   5.349  18.156  0.00  0.00    +0.000 A 
ATOM     34  O   UNL     1      48.040   5.349  17.031  0.00  0.00    +0.000 OA
ATOM     35  C   UNL     1      49.554   6.282  18.596  0.00  0.00    +0.000 A 
ATOM     36  H   UNL     1      47.432   3.778  18.829  0.00  0.00    +0.000 HD
ENDBRANCH  23  26
ENDBRANCH  21  22
ENDBRANCH   4  21
TORSDOF 7
ENDMDL
MODEL 7
REMARK VINA RESULT:    -6.365      3.034      8.870
REMARK INTER + INTRA:          -9.759
REMARK INTER:                  -8.259
REMARK INTRA:                  -1.499
REMARK UNBOUND:                -0.789
REMARK  Name = 
REMARK  10 active torsions:
REMARK  status: ('A' for Active; 'I' for Inactive)
REMARK    1  A    between atoms: C_1  and  O_2
REMARK    2  A    between atoms: O_2  and  C_3
REMARK    3  A    between atoms: C_6  and  C_7
REMARK    4  A    between atoms: N_9  and  C_10
REMARK    5  A    between atoms: N_9  and  C_11
REMARK    6  A    between atoms: C_11  and  C_12
REMARK    7  A    between atoms: C_11  and  C_13
REMARK    8  A    between atoms: C_16  and  C_17
REMARK    9  A    between atoms: C_17  and  N_18
REMARK   10  A    between atoms: C_19  and  C_21
REMARK                            x       y       z     vdW  Elec       q    Type
REMARK                         _______ _______ _______ _____ _____    ______ ____
ROOT
ATOM      1  C   UNL     1      49.102   8.636  15.075  0.00  0.00    +0.000 A 
ATOM      2  C   UNL     1      50.316   9.284  15.347  0.00  0.00    +0.000 A 
ATOM      3  C   UNL     1      51.012   9.039  16.537  0.00  0.00    +0.000 A 
ATOM      4  C   UNL     1      50.504   8.153  17.495  0.00  0.00    +0.000 A 
ATOM      5  C   UNL     1      49.288   7.516  17.239  0.00  0.00    +0.000 A 
ATOM      6  C   UNL     1      48.617   7.725  16.030  0.00  0.00    +0.000 A 
ENDROOT
BRANCH   1   7
ATOM      7  C   UNL     1      48.347   8.948  13.778  0.00  0.00    +0.000 C 
ATOM      8  C   UNL     1      49.171   9.864  12.860  0.00  0.00    +0.000 C 
BRANCH   7  11
ATOM      9  C   UNL     1      46.424   7.643  12.905  0.00  0.00    +0.000 C 
ATOM     10  O   UNL     1      45.663   8.567  13.207  0.00  0.00    +0.000 OA
ATOM     11  N   UNL     1      47.823   7.754  13.058  0.00  0.00    +0.000 N 
ATOM     12  C   UNL     1      48.775   6.790  12.511  0.00  0.00    +0.000 C 
BRANCH   9  16
ATOM     13  C   UNL     1      44.695   4.078  11.464  0.00  0.00    +0.000 A 
ATOM     14  C   UNL     1      44.919   5.093  10.553  0.00  0.00    +0.000 A 
ATOM     15  C   UNL     1      45.483   6.284  11.012  0.00  0.00    +0.000 A 
ATOM     16  C   UNL     1      45.793   6.397  12.363  0.00  0.00    +0.000 A 
ATOM     17  N   UNL     1      45.497   5.404  13.232  0.00  0.00    +0.000 NA
ATOM     18  N   UNL     1      44.971   4.225  12.776  0.00  0.00    +0.000 NA
BRANCH  13  20
ATOM     19  C   UNL     1      44.580   2.616   9.649  0.00  0.00    +0.000 C 
ATOM     20  O   UNL     1      44.175   2.894  10.988  0.00  0.00    +0.000 OA
ENDBRANCH  13  20
ENDBRANCH   9  16
ENDBRANCH   7  11
ENDBRANCH   1   7
BRANCH   4  21
ATOM     21  C   UNL     1      51.230   7.911  18.792  0.00  0.00    +0.000 C 
BRANCH  21  22
ATOM     22  N   UNL     1      51.671   6.544  18.895  0.00  0.00    +0.000 N 
ATOM     23  C   UNL     1      52.877   6.150  18.371  0.00  0.00    +0.000 C 
ATOM     24  O   UNL     1      53.643   6.945  17.837  0.00  0.00    +0.000 OA
ATOM     25  H   UNL     1      50.970   5.844  19.118  0.00  0.00    +0.000 HD
BRANCH  23  26
ATOM     26  C   UNL     1      53.236   4.736  18.535  0.00  0.00    +0.000 A 
ATOM     27  C   UNL     1      54.435   4.401  19.151  0.00  0.00    +0.000 A 
ATOM     28  S   UNL     1      54.673   2.722  19.319  0.00  0.00    +0.000 S 
ATOM     29  C   UNL     1      53.209   2.380  18.525  0.00  0.00    +0.000 A 
ATOM     30  N   UNL     1      52.812   1.095  18.314  0.00  0.00    +0.000 NA
ATOM     31  C   UNL     1      51.693   0.980  17.682  0.00  0.00    +0.000 A 
ATOM     32  N   UNL     1      50.935   2.031  17.240  0.00  0.00    +0.000 N 
ATOM     33  C   UNL     1      51.284   3.344  17.447  0.00  0.00    +0.000 A 
ATOM     34  O   UNL     1      50.567   4.264  17.060  0.00  0.00    +0.000 OA
ATOM     35  C   UNL     1      52.537   3.532  18.152  0.00  0.00    +0.000 A 
ATOM     36  H   UNL     1      50.066   1.872  16.751  0.00  0.00    +0.000 HD
ENDBRANCH  23  26
ENDBRANCH  21  22
ENDBRANCH   4  21
TORSDOF 7
ENDMDL
MODEL 8
REMARK VINA RESULT:    -6.113      5.022      9.126
REMARK INTER + INTRA:          -9.404
REMARK INTER:                  -8.815
REMARK INTRA:                  -0.588
REMARK UNBOUND:                -0.789
REMARK  Name = 
REMARK  10 active torsions:
REMARK  status: ('A' for Active; 'I' for Inactive)
REMARK    1  A    between atoms: C_1  and  O_2
REMARK    2  A    between atoms: O_2  and  C_3
REMARK    3  A    between atoms: C_6  and  C_7
REMARK    4  A    between atoms: N_9  and  C_10
REMARK    5  A    between atoms: N_9  and  C_11
REMARK    6  A    between atoms: C_11  and  C_12
REMARK    7  A    between atoms: C_11  and  C_13
REMARK    8  A    between atoms: C_16  and  C_17
REMARK    9  A    between atoms: C_17  and  N_18
REMARK   10  A    between atoms: C_19  and  C_21
REMARK                            x       y       z     vdW  Elec       q    Type
REMARK                         _______ _______ _______ _____ _____    ______ ____
ROOT
ATOM      1  C   UNL     1      45.610   6.516  12.615  0.00  0.00    +0.000 A 
ATOM      2  C   UNL     1      46.738   6.017  13.283  0.00  0.00    +0.000 A 
ATOM      3  C   UNL     1      47.618   6.877  13.951  0.00  0.00    +0.000 A 
ATOM      4  C   UNL     1      47.403   8.260  13.955  0.00  0.00    +0.000 A 
ATOM      5  C   UNL     1      46.290   8.766  13.278  0.00  0.00    +0.000 A 
ATOM      6  C   UNL     1      45.387   7.903  12.652  0.00  0.00    +0.000 A 
ENDROOT
BRANCH   1   7
ATOM      7  C   UNL     1      44.681   5.553  11.865  0.00  0.00    +0.000 C 
ATOM      8  C   UNL     1      43.270   6.143  11.716  0.00  0.00    +0.000 C 
BRANCH   7  11
ATOM      9  C   UNL     1      44.872   3.732  10.189  0.00  0.00    +0.000 C 
ATOM     10  O   UNL     1      44.029   3.077  10.808  0.00  0.00    +0.000 OA
ATOM     11  N   UNL     1      45.219   5.046  10.573  0.00  0.00    +0.000 N 
ATOM     12  C   UNL     1      46.033   5.939   9.751  0.00  0.00    +0.000 C 
BRANCH   9  16
ATOM     13  C   UNL     1      46.711   1.793   6.929  0.00  0.00    +0.000 A 
ATOM     14  C   UNL     1      46.397   3.131   6.782  0.00  0.00    +0.000 A 
ATOM     15  C   UNL     1      45.781   3.789   7.847  0.00  0.00    +0.000 A 
ATOM     16  C   UNL     1      45.509   3.069   9.006  0.00  0.00    +0.000 A 
ATOM     17  N   UNL     1      45.774   1.745   9.083  0.00  0.00    +0.000 NA
ATOM     18  N   UNL     1      46.405   1.108   8.050  0.00  0.00    +0.000 NA
BRANCH  13  20
ATOM     19  C   UNL     1      47.951   2.093   4.974  0.00  0.00    +0.000 C 
ATOM     20  O   UNL     1      47.356   1.168   5.883  0.00  0.00    +0.000 OA
ENDBRANCH  13  20
ENDBRANCH   9  16
ENDBRANCH   7  11
ENDBRANCH   1   7
BRANCH   4  21
ATOM     21  C   UNL     1      48.363   9.194  14.642  0.00  0.00    +0.000 C 
BRANCH  21  22
ATOM     22  N   UNL     1      49.579   9.343  13.885  0.00  0.00    +0.000 N 
ATOM     23  C   UNL     1      50.737   8.720  14.281  0.00  0.00    +0.000 C 
ATOM     24  O   UNL     1      50.775   7.982  15.259  0.00  0.00    +0.000 OA
ATOM     25  H   UNL     1      49.626  10.114  13.227  0.00  0.00    +0.000 HD
BRANCH  23  26
ATOM     26  C   UNL     1      51.919   8.931  13.436  0.00  0.00    +0.000 A 
ATOM     27  C   UNL     1      53.004   9.635  13.942  0.00  0.00    +0.000 A 
ATOM     28  S   UNL     1      54.317   9.739  12.860  0.00  0.00    +0.000 S 
ATOM     29  C   UNL     1      53.462   8.896  11.656  0.00  0.00    +0.000 A 
ATOM     30  N   UNL     1      54.023   8.656  10.439  0.00  0.00    +0.000 NA
ATOM     31  C   UNL     1      53.257   8.025   9.615  0.00  0.00    +0.000 A 
ATOM     32  N   UNL     1      51.981   7.613   9.894  0.00  0.00    +0.000 N 
ATOM     33  C   UNL     1      51.380   7.814  11.114  0.00  0.00    +0.000 A 
ATOM     34  O   UNL     1      50.243   7.408  11.339  0.00  0.00    +0.000 OA
ATOM     35  C   UNL     1      52.197   8.522  12.079  0.00  0.00    +0.000 A 
ATOM     36  H   UNL     1      51.434   7.122   9.202  0.00  0.00    +0.000 HD
ENDBRANCH  23  26
ENDBRANCH  21  22
ENDBRANCH   4  21
TORSDOF 7
ENDMDL
MODEL 9
REMARK VINA RESULT:    -5.948      5.485      8.625
REMARK INTER + INTRA:          -9.171
REMARK INTER:                  -8.898
REMARK INTRA:                  -0.274
REMARK UNBOUND:                -0.789
REMARK  Name = 
REMARK  10 active torsions:
REMARK  status: ('A' for Active; 'I' for Inactive)
REMARK    1  A    between atoms: C_1  and  O_2
REMARK    2  A    between atoms: O_2  and  C_3
REMARK    3  A    between atoms: C_6  and  C_7
REMARK    4  A    between atoms: N_9  and  C_10
REMARK    5  A    between atoms: N_9  and  C_11
REMARK    6  A    between atoms: C_11  and  C_12
REMARK    7  A    between atoms: C_11  and  C_13
REMARK    8  A    between atoms: C_16  and  C_17
REMARK    9  A    between atoms: C_17  and  N_18
REMARK   10  A    between atoms: C_19  and  C_21
REMARK                            x       y       z     vdW  Elec       q    Type
REMARK                         _______ _______ _______ _____ _____    ______ ____
ROOT
ATOM      1  C   UNL     1      45.286   6.761  12.607  0.00  0.00    +0.000 A 
ATOM      2  C   UNL     1      46.528   6.492  13.201  0.00  0.00    +0.000 A 
ATOM      3  C   UNL     1      47.423   7.526  13.501  0.00  0.00    +0.000 A 
ATOM      4  C   UNL     1      47.107   8.857  13.199  0.00  0.00    +0.000 A 
ATOM      5  C   UNL     1      45.878   9.131  12.592  0.00  0.00    +0.000 A 
ATOM      6  C   UNL     1      44.967   8.103  12.336  0.00  0.00    +0.000 A 
ENDROOT
BRANCH   1   7
ATOM      7  C   UNL     1      44.341   5.605  12.262  0.00  0.00    +0.000 C 
ATOM      8  C   UNL     1      43.037   6.120  11.633  0.00  0.00    +0.000 C 
BRANCH   7  11
ATOM      9  C   UNL     1      45.234   4.770  10.101  0.00  0.00    +0.000 C 
ATOM     10  O   UNL     1      45.125   5.902   9.621  0.00  0.00    +0.000 OA
ATOM     11  N   UNL     1      44.958   4.511  11.461  0.00  0.00    +0.000 N 
ATOM     12  C   UNL     1      45.286   3.252  12.127  0.00  0.00    +0.000 C 
BRANCH   9  16
ATOM     13  C   UNL     1      46.486   1.637   7.574  0.00  0.00    +0.000 A 
ATOM     14  C   UNL     1      46.788   2.929   7.187  0.00  0.00    +0.000 A 
ATOM     15  C   UNL     1      46.375   3.980   8.006  0.00  0.00    +0.000 A 
ATOM     16  C   UNL     1      45.678   3.681   9.172  0.00  0.00    +0.000 A 
ATOM     17  N   UNL     1      45.347   2.407   9.480  0.00  0.00    +0.000 NA
ATOM     18  N   UNL     1      45.778   1.374   8.692  0.00  0.00    +0.000 NA
BRANCH  13  20
ATOM     19  C   UNL     1      46.645  -0.679   7.321  0.00  0.00    +0.000 C 
ATOM     20  O   UNL     1      46.936   0.607   6.775  0.00  0.00    +0.000 OA
ENDBRANCH  13  20
ENDBRANCH   9  16
ENDBRANCH   7  11
ENDBRANCH   1   7
BRANCH   4  21
ATOM     21  C   UNL     1      48.077   9.971  13.487  0.00  0.00    +0.000 C 
BRANCH  21  22
ATOM     22  N   UNL     1      49.288   9.820  12.722  0.00  0.00    +0.000 N 
ATOM     23  C   UNL     1      49.426  10.418  11.494  0.00  0.00    +0.000 C 
ATOM     24  O   UNL     1      48.552  11.135  11.020  0.00  0.00    +0.000 OA
ATOM     25  H   UNL     1      49.911   9.062  12.982  0.00  0.00    +0.000 HD
BRANCH  23  26
ATOM     26  C   UNL     1      50.701  10.206  10.798  0.00  0.00    +0.000 A 
ATOM     27  C   UNL     1      51.356  11.289  10.226  0.00  0.00    +0.000 A 
ATOM     28  S   UNL     1      52.851  10.885   9.512  0.00  0.00    +0.000 S 
ATOM     29  C   UNL     1      52.650   9.240   9.892  0.00  0.00    +0.000 A 
ATOM     30  N   UNL     1      53.587   8.321   9.533  0.00  0.00    +0.000 NA
ATOM     31  C   UNL     1      53.298   7.108   9.865  0.00  0.00    +0.000 A 
ATOM     32  N   UNL     1      52.158   6.729  10.522  0.00  0.00    +0.000 N 
ATOM     33  C   UNL     1      51.194   7.623  10.922  0.00  0.00    +0.000 A 
ATOM     34  O   UNL     1      50.194   7.251  11.533  0.00  0.00    +0.000 OA
ATOM     35  C   UNL     1      51.467   9.003  10.572  0.00  0.00    +0.000 A 
ATOM     36  H   UNL     1      51.993   5.760  10.753  0.00  0.00    +0.000 HD
ENDBRANCH  23  26
ENDBRANCH  21  22
ENDBRANCH   4  21
TORSDOF 7
ENDMDL
