MODEL 1
REMARK VINA RESULT:    -8.086      0.000      0.000
REMARK INTER + INTRA:         -13.408
REMARK INTER:                 -12.340
REMARK INTRA:                  -1.068
REMARK UNBOUND:                -1.068
REMARK  Name = 
REMARK  10 active torsions:
REMARK  status: ('A' for Active; 'I' for Inactive)
REMARK    1  A    between atoms: C_1  and  C_2
REMARK    2  A    between atoms: C_2  and  C_3
REMARK    3  A    between atoms: C_3  and  N_4
REMARK    4  A    between atoms: C_3  and  C_20
REMARK    5  A    between atoms: N_4  and  C_5
REMARK    6  A    between atoms: C_5  and  C_6
REMARK    7  A    between atoms: C_9  and  C_10
REMARK    8  A    between atoms: C_10  and  N_11
REMARK    9  A    between atoms: N_11  and  C_12
REMARK   10  A    between atoms: C_12  and  C_13
REMARK                            x       y       z     vdW  Elec       q    Type
REMARK                         _______ _______ _______ _____ _____    ______ ____
ROOT
ATOM      1  C   UNL     1      47.846   5.373  15.113  0.00  0.00    +0.000 C 
ENDROOT
BRANCH   1   2
ATOM      2  C   UNL     1      46.854   4.954  14.055  0.00  0.00    +0.000 A 
ATOM      3  C   UNL     1      46.231   5.862  13.191  0.00  0.00    +0.000 A 
ATOM      4  C   UNL     1      45.439   5.387  12.145  0.00  0.00    +0.000 A 
ATOM      5  C   UNL     1      45.271   4.014  11.994  0.00  0.00    +0.000 A 
ATOM      6  N   UNL     1      45.833   3.118  12.841  0.00  0.00    +0.000 NA
ATOM      7  C   UNL     1      46.599   3.606  13.842  0.00  0.00    +0.000 A 
BRANCH   5   8
ATOM      8  C   UNL     1      44.413   3.445  10.880  0.00  0.00    +0.000 C 
BRANCH   8   9
ATOM      9  N   UNL     1      45.128   2.494  10.011  0.00  0.00    +0.000 NA
ATOM     10  H   UNL     1      44.647   1.596  10.129  0.00  0.00    +0.000 HD
BRANCH   9  11
ATOM     11  C   UNL     1      45.003   2.864   8.605  0.00  0.00    +0.000 C 
BRANCH  11  12
ATOM     12  C   UNL     1      46.200   2.384   7.877  0.00  0.00    +0.000 A 
ATOM     13  C   UNL     1      46.757   1.131   7.732  0.00  0.00    +0.000 A 
ATOM     14  N   UNL     1      47.878   1.183   6.941  0.00  0.00    +0.000 NA
ATOM     15  C   UNL     1      48.019   2.448   6.624  0.00  0.00    +0.000 A 
ATOM     16  N   UNL     1      47.031   3.217   7.170  0.00  0.00    +0.000 N 
ATOM     17  H   UNL     1      46.935   4.221   7.100  0.00  0.00    +0.000 HD
ENDBRANCH  11  12
ENDBRANCH   9  11
ENDBRANCH   8   9
ENDBRANCH   5   8
ENDBRANCH   1   2
BRANCH   1  18
ATOM     18  N   UNL     1      48.364   4.271  15.915  0.00  0.00    +0.000 NA
ATOM     19  H   UNL     1      49.132   3.796  15.433  0.00  0.00    +0.000 HD
BRANCH  18  20
ATOM     20  C   UNL     1      48.797   4.695  17.253  0.00  0.00    +0.000 C 
BRANCH  20  21
ATOM     21  C   UNL     1      50.282   4.469  17.504  0.00  0.00    +0.000 A 
ATOM     22  C   UNL     1      51.111   5.477  17.977  0.00  0.00    +0.000 A 
ATOM     23  S   UNL     1      52.639   4.917  18.492  0.00  0.00    +0.000 S 
ATOM     24  C   UNL     1      52.253   3.315  18.071  0.00  0.00    +0.000 A 
ATOM     25  N   UNL     1      53.094   2.286  18.367  0.00  0.00    +0.000 NA
ATOM     26  C   UNL     1      52.661   1.126  17.997  0.00  0.00    +0.000 A 
ATOM     27  N   UNL     1      51.493   0.909  17.307  0.00  0.00    +0.000 N 
ATOM     28  C   UNL     1      50.666   1.933  16.898  0.00  0.00    +0.000 A 
ATOM     29  O   UNL     1      49.743   1.751  16.110  0.00  0.00    +0.000 OA
ATOM     30  C   UNL     1      51.030   3.231  17.432  0.00  0.00    +0.000 A 
ATOM     31  H   UNL     1      51.271  -0.013  16.965  0.00  0.00    +0.000 HD
ENDBRANCH  20  21
BRANCH  20  33
ATOM     32  C   UNL     1      47.078   2.856  17.765  0.00  0.00    +0.000 C 
ATOM     33  C   UNL     1      47.915   4.009  18.317  0.00  0.00    +0.000 C 
ENDBRANCH  20  33
ENDBRANCH  18  20
ENDBRANCH   1  18
TORSDOF 9
ENDMDL
MODEL 2
REMARK VINA RESULT:    -7.758      2.605      3.801
REMARK INTER + INTRA:         -12.909
REMARK INTER:                 -11.406
REMARK INTRA:                  -1.502
REMARK UNBOUND:                -1.068
REMARK  Name = 
REMARK  10 active torsions:
REMARK  status: ('A' for Active; 'I' for Inactive)
REMARK    1  A    between atoms: C_1  and  C_2
REMARK    2  A    between atoms: C_2  and  C_3
REMARK    3  A    between atoms: C_3  and  N_4
REMARK    4  A    between atoms: C_3  and  C_20
REMARK    5  A    between atoms: N_4  and  C_5
REMARK    6  A    between atoms: C_5  and  C_6
REMARK    7  A    between atoms: C_9  and  C_10
REMARK    8  A    between atoms: C_10  and  N_11
REMARK    9  A    between atoms: N_11  and  C_12
REMARK   10  A    between atoms: C_12  and  C_13
REMARK                            x       y       z     vdW  Elec       q    Type
REMARK                         _______ _______ _______ _____ _____    ______ ____
ROOT
ATOM      1  C   UNL     1      46.061   8.423  12.835  0.00  0.00    +0.000 C 
ENDROOT
BRANCH   1   2
ATOM      2  C   UNL     1      45.525   7.208  12.118  0.00  0.00    +0.000 A 
ATOM      3  C   UNL     1      46.090   6.709  10.938  0.00  0.00    +0.000 A 
ATOM      4  C   UNL     1      45.634   5.499  10.413  0.00  0.00    +0.000 A 
ATOM      5  C   UNL     1      44.610   4.821  11.067  0.00  0.00    +0.000 A 
ATOM      6  N   UNL     1      44.022   5.304  12.189  0.00  0.00    +0.000 NA
ATOM      7  C   UNL     1      44.488   6.475  12.678  0.00  0.00    +0.000 A 
BRANCH   5   8
ATOM      8  C   UNL     1      44.069   3.507  10.533  0.00  0.00    +0.000 C 
BRANCH   8   9
ATOM      9  N   UNL     1      44.472   3.224   9.145  0.00  0.00    +0.000 NA
ATOM     10  H   UNL     1      45.253   3.859   8.949  0.00  0.00    +0.000 HD
BRANCH   9  11
ATOM     11  C   UNL     1      44.984   1.864   9.009  0.00  0.00    +0.000 C 
BRANCH  11  12
ATOM     12  C   UNL     1      46.159   1.885   8.108  0.00  0.00    +0.000 A 
ATOM     13  C   UNL     1      46.954   0.882   7.597  0.00  0.00    +0.000 A 
ATOM     14  N   UNL     1      47.932   1.399   6.784  0.00  0.00    +0.000 NA
ATOM     15  C   UNL     1      47.754   2.698   6.812  0.00  0.00    +0.000 A 
ATOM     16  N   UNL     1      46.696   3.044   7.604  0.00  0.00    +0.000 N 
ATOM     17  H   UNL     1      46.376   3.979   7.813  0.00  0.00    +0.000 HD
ENDBRANCH  11  12
ENDBRANCH   9  11
ENDBRANCH   8   9
ENDBRANCH   5   8
ENDBRANCH   1   2
BRANCH   1  18
ATOM     18  N   UNL     1      46.842   8.115  14.027  0.00  0.00    +0.000 NA
ATOM     19  H   UNL     1      46.273   7.628  14.724  0.00  0.00    +0.000 HD
BRANCH  18  20
ATOM     20  C   UNL     1      48.049   7.331  13.730  0.00  0.00    +0.000 C 
BRANCH  20  21
ATOM     21  C   UNL     1      48.651   6.665  14.960  0.00  0.00    +0.000 A 
ATOM     22  C   UNL     1      49.685   7.248  15.681  0.00  0.00    +0.000 A 
ATOM     23  S   UNL     1      49.971   6.498  17.188  0.00  0.00    +0.000 S 
ATOM     24  C   UNL     1      48.744   5.353  16.912  0.00  0.00    +0.000 A 
ATOM     25  N   UNL     1      48.375   4.469  17.878  0.00  0.00    +0.000 NA
ATOM     26  C   UNL     1      47.422   3.670  17.527  0.00  0.00    +0.000 A 
ATOM     27  N   UNL     1      46.847   3.636  16.281  0.00  0.00    +0.000 N 
ATOM     28  C   UNL     1      47.262   4.444  15.244  0.00  0.00    +0.000 A 
ATOM     29  O   UNL     1      46.890   4.265  14.089  0.00  0.00    +0.000 OA
ATOM     30  C   UNL     1      48.214   5.464  15.639  0.00  0.00    +0.000 A 
ATOM     31  H   UNL     1      46.178   2.917  16.051  0.00  0.00    +0.000 HD
ENDBRANCH  20  21
BRANCH  20  33
ATOM     32  C   UNL     1      49.676   7.558  11.755  0.00  0.00    +0.000 C 
ATOM     33  C   UNL     1      49.069   8.222  12.990  0.00  0.00    +0.000 C 
ENDBRANCH  20  33
ENDBRANCH  18  20
ENDBRANCH   1  18
TORSDOF 9
ENDMDL
MODEL 3
REMARK VINA RESULT:    -7.241      1.641      2.300
REMARK INTER + INTRA:         -12.118
REMARK INTER:                 -11.494
REMARK INTRA:                  -0.624
REMARK UNBOUND:                -1.068
REMARK  Name = 
REMARK  10 active torsions:
REMARK  status: ('A' for Active; 'I' for Inactive)
REMARK    1  A    between atoms: C_1  and  C_2
REMARK    2  A    between atoms: C_2  and  C_3
REMARK    3  A    between atoms: C_3  and  N_4
REMARK    4  A    between atoms: C_3  and  C_20
REMARK    5  A    between atoms: N_4  and  C_5
REMARK    6  A    between atoms: C_5  and  C_6
REMARK    7  A    between atoms: C_9  and  C_10
REMARK    8  A    between atoms: C_10  and  N_11
REMARK    9  A    between atoms: N_11  and  C_12
REMARK   10  A    between atoms: C_12  and  C_13
REMARK                            x       y       z     vdW  Elec       q    Type
REMARK                         _______ _______ _______ _____ _____    ______ ____
ROOT
ATOM      1  C   UNL     1      48.580   5.841  15.798  0.00  0.00    +0.000 C 
ENDROOT
BRANCH   1   2
ATOM      2  C   UNL     1      47.823   5.756  14.496  0.00  0.00    +0.000 A 
ATOM      3  C   UNL     1      46.880   4.757  14.225  0.00  0.00    +0.000 A 
ATOM      4  C   UNL     1      46.116   4.827  13.060  0.00  0.00    +0.000 A 
ATOM      5  C   UNL     1      46.323   5.883  12.178  0.00  0.00    +0.000 A 
ATOM      6  N   UNL     1      47.257   6.841  12.400  0.00  0.00    +0.000 NA
ATOM      7  C   UNL     1      47.978   6.751  13.540  0.00  0.00    +0.000 A 
BRANCH   5   8
ATOM      8  C   UNL     1      45.526   6.002  10.892  0.00  0.00    +0.000 C 
BRANCH   8   9
ATOM      9  N   UNL     1      44.111   6.351  11.104  0.00  0.00    +0.000 NA
ATOM     10  H   UNL     1      43.881   7.031  10.372  0.00  0.00    +0.000 HD
BRANCH   9  11
ATOM     11  C   UNL     1      43.244   5.195  10.900  0.00  0.00    +0.000 C 
BRANCH  11  12
ATOM     12  C   UNL     1      43.938   4.228  10.019  0.00  0.00    +0.000 A 
ATOM     13  C   UNL     1      44.588   3.039  10.276  0.00  0.00    +0.000 A 
ATOM     14  N   UNL     1      45.071   2.485   9.117  0.00  0.00    +0.000 NA
ATOM     15  C   UNL     1      44.743   3.329   8.168  0.00  0.00    +0.000 A 
ATOM     16  N   UNL     1      44.061   4.404   8.663  0.00  0.00    +0.000 N 
ATOM     17  H   UNL     1      43.728   5.203   8.142  0.00  0.00    +0.000 HD
ENDBRANCH  11  12
ENDBRANCH   9  11
ENDBRANCH   8   9
ENDBRANCH   5   8
ENDBRANCH   1   2
BRANCH   1  18
ATOM     18  N   UNL     1      48.948   4.546  16.360  0.00  0.00    +0.000 NA
ATOM     19  H   UNL     1      49.694   4.108  15.813  0.00  0.00    +0.000 HD
BRANCH  18  20
ATOM     20  C   UNL     1      49.344   4.630  17.772  0.00  0.00    +0.000 C 
BRANCH  20  21
ATOM     21  C   UNL     1      50.794   4.230  18.014  0.00  0.00    +0.000 A 
ATOM     22  C   UNL     1      51.690   5.067  18.664  0.00  0.00    +0.000 A 
ATOM     23  S   UNL     1      53.143   4.292  19.113  0.00  0.00    +0.000 S 
ATOM     24  C   UNL     1      52.634   2.822  18.428  0.00  0.00    +0.000 A 
ATOM     25  N   UNL     1      53.369   1.685  18.569  0.00  0.00    +0.000 NA
ATOM     26  C   UNL     1      52.849   0.646  18.005  0.00  0.00    +0.000 A 
ATOM     27  N   UNL     1      51.693   0.651  17.264  0.00  0.00    +0.000 N 
ATOM     28  C   UNL     1      50.975   1.800  17.010  0.00  0.00    +0.000 A 
ATOM     29  O   UNL     1      50.069   1.833  16.184  0.00  0.00    +0.000 OA
ATOM     30  C   UNL     1      51.431   2.956  17.757  0.00  0.00    +0.000 A 
ATOM     31  H   UNL     1      51.403  -0.179  16.771  0.00  0.00    +0.000 HD
ENDBRANCH  20  21
BRANCH  20  33
ATOM     32  C   UNL     1      47.353   3.008  17.802  0.00  0.00    +0.000 C 
ATOM     33  C   UNL     1      48.360   3.805  18.629  0.00  0.00    +0.000 C 
ENDBRANCH  20  33
ENDBRANCH  18  20
ENDBRANCH   1  18
TORSDOF 9
ENDMDL
MODEL 4
REMARK VINA RESULT:    -7.220      2.198      3.137
REMARK INTER + INTRA:         -12.087
REMARK INTER:                 -11.230
REMARK INTRA:                  -0.857
REMARK UNBOUND:                -1.068
REMARK  Name = 
REMARK  10 active torsions:
REMARK  status: ('A' for Active; 'I' for Inactive)
REMARK    1  A    between atoms: C_1  and  C_2
REMARK    2  A    between atoms: C_2  and  C_3
REMARK    3  A    between atoms: C_3  and  N_4
REMARK    4  A    between atoms: C_3  and  C_20
REMARK    5  A    between atoms: N_4  and  C_5
REMARK    6  A    between atoms: C_5  and  C_6
REMARK    7  A    between atoms: C_9  and  C_10
REMARK    8  A    between atoms: C_10  and  N_11
REMARK    9  A    between atoms: N_11  and  C_12
REMARK   10  A    between atoms: C_12  and  C_13
REMARK                            x       y       z     vdW  Elec       q    Type
REMARK                         _______ _______ _______ _____ _____    ______ ____
ROOT
ATOM      1  C   UNL     1      47.584   6.591  13.698  0.00  0.00    +0.000 C 
ENDROOT
BRANCH   1   2
ATOM      2  C   UNL     1      46.577   5.743  12.960  0.00  0.00    +0.000 A 
ATOM      3  C   UNL     1      45.934   6.167  11.791  0.00  0.00    +0.000 A 
ATOM      4  C   UNL     1      45.128   5.274  11.084  0.00  0.00    +0.000 A 
ATOM      5  C   UNL     1      44.965   3.980  11.570  0.00  0.00    +0.000 A 
ATOM      6  N   UNL     1      45.547   3.559  12.720  0.00  0.00    +0.000 NA
ATOM      7  C   UNL     1      46.327   4.444  13.380  0.00  0.00    +0.000 A 
BRANCH   5   8
ATOM      8  C   UNL     1      44.092   2.972  10.847  0.00  0.00    +0.000 C 
BRANCH   8   9
ATOM      9  N   UNL     1      44.831   2.131   9.889  0.00  0.00    +0.000 NA
ATOM     10  H   UNL     1      44.283   1.269   9.798  0.00  0.00    +0.000 HD
BRANCH   9  11
ATOM     11  C   UNL     1      44.875   2.749   8.567  0.00  0.00    +0.000 C 
BRANCH  11  12
ATOM     12  C   UNL     1      46.121   2.328   7.886  0.00  0.00    +0.000 A 
ATOM     13  C   UNL     1      46.727   1.099   7.737  0.00  0.00    +0.000 A 
ATOM     14  N   UNL     1      47.881   1.208   7.002  0.00  0.00    +0.000 NA
ATOM     15  C   UNL     1      47.994   2.486   6.724  0.00  0.00    +0.000 A 
ATOM     16  N   UNL     1      46.956   3.207   7.241  0.00  0.00    +0.000 N 
ATOM     17  H   UNL     1      46.829   4.208   7.192  0.00  0.00    +0.000 HD
ENDBRANCH  11  12
ENDBRANCH   9  11
ENDBRANCH   8   9
ENDBRANCH   5   8
ENDBRANCH   1   2
BRANCH   1  18
ATOM     18  N   UNL     1      48.017   6.029  14.973  0.00  0.00    +0.000 NA
ATOM     19  H   UNL     1      48.163   5.019  14.898  0.00  0.00    +0.000 HD
BRANCH  18  20
ATOM     20  C   UNL     1      49.228   6.674  15.497  0.00  0.00    +0.000 C 
BRANCH  20  21
ATOM     21  C   UNL     1      49.194   6.882  17.005  0.00  0.00    +0.000 A 
ATOM     22  C   UNL     1      48.952   8.126  17.571  0.00  0.00    +0.000 A 
ATOM     23  S   UNL     1      48.634   8.061  19.248  0.00  0.00    +0.000 S 
ATOM     24  C   UNL     1      48.839   6.373  19.275  0.00  0.00    +0.000 A 
ATOM     25  N   UNL     1      48.584   5.651  20.400  0.00  0.00    +0.000 NA
ATOM     26  C   UNL     1      48.772   4.379  20.266  0.00  0.00    +0.000 A 
ATOM     27  N   UNL     1      49.247   3.773  19.129  0.00  0.00    +0.000 N 
ATOM     28  C   UNL     1      49.614   4.480  18.003  0.00  0.00    +0.000 A 
ATOM     29  O   UNL     1      50.227   3.958  17.077  0.00  0.00    +0.000 OA
ATOM     30  C   UNL     1      49.267   5.887  18.053  0.00  0.00    +0.000 A 
ATOM     31  H   UNL     1      49.462   2.788  19.132  0.00  0.00    +0.000 HD
ENDBRANCH  20  21
BRANCH  20  33
ATOM     32  C   UNL     1      50.931   8.174  14.293  0.00  0.00    +0.000 C 
ATOM     33  C   UNL     1      49.479   7.990  14.731  0.00  0.00    +0.000 C 
ENDBRANCH  20  33
ENDBRANCH  18  20
ENDBRANCH   1  18
TORSDOF 9
ENDMDL
MODEL 5
REMARK VINA RESULT:    -6.951      2.064      2.640
REMARK INTER + INTRA:         -11.677
REMARK INTER:                 -10.666
REMARK INTRA:                  -1.011
REMARK UNBOUND:                -1.068
REMARK  Name = 
REMARK  10 active torsions:
REMARK  status: ('A' for Active; 'I' for Inactive)
REMARK    1  A    between atoms: C_1  and  C_2
REMARK    2  A    between atoms: C_2  and  C_3
REMARK    3  A    between atoms: C_3  and  N_4
REMARK    4  A    between atoms: C_3  and  C_20
REMARK    5  A    between atoms: N_4  and  C_5
REMARK    6  A    between atoms: C_5  and  C_6
REMARK    7  A    between atoms: C_9  and  C_10
REMARK    8  A    between atoms: C_10  and  N_11
REMARK    9  A    between atoms: N_11  and  C_12
REMARK   10  A    between atoms: C_12  and  C_13
REMARK                            x       y       z     vdW  Elec       q    Type
REMARK                         _______ _______ _______ _____ _____    ______ ____
ROOT
ATOM      1  C   UNL     1      48.598   6.635  14.441  0.00  0.00    +0.000 C 
ENDROOT
BRANCH   1   2
ATOM      2  C   UNL     1      47.492   6.121  13.553  0.00  0.00    +0.000 A 
ATOM      3  C   UNL     1      47.034   6.815  12.427  0.00  0.00    +0.000 A 
ATOM      4  C   UNL     1      46.112   6.211  11.572  0.00  0.00    +0.000 A 
ATOM      5  C   UNL     1      45.652   4.931  11.868  0.00  0.00    +0.000 A 
ATOM      6  N   UNL     1      46.053   4.255  12.973  0.00  0.00    +0.000 NA
ATOM      7  C   UNL     1      46.950   4.863  13.780  0.00  0.00    +0.000 A 
BRANCH   5   8
ATOM      8  C   UNL     1      44.642   4.232  10.977  0.00  0.00    +0.000 C 
BRANCH   8   9
ATOM      9  N   UNL     1      44.955   2.814  10.731  0.00  0.00    +0.000 NA
ATOM     10  H   UNL     1      44.422   2.287  11.431  0.00  0.00    +0.000 HD
BRANCH   9  11
ATOM     11  C   UNL     1      44.476   2.385   9.421  0.00  0.00    +0.000 C 
BRANCH  11  12
ATOM     12  C   UNL     1      45.611   2.402   8.469  0.00  0.00    +0.000 A 
ATOM     13  C   UNL     1      46.180   3.411   7.722  0.00  0.00    +0.000 A 
ATOM     14  N   UNL     1      47.237   2.938   6.985  0.00  0.00    +0.000 NA
ATOM     15  C   UNL     1      47.301   1.656   7.257  0.00  0.00    +0.000 A 
ATOM     16  N   UNL     1      46.335   1.281   8.146  0.00  0.00    +0.000 N 
ATOM     17  H   UNL     1      46.155   0.347   8.489  0.00  0.00    +0.000 HD
ENDBRANCH  11  12
ENDBRANCH   9  11
ENDBRANCH   8   9
ENDBRANCH   5   8
ENDBRANCH   1   2
BRANCH   1  18
ATOM     18  N   UNL     1      48.140   7.138  15.732  0.00  0.00    +0.000 NA
ATOM     19  H   UNL     1      47.166   6.873  15.905  0.00  0.00    +0.000 HD
BRANCH  18  20
ATOM     20  C   UNL     1      48.985   6.694  16.848  0.00  0.00    +0.000 C 
BRANCH  20  21
ATOM     21  C   UNL     1      48.784   5.228  17.209  0.00  0.00    +0.000 A 
ATOM     22  C   UNL     1      47.522   4.652  17.272  0.00  0.00    +0.000 A 
ATOM     23  S   UNL     1      47.556   2.948  17.367  0.00  0.00    +0.000 S 
ATOM     24  C   UNL     1      49.256   2.927  17.357  0.00  0.00    +0.000 A 
ATOM     25  N   UNL     1      49.947   1.756  17.295  0.00  0.00    +0.000 NA
ATOM     26  C   UNL     1      51.231   1.900  17.282  0.00  0.00    +0.000 A 
ATOM     27  N   UNL     1      51.887   3.102  17.384  0.00  0.00    +0.000 N 
ATOM     28  C   UNL     1      51.226   4.300  17.553  0.00  0.00    +0.000 A 
ATOM     29  O   UNL     1      51.817   5.334  17.850  0.00  0.00    +0.000 OA
ATOM     30  C   UNL     1      49.786   4.203  17.409  0.00  0.00    +0.000 A 
ATOM     31  H   UNL     1      52.891   3.126  17.468  0.00  0.00    +0.000 HD
ENDBRANCH  20  21
BRANCH  20  33
ATOM     32  C   UNL     1      48.125   8.964  17.687  0.00  0.00    +0.000 C 
ATOM     33  C   UNL     1      48.768   7.628  18.057  0.00  0.00    +0.000 C 
ENDBRANCH  20  33
ENDBRANCH  18  20
ENDBRANCH   1  18
TORSDOF 9
ENDMDL
MODEL 6
REMARK VINA RESULT:    -6.494      4.561      5.516
REMARK INTER + INTRA:         -10.978
REMARK INTER:                  -9.936
REMARK INTRA:                  -1.042
REMARK UNBOUND:                -1.068
REMARK  Name = 
REMARK  10 active torsions:
REMARK  status: ('A' for Active; 'I' for Inactive)
REMARK    1  A    between atoms: C_1  and  C_2
REMARK    2  A    between atoms: C_2  and  C_3
REMARK    3  A    between atoms: C_3  and  N_4
REMARK    4  A    between atoms: C_3  and  C_20
REMARK    5  A    between atoms: N_4  and  C_5
REMARK    6  A    between atoms: C_5  and  C_6
REMARK    7  A    between atoms: C_9  and  C_10
REMARK    8  A    between atoms: C_10  and  N_11
REMARK    9  A    between atoms: N_11  and  C_12
REMARK   10  A    between atoms: C_12  and  C_13
REMARK                            x       y       z     vdW  Elec       q    Type
REMARK                         _______ _______ _______ _____ _____    ______ ____
ROOT
ATOM      1  C   UNL     1      47.762   6.808  13.249  0.00  0.00    +0.000 C 
ENDROOT
BRANCH   1   2
ATOM      2  C   UNL     1      46.835   5.876  12.509  0.00  0.00    +0.000 A 
ATOM      3  C   UNL     1      46.304   4.714  13.084  0.00  0.00    +0.000 A 
ATOM      4  C   UNL     1      45.341   3.980  12.391  0.00  0.00    +0.000 A 
ATOM      5  C   UNL     1      44.940   4.411  11.130  0.00  0.00    +0.000 A 
ATOM      6  N   UNL     1      45.467   5.511  10.538  0.00  0.00    +0.000 NA
ATOM      7  C   UNL     1      46.394   6.205  11.235  0.00  0.00    +0.000 A 
BRANCH   5   8
ATOM      8  C   UNL     1      43.903   3.645  10.329  0.00  0.00    +0.000 C 
BRANCH   8   9
ATOM      9  N   UNL     1      44.376   3.228   8.998  0.00  0.00    +0.000 NA
ATOM     10  H   UNL     1      45.118   3.890   8.748  0.00  0.00    +0.000 HD
BRANCH   9  11
ATOM     11  C   UNL     1      44.985   1.902   9.044  0.00  0.00    +0.000 C 
BRANCH  11  12
ATOM     12  C   UNL     1      46.142   1.877   8.120  0.00  0.00    +0.000 A 
ATOM     13  C   UNL     1      46.898   0.844   7.609  0.00  0.00    +0.000 A 
ATOM     14  N   UNL     1      47.873   1.321   6.768  0.00  0.00    +0.000 NA
ATOM     15  C   UNL     1      47.732   2.626   6.781  0.00  0.00    +0.000 A 
ATOM     16  N   UNL     1      46.701   3.013   7.588  0.00  0.00    +0.000 N 
ATOM     17  H   UNL     1      46.411   3.959   7.790  0.00  0.00    +0.000 HD
ENDBRANCH  11  12
ENDBRANCH   9  11
ENDBRANCH   8   9
ENDBRANCH   5   8
ENDBRANCH   1   2
BRANCH   1  18
ATOM     18  N   UNL     1      49.173   6.622  12.930  0.00  0.00    +0.000 NA
ATOM     19  H   UNL     1      49.313   5.786  12.357  0.00  0.00    +0.000 HD
BRANCH  18  20
ATOM     20  C   UNL     1      49.765   7.791  12.265  0.00  0.00    +0.000 C 
BRANCH  20  21
ATOM     21  C   UNL     1      51.013   8.313  12.965  0.00  0.00    +0.000 A 
ATOM     22  C   UNL     1      51.036   8.581  14.327  0.00  0.00    +0.000 A 
ATOM     23  S   UNL     1      52.607   8.835  14.944  0.00  0.00    +0.000 S 
ATOM     24  C   UNL     1      53.303   8.625  13.407  0.00  0.00    +0.000 A 
ATOM     25  N   UNL     1      54.654   8.595  13.243  0.00  0.00    +0.000 NA
ATOM     26  C   UNL     1      55.034   8.415  12.021  0.00  0.00    +0.000 A 
ATOM     27  N   UNL     1      54.189   8.323  10.943  0.00  0.00    +0.000 N 
ATOM     28  C   UNL     1      52.821   8.452  11.053  0.00  0.00    +0.000 A 
ATOM     29  O   UNL     1      52.097   8.575  10.070  0.00  0.00    +0.000 OA
ATOM     30  C   UNL     1      52.343   8.490  12.421  0.00  0.00    +0.000 A 
ATOM     31  H   UNL     1      54.563   8.284  10.007  0.00  0.00    +0.000 HD
ENDBRANCH  20  21
BRANCH  20  33
ATOM     32  C   UNL     1      49.196  10.135  11.383  0.00  0.00    +0.000 C 
ATOM     33  C   UNL     1      48.688   8.884  12.098  0.00  0.00    +0.000 C 
ENDBRANCH  20  33
ENDBRANCH  18  20
ENDBRANCH   1  18
TORSDOF 9
ENDMDL
MODEL 7
REMARK VINA RESULT:    -6.404      4.530      5.618
REMARK INTER + INTRA:         -10.841
REMARK INTER:                  -9.482
REMARK INTRA:                  -1.360
REMARK UNBOUND:                -1.068
REMARK  Name = 
REMARK  10 active torsions:
REMARK  status: ('A' for Active; 'I' for Inactive)
REMARK    1  A    between atoms: C_1  and  C_2
REMARK    2  A    between atoms: C_2  and  C_3
REMARK    3  A    between atoms: C_3  and  N_4
REMARK    4  A    between atoms: C_3  and  C_20
REMARK    5  A    between atoms: N_4  and  C_5
REMARK    6  A    between atoms: C_5  and  C_6
REMARK    7  A    between atoms: C_9  and  C_10
REMARK    8  A    between atoms: C_10  and  N_11
REMARK    9  A    between atoms: N_11  and  C_12
REMARK   10  A    between atoms: C_12  and  C_13
REMARK                            x       y       z     vdW  Elec       q    Type
REMARK                         _______ _______ _______ _____ _____    ______ ____
ROOT
ATOM      1  C   UNL     1      48.020   6.754  13.221  0.00  0.00    +0.000 C 
ENDROOT
BRANCH   1   2
ATOM      2  C   UNL     1      46.951   5.871  12.626  0.00  0.00    +0.000 A 
ATOM      3  C   UNL     1      46.478   4.715  13.259  0.00  0.00    +0.000 A 
ATOM      4  C   UNL     1      45.388   4.031  12.720  0.00  0.00    +0.000 A 
ATOM      5  C   UNL     1      44.805   4.504  11.548  0.00  0.00    +0.000 A 
ATOM      6  N   UNL     1      45.270   5.599  10.898  0.00  0.00    +0.000 NA
ATOM      7  C   UNL     1      46.323   6.244  11.446  0.00  0.00    +0.000 A 
BRANCH   5   8
ATOM      8  C   UNL     1      43.624   3.792  10.914  0.00  0.00    +0.000 C 
BRANCH   8   9
ATOM      9  N   UNL     1      43.859   3.389   9.517  0.00  0.00    +0.000 NA
ATOM     10  H   UNL     1      44.422   4.140   9.104  0.00  0.00    +0.000 HD
BRANCH   9  11
ATOM     11  C   UNL     1      44.658   2.169   9.445  0.00  0.00    +0.000 C 
BRANCH  11  12
ATOM     12  C   UNL     1      45.701   2.343   8.408  0.00  0.00    +0.000 A 
ATOM     13  C   UNL     1      46.108   3.437   7.676  0.00  0.00    +0.000 A 
ATOM     14  N   UNL     1      47.138   3.105   6.831  0.00  0.00    +0.000 NA
ATOM     15  C   UNL     1      47.344   1.823   7.025  0.00  0.00    +0.000 A 
ATOM     16  N   UNL     1      46.497   1.314   7.967  0.00  0.00    +0.000 N 
ATOM     17  H   UNL     1      46.435   0.352   8.270  0.00  0.00    +0.000 HD
ENDBRANCH  11  12
ENDBRANCH   9  11
ENDBRANCH   8   9
ENDBRANCH   5   8
ENDBRANCH   1   2
BRANCH   1  18
ATOM     18  N   UNL     1      49.325   6.623  12.582  0.00  0.00    +0.000 NA
ATOM     19  H   UNL     1      49.374   5.770  12.019  0.00  0.00    +0.000 HD
BRANCH  18  20
ATOM     20  C   UNL     1      49.675   7.788  11.759  0.00  0.00    +0.000 C 
BRANCH  20  21
ATOM     21  C   UNL     1      51.172   8.071  11.722  0.00  0.00    +0.000 A 
ATOM     22  C   UNL     1      51.884   8.116  10.532  0.00  0.00    +0.000 A 
ATOM     23  S   UNL     1      53.453   8.767  10.701  0.00  0.00    +0.000 S 
ATOM     24  C   UNL     1      53.242   8.982  12.374  0.00  0.00    +0.000 A 
ATOM     25  N   UNL     1      54.179   9.620  13.127  0.00  0.00    +0.000 NA
ATOM     26  C   UNL     1      53.874   9.718  14.379  0.00  0.00    +0.000 A 
ATOM     27  N   UNL     1      52.747   9.186  14.956  0.00  0.00    +0.000 N 
ATOM     28  C   UNL     1      51.825   8.444  14.248  0.00  0.00    +0.000 A 
ATOM     29  O   UNL     1      50.939   7.803  14.804  0.00  0.00    +0.000 OA
ATOM     30  C   UNL     1      52.044   8.448  12.814  0.00  0.00    +0.000 A 
ATOM     31  H   UNL     1      52.626   9.217  15.956  0.00  0.00    +0.000 HD
ENDBRANCH  20  21
BRANCH  20  33
ATOM     32  C   UNL     1      48.933  10.199  11.273  0.00  0.00    +0.000 C 
ATOM     33  C   UNL     1      48.862   9.012  12.232  0.00  0.00    +0.000 C 
ENDBRANCH  20  33
ENDBRANCH  18  20
ENDBRANCH   1  18
TORSDOF 9
ENDMDL
MODEL 8
REMARK VINA RESULT:    -6.247      4.098      8.429
REMARK INTER + INTRA:         -10.602
REMARK INTER:                  -8.976
REMARK INTRA:                  -1.626
REMARK UNBOUND:                -1.068
REMARK  Name = 
REMARK  10 active torsions:
REMARK  status: ('A' for Active; 'I' for Inactive)
REMARK    1  A    between atoms: C_1  and  C_2
REMARK    2  A    between atoms: C_2  and  C_3
REMARK    3  A    between atoms: C_3  and  N_4
REMARK    4  A    between atoms: C_3  and  C_20
REMARK    5  A    between atoms: N_4  and  C_5
REMARK    6  A    between atoms: C_5  and  C_6
REMARK    7  A    between atoms: C_9  and  C_10
REMARK    8  A    between atoms: C_10  and  N_11
REMARK    9  A    between atoms: N_11  and  C_12
REMARK   10  A    between atoms: C_12  and  C_13
REMARK                            x       y       z     vdW  Elec       q    Type
REMARK                         _______ _______ _______ _____ _____    ______ ____
ROOT
ATOM      1  C   UNL     1      50.320   8.396  14.909  0.00  0.00    +0.000 C 
ENDROOT
BRANCH   1   2
ATOM      2  C   UNL     1      50.006   7.850  16.280  0.00  0.00    +0.000 A 
ATOM      3  C   UNL     1      48.749   7.976  16.882  0.00  0.00    +0.000 A 
ATOM      4  C   UNL     1      48.491   7.320  18.086  0.00  0.00    +0.000 A 
ATOM      5  C   UNL     1      49.501   6.565  18.675  0.00  0.00    +0.000 A 
ATOM      6  N   UNL     1      50.738   6.459  18.129  0.00  0.00    +0.000 NA
ATOM      7  C   UNL     1      50.957   7.101  16.960  0.00  0.00    +0.000 A 
BRANCH   5   8
ATOM      8  C   UNL     1      49.278   5.839  19.988  0.00  0.00    +0.000 C 
BRANCH   8   9
ATOM      9  N   UNL     1      49.403   4.375  19.882  0.00  0.00    +0.000 NA
ATOM     10  H   UNL     1      49.190   4.011  20.817  0.00  0.00    +0.000 HD
BRANCH   9  11
ATOM     11  C   UNL     1      48.403   3.823  18.973  0.00  0.00    +0.000 C 
BRANCH  11  12
ATOM     12  C   UNL     1      49.091   3.004  17.948  0.00  0.00    +0.000 A 
ATOM     13  C   UNL     1      48.680   2.504  16.731  0.00  0.00    +0.000 A 
ATOM     14  N   UNL     1      49.692   1.801  16.125  0.00  0.00    +0.000 NA
ATOM     15  C   UNL     1      50.699   1.849  16.965  0.00  0.00    +0.000 A 
ATOM     16  N   UNL     1      50.384   2.562  18.087  0.00  0.00    +0.000 N 
ATOM     17  H   UNL     1      50.975   2.718  18.892  0.00  0.00    +0.000 HD
ENDBRANCH  11  12
ENDBRANCH   9  11
ENDBRANCH   8   9
ENDBRANCH   5   8
ENDBRANCH   1   2
BRANCH   1  18
ATOM     18  N   UNL     1      50.024   7.475  13.818  0.00  0.00    +0.000 NA
ATOM     19  H   UNL     1      49.451   6.691  14.144  0.00  0.00    +0.000 HD
BRANCH  18  20
ATOM     20  C   UNL     1      49.369   8.133  12.679  0.00  0.00    +0.000 C 
BRANCH  20  21
ATOM     21  C   UNL     1      47.853   8.194  12.810  0.00  0.00    +0.000 A 
ATOM     22  C   UNL     1      47.134   9.344  12.512  0.00  0.00    +0.000 A 
ATOM     23  S   UNL     1      45.449   9.086  12.411  0.00  0.00    +0.000 S 
ATOM     24  C   UNL     1      45.624   7.438  12.793  0.00  0.00    +0.000 A 
ATOM     25  N   UNL     1      44.561   6.589  12.756  0.00  0.00    +0.000 NA
ATOM     26  C   UNL     1      44.850   5.366  13.057  0.00  0.00    +0.000 A 
ATOM     27  N   UNL     1      46.092   4.927  13.448  0.00  0.00    +0.000 N 
ATOM     28  C   UNL     1      47.170   5.774  13.598  0.00  0.00    +0.000 A 
ATOM     29  O   UNL     1      48.209   5.416  14.142  0.00  0.00    +0.000 OA
ATOM     30  C   UNL     1      46.931   7.120  13.115  0.00  0.00    +0.000 A 
ATOM     31  H   UNL     1      46.218   3.978  13.764  0.00  0.00    +0.000 HD
ENDBRANCH  20  21
BRANCH  20  33
ATOM     32  C   UNL     1      51.244   7.797  10.955  0.00  0.00    +0.000 C 
ATOM     33  C   UNL     1      49.815   7.449  11.369  0.00  0.00    +0.000 C 
ENDBRANCH  20  33
ENDBRANCH  18  20
ENDBRANCH   1  18
TORSDOF 9
ENDMDL
MODEL 9
REMARK VINA RESULT:    -6.111      4.682      5.723
REMARK INTER + INTRA:         -10.394
REMARK INTER:                  -9.004
REMARK INTRA:                  -1.390
REMARK UNBOUND:                -1.068
REMARK  Name = 
REMARK  10 active torsions:
REMARK  status: ('A' for Active; 'I' for Inactive)
REMARK    1  A    between atoms: C_1  and  C_2
REMARK    2  A    between atoms: C_2  and  C_3
REMARK    3  A    between atoms: C_3  and  N_4
REMARK    4  A    between atoms: C_3  and  C_20
REMARK    5  A    between atoms: N_4  and  C_5
REMARK    6  A    between atoms: C_5  and  C_6
REMARK    7  A    between atoms: C_9  and  C_10
REMARK    8  A    between atoms: C_10  and  N_11
REMARK    9  A    between atoms: N_11  and  C_12
REMARK   10  A    between atoms: C_12  and  C_13
REMARK                            x       y       z     vdW  Elec       q    Type
REMARK                         _______ _______ _______ _____ _____    ______ ____
ROOT
ATOM      1  C   UNL     1      48.538   6.999  12.607  0.00  0.00    +0.000 C 
ENDROOT
BRANCH   1   2
ATOM      2  C   UNL     1      47.207   6.288  12.643  0.00  0.00    +0.000 A 
ATOM      3  C   UNL     1      46.870   5.352  13.629  0.00  0.00    +0.000 A 
ATOM      4  C   UNL     1      45.570   4.846  13.683  0.00  0.00    +0.000 A 
ATOM      5  C   UNL     1      44.639   5.271  12.740  0.00  0.00    +0.000 A 
ATOM      6  N   UNL     1      44.954   6.147  11.754  0.00  0.00    +0.000 NA
ATOM      7  C   UNL     1      46.218   6.624  11.730  0.00  0.00    +0.000 A 
BRANCH   5   8
ATOM      8  C   UNL     1      43.216   4.745  12.747  0.00  0.00    +0.000 C 
BRANCH   8   9
ATOM      9  N   UNL     1      42.818   4.104  11.482  0.00  0.00    +0.000 NA
ATOM     10  H   UNL     1      43.076   4.767  10.743  0.00  0.00    +0.000 HD
BRANCH   9  11
ATOM     11  C   UNL     1      43.580   2.882  11.243  0.00  0.00    +0.000 C 
BRANCH  11  12
ATOM     12  C   UNL     1      44.314   3.020   9.965  0.00  0.00    +0.000 A 
ATOM     13  C   UNL     1      45.042   2.124   9.211  0.00  0.00    +0.000 A 
ATOM     14  N   UNL     1      45.533   2.723   8.078  0.00  0.00    +0.000 NA
ATOM     15  C   UNL     1      45.133   3.971   8.146  0.00  0.00    +0.000 A 
ATOM     16  N   UNL     1      44.396   4.203   9.271  0.00  0.00    +0.000 N 
ATOM     17  H   UNL     1      44.002   5.085   9.567  0.00  0.00    +0.000 HD
ENDBRANCH  11  12
ENDBRANCH   9  11
ENDBRANCH   8   9
ENDBRANCH   5   8
ENDBRANCH   1   2
BRANCH   1  18
ATOM     18  N   UNL     1      48.700   7.901  11.473  0.00  0.00    +0.000 NA
ATOM     19  H   UNL     1      47.912   7.822  10.824  0.00  0.00    +0.000 HD
BRANCH  18  20
ATOM     20  C   UNL     1      48.875   9.302  11.881  0.00  0.00    +0.000 C 
BRANCH  20  21
ATOM     21  C   UNL     1      49.938   9.488  12.955  0.00  0.00    +0.000 A 
ATOM     22  C   UNL     1      49.646  10.045  14.192  0.00  0.00    +0.000 A 
ATOM     23  S   UNL     1      50.897   9.852  15.339  0.00  0.00    +0.000 S 
ATOM     24  C   UNL     1      51.879   9.044  14.210  0.00  0.00    +0.000 A 
ATOM     25  N   UNL     1      53.065   8.488  14.579  0.00  0.00    +0.000 NA
ATOM     26  C   UNL     1      53.694   7.897  13.617  0.00  0.00    +0.000 A 
ATOM     27  N   UNL     1      53.273   7.862  12.310  0.00  0.00    +0.000 N 
ATOM     28  C   UNL     1      52.131   8.501  11.876  0.00  0.00    +0.000 A 
ATOM     29  O   UNL     1      51.874   8.640  10.685  0.00  0.00    +0.000 OA
ATOM     30  C   UNL     1      51.313   9.035  12.948  0.00  0.00    +0.000 A 
ATOM     31  H   UNL     1      53.867   7.468  11.597  0.00  0.00    +0.000 HD
ENDBRANCH  20  21
BRANCH  20  33
ATOM     32  C   UNL     1      47.028  11.024  11.408  0.00  0.00    +0.000 C 
ATOM     33  C   UNL     1      47.509   9.885  12.305  0.00  0.00    +0.000 C 
ENDBRANCH  20  33
ENDBRANCH  18  20
ENDBRANCH   1  18
TORSDOF 9
ENDMDL
