MODEL 1
REMARK VINA RESULT:    -7.950      0.000      0.000
REMARK INTER + INTRA:         -10.930
REMARK INTER:                 -10.506
REMARK INTRA:                  -0.424
REMARK UNBOUND:                -0.424
REMARK  Name = 
REMARK  6 active torsions:
REMARK  status: ('A' for Active; 'I' for Inactive)
REMARK    1  A    between atoms: C_2  and  C_4
REMARK    2  A    between atoms: N_9  and  C_10
REMARK    3  A    between atoms: C_10  and  C_11
REMARK    4  A    between atoms: C_15  and  C_16
REMARK    5  A    between atoms: CA_20  and  C_21
REMARK    6  A    between atoms: C_21  and  O_22
REMARK                            x       y       z     vdW  Elec       q    Type
REMARK                         _______ _______ _______ _____ _____    ______ ____
ROOT
ATOM      1  C   UNL     1      43.766   4.842  10.875  0.00  0.00    +0.000 A 
ATOM      2  C   UNL     1      43.014   3.959  11.635  0.00  0.00    +0.000 A 
ATOM      3  N   UNL     1      43.054   2.618  11.484  0.00  0.00    +0.000 NA
ATOM      4  C   UNL     1      43.879   2.135  10.521  0.00  0.00    +0.000 A 
ATOM      5  C   UNL     1      44.662   2.915   9.666  0.00  0.00    +0.000 A 
ATOM      6  C   UNL     1      44.573   4.301   9.866  0.00  0.00    +0.000 A 
ENDROOT
BRANCH   5   7
ATOM      7  C   UNL     1      45.525   2.332   8.616  0.00  0.00    +0.000 A 
ATOM      8  C   UNL     1      45.891   0.982   8.629  0.00  0.00    +0.000 A 
ATOM      9  C   UNL     1      46.665   0.475   7.596  0.00  0.00    +0.000 A 
ATOM     10  N   UNL     1      47.101   1.209   6.551  0.00  0.00    +0.000 NA
ATOM     11  CA  UNL     1      46.771   2.520   6.539  0.00  0.00    +0.000 A 
ATOM     12  C   UNL     1      45.999   3.106   7.544  0.00  0.00    +0.000 A 
BRANCH  11  13
ATOM     13  C   UNL     1      47.254   3.354   5.377  0.00  0.00    +0.000 C 
BRANCH  13  14
ATOM     14  O   UNL     1      48.331   2.710   4.699  0.00  0.00    +0.000 OA
ATOM     15  H   UNL     1      48.398   1.820   5.090  0.00  0.00    +0.000 HD
ENDBRANCH  13  14
ENDBRANCH  11  13
ENDBRANCH   5   7
BRANCH   1  16
ATOM     16  C   UNL     1      43.734   6.320  11.133  0.00  0.00    +0.000 C 
BRANCH  16  22
ATOM     17  C   UNL     1      47.171   5.484  13.639  0.00  0.00    +0.000 A 
ATOM     18  C   UNL     1      48.350   6.164  13.359  0.00  0.00    +0.000 A 
ATOM     19  C   UNL     1      48.330   7.047  12.300  0.00  0.00    +0.000 A 
ATOM     20  N   UNL     1      47.239   7.286  11.535  0.00  0.00    +0.000 NA
ATOM     21  C   UNL     1      46.103   6.614  11.807  0.00  0.00    +0.000 A 
ATOM     22  N   UNL     1      45.040   6.905  10.994  0.00  0.00    +0.000 N 
ATOM     23  C   UNL     1      46.042   5.702  12.847  0.00  0.00    +0.000 A 
ATOM     24  H   UNL     1      45.232   7.586  10.269  0.00  0.00    +0.000 HD
BRANCH  17  26
ATOM     25  N   UNL     1      47.051   5.001  16.020  0.00  0.00    +0.000 N 
ATOM     26  C   UNL     1      47.063   4.506  14.745  0.00  0.00    +0.000 C 
ATOM     27  O   UNL     1      46.942   3.308  14.532  0.00  0.00    +0.000 OA
ATOM     28  H   UNL     1      46.854   4.332  16.752  0.00  0.00    +0.000 HD
ATOM     29  H   UNL     1      46.877   5.975  16.222  0.00  0.00    +0.000 HD
ENDBRANCH  17  26
ENDBRANCH  16  22
ENDBRANCH   1  16
TORSDOF 6
ENDMDL
MODEL 2
REMARK VINA RESULT:    -7.710      2.648      7.536
REMARK INTER + INTRA:         -10.613
REMARK INTER:                  -9.902
REMARK INTRA:                  -0.711
REMARK UNBOUND:                -0.424
REMARK  Name = 
REMARK  6 active torsions:
REMARK  status: ('A' for Active; 'I' for Inactive)
REMARK    1  A    between atoms: C_2  and  C_4
REMARK    2  A    between atoms: N_9  and  C_10
REMARK    3  A    between atoms: C_10  and  C_11
REMARK    4  A    between atoms: C_15  and  C_16
REMARK    5  A    between atoms: CA_20  and  C_21
REMARK    6  A    between atoms: C_21  and  O_22
REMARK                            x       y       z     vdW  Elec       q    Type
REMARK                         _______ _______ _______ _____ _____    ______ ____
ROOT
ATOM      1  C   UNL     1      44.843   4.201  11.134  0.00  0.00    +0.000 A 
ATOM      2  C   UNL     1      45.108   3.513  12.309  0.00  0.00    +0.000 A 
ATOM      3  N   UNL     1      45.671   4.077  13.397  0.00  0.00    +0.000 NA
ATOM      4  C   UNL     1      45.996   5.392  13.306  0.00  0.00    +0.000 A 
ATOM      5  C   UNL     1      45.816   6.189  12.173  0.00  0.00    +0.000 A 
ATOM      6  C   UNL     1      45.231   5.546  11.071  0.00  0.00    +0.000 A 
ENDROOT
BRANCH   5   7
ATOM      7  C   UNL     1      46.212   7.613  12.125  0.00  0.00    +0.000 A 
ATOM      8  C   UNL     1      47.554   8.007  12.188  0.00  0.00    +0.000 A 
ATOM      9  C   UNL     1      47.874   9.353  12.093  0.00  0.00    +0.000 A 
ATOM     10  N   UNL     1      46.963  10.335  11.938  0.00  0.00    +0.000 NA
ATOM     11  CA  UNL     1      45.662   9.968  11.897  0.00  0.00    +0.000 A 
ATOM     12  C   UNL     1      45.259   8.635  11.990  0.00  0.00    +0.000 A 
BRANCH  11  13
ATOM     13  C   UNL     1      44.632  11.057  11.726  0.00  0.00    +0.000 C 
BRANCH  13  14
ATOM     14  O   UNL     1      43.347  10.620  12.166  0.00  0.00    +0.000 OA
ATOM     15  H   UNL     1      42.847  11.430  12.373  0.00  0.00    +0.000 HD
ENDBRANCH  13  14
ENDBRANCH  11  13
ENDBRANCH   5   7
BRANCH   1  16
ATOM     16  C   UNL     1      44.150   3.540   9.979  0.00  0.00    +0.000 C 
BRANCH  16  22
ATOM     17  C   UNL     1      46.753   2.244   6.763  0.00  0.00    +0.000 A 
ATOM     18  C   UNL     1      47.101   0.900   6.721  0.00  0.00    +0.000 A 
ATOM     19  C   UNL     1      46.592   0.087   7.713  0.00  0.00    +0.000 A 
ATOM     20  N   UNL     1      45.781   0.524   8.705  0.00  0.00    +0.000 NA
ATOM     21  C   UNL     1      45.458   1.831   8.745  0.00  0.00    +0.000 A 
ATOM     22  N   UNL     1      44.634   2.202   9.774  0.00  0.00    +0.000 N 
ATOM     23  C   UNL     1      45.935   2.715   7.792  0.00  0.00    +0.000 A 
ATOM     24  H   UNL     1      44.371   1.450  10.400  0.00  0.00    +0.000 HD
BRANCH  17  26
ATOM     25  N   UNL     1      48.241   2.814   4.925  0.00  0.00    +0.000 N 
ATOM     26  C   UNL     1      47.237   3.220   5.761  0.00  0.00    +0.000 C 
ATOM     27  O   UNL     1      46.732   4.328   5.649  0.00  0.00    +0.000 OA
ATOM     28  H   UNL     1      48.472   3.448   4.171  0.00  0.00    +0.000 HD
ATOM     29  H   UNL     1      48.489   1.843   4.807  0.00  0.00    +0.000 HD
ENDBRANCH  17  26
ENDBRANCH  16  22
ENDBRANCH   1  16
TORSDOF 6
ENDMDL
MODEL 3
REMARK VINA RESULT:    -7.605      2.708      5.285
REMARK INTER + INTRA:         -10.474
REMARK INTER:                  -9.760
REMARK INTRA:                  -0.714
REMARK UNBOUND:                -0.424
REMARK  Name = 
REMARK  6 active torsions:
REMARK  status: ('A' for Active; 'I' for Inactive)
REMARK    1  A    between atoms: C_2  and  C_4
REMARK    2  A    between atoms: N_9  and  C_10
REMARK    3  A    between atoms: C_10  and  C_11
REMARK    4  A    between atoms: C_15  and  C_16
REMARK    5  A    between atoms: CA_20  and  C_21
REMARK    6  A    between atoms: C_21  and  O_22
REMARK                            x       y       z     vdW  Elec       q    Type
REMARK                         _______ _______ _______ _____ _____    ______ ____
ROOT
ATOM      1  C   UNL     1      47.524   7.147  13.838  0.00  0.00    +0.000 A 
ATOM      2  C   UNL     1      46.978   8.409  13.652  0.00  0.00    +0.000 A 
ATOM      3  N   UNL     1      45.872   8.645  12.915  0.00  0.00    +0.000 NA
ATOM      4  C   UNL     1      45.289   7.571  12.326  0.00  0.00    +0.000 A 
ATOM      5  C   UNL     1      45.755   6.257  12.404  0.00  0.00    +0.000 A 
ATOM      6  C   UNL     1      46.911   6.073  13.179  0.00  0.00    +0.000 A 
ENDROOT
BRANCH   5   7
ATOM      7  C   UNL     1      45.089   5.128  11.719  0.00  0.00    +0.000 A 
ATOM      8  C   UNL     1      44.265   4.231  12.408  0.00  0.00    +0.000 A 
ATOM      9  C   UNL     1      43.628   3.216  11.710  0.00  0.00    +0.000 A 
ATOM     10  N   UNL     1      43.747   3.027  10.379  0.00  0.00    +0.000 NA
ATOM     11  CA  UNL     1      44.557   3.876   9.707  0.00  0.00    +0.000 A 
ATOM     12  C   UNL     1      45.236   4.919  10.338  0.00  0.00    +0.000 A 
BRANCH  11  13
ATOM     13  C   UNL     1      44.701   3.674   8.218  0.00  0.00    +0.000 C 
BRANCH  13  14
ATOM     14  O   UNL     1      45.850   4.356   7.718  0.00  0.00    +0.000 OA
ATOM     15  H   UNL     1      45.840   5.237   8.135  0.00  0.00    +0.000 HD
ENDBRANCH  13  14
ENDBRANCH  11  13
ENDBRANCH   5   7
BRANCH   1  16
ATOM     16  C   UNL     1      48.714   6.934  14.726  0.00  0.00    +0.000 C 
BRANCH  16  22
ATOM     17  C   UNL     1      49.168   3.602  17.464  0.00  0.00    +0.000 A 
ATOM     18  C   UNL     1      48.729   3.779  18.769  0.00  0.00    +0.000 A 
ATOM     19  C   UNL     1      48.187   5.007  19.089  0.00  0.00    +0.000 A 
ATOM     20  N   UNL     1      48.060   6.029  18.210  0.00  0.00    +0.000 NA
ATOM     21  C   UNL     1      48.499   5.852  16.949  0.00  0.00    +0.000 A 
ATOM     22  N   UNL     1      48.339   6.926  16.114  0.00  0.00    +0.000 N 
ATOM     23  C   UNL     1      49.065   4.653  16.549  0.00  0.00    +0.000 A 
ATOM     24  H   UNL     1      47.917   7.740  16.545  0.00  0.00    +0.000 HD
BRANCH  17  26
ATOM     25  N   UNL     1      50.786   1.808  17.749  0.00  0.00    +0.000 N 
ATOM     26  C   UNL     1      49.773   2.334  16.996  0.00  0.00    +0.000 C 
ATOM     27  O   UNL     1      49.356   1.753  16.003  0.00  0.00    +0.000 OA
ATOM     28  H   UNL     1      51.100   0.884  17.482  0.00  0.00    +0.000 HD
ATOM     29  H   UNL     1      50.967   2.105  18.696  0.00  0.00    +0.000 HD
ENDBRANCH  17  26
ENDBRANCH  16  22
ENDBRANCH   1  16
TORSDOF 6
ENDMDL
MODEL 4
REMARK VINA RESULT:    -7.317      3.190      5.904
REMARK INTER + INTRA:         -10.093
REMARK INTER:                  -9.340
REMARK INTRA:                  -0.753
REMARK UNBOUND:                -0.424
REMARK  Name = 
REMARK  6 active torsions:
REMARK  status: ('A' for Active; 'I' for Inactive)
REMARK    1  A    between atoms: C_2  and  C_4
REMARK    2  A    between atoms: N_9  and  C_10
REMARK    3  A    between atoms: C_10  and  C_11
REMARK    4  A    between atoms: C_15  and  C_16
REMARK    5  A    between atoms: CA_20  and  C_21
REMARK    6  A    between atoms: C_21  and  O_22
REMARK                            x       y       z     vdW  Elec       q    Type
REMARK                         _______ _______ _______ _____ _____    ______ ____
ROOT
ATOM      1  C   UNL     1      48.012   7.466  13.931  0.00  0.00    +0.000 A 
ATOM      2  C   UNL     1      47.617   8.773  13.685  0.00  0.00    +0.000 A 
ATOM      3  N   UNL     1      46.619   9.108  12.840  0.00  0.00    +0.000 NA
ATOM      4  C   UNL     1      45.990   8.088  12.202  0.00  0.00    +0.000 A 
ATOM      5  C   UNL     1      46.312   6.735  12.333  0.00  0.00    +0.000 A 
ATOM      6  C   UNL     1      47.361   6.449  13.220  0.00  0.00    +0.000 A 
ENDROOT
BRANCH   5   7
ATOM      7  C   UNL     1      45.605   5.668  11.592  0.00  0.00    +0.000 A 
ATOM      8  C   UNL     1      45.675   5.569  10.198  0.00  0.00    +0.000 A 
ATOM      9  C   UNL     1      45.030   4.523   9.556  0.00  0.00    +0.000 A 
ATOM     10  N   UNL     1      44.323   3.568  10.194  0.00  0.00    +0.000 NA
ATOM     11  CA  UNL     1      44.232   3.666  11.540  0.00  0.00    +0.000 A 
ATOM     12  C   UNL     1      44.848   4.691  12.258  0.00  0.00    +0.000 A 
BRANCH  11  13
ATOM     13  C   UNL     1      43.442   2.605  12.267  0.00  0.00    +0.000 C 
BRANCH  13  14
ATOM     14  O   UNL     1      43.064   1.552  11.382  0.00  0.00    +0.000 OA
ATOM     15  H   UNL     1      42.350   1.067  11.833  0.00  0.00    +0.000 HD
ENDBRANCH  13  14
ENDBRANCH  11  13
ENDBRANCH   5   7
BRANCH   1  16
ATOM     16  C   UNL     1      49.083   7.148  14.934  0.00  0.00    +0.000 C 
BRANCH  16  22
ATOM     17  C   UNL     1      49.179   3.651  17.495  0.00  0.00    +0.000 A 
ATOM     18  C   UNL     1      48.590   3.757  18.748  0.00  0.00    +0.000 A 
ATOM     19  C   UNL     1      48.026   4.972  19.077  0.00  0.00    +0.000 A 
ATOM     20  N   UNL     1      48.013   6.047  18.254  0.00  0.00    +0.000 NA
ATOM     21  C   UNL     1      48.596   5.939  17.044  0.00  0.00    +0.000 A 
ATOM     22  N   UNL     1      48.545   7.063  16.264  0.00  0.00    +0.000 N 
ATOM     23  C   UNL     1      49.194   4.757  16.641  0.00  0.00    +0.000 A 
ATOM     24  H   UNL     1      48.084   7.857  16.693  0.00  0.00    +0.000 HD
BRANCH  17  26
ATOM     25  N   UNL     1      50.901   1.949  17.733  0.00  0.00    +0.000 N 
ATOM     26  C   UNL     1      49.823   2.404  17.024  0.00  0.00    +0.000 C 
ATOM     27  O   UNL     1      49.385   1.778  16.069  0.00  0.00    +0.000 OA
ATOM     28  H   UNL     1      51.248   1.036  17.470  0.00  0.00    +0.000 HD
ATOM     29  H   UNL     1      51.117   2.279  18.662  0.00  0.00    +0.000 HD
ENDBRANCH  17  26
ENDBRANCH  16  22
ENDBRANCH   1  16
TORSDOF 6
ENDMDL
MODEL 5
REMARK VINA RESULT:    -7.099      1.796      2.338
REMARK INTER + INTRA:          -9.805
REMARK INTER:                  -9.030
REMARK INTRA:                  -0.775
REMARK UNBOUND:                -0.424
REMARK  Name = 
REMARK  6 active torsions:
REMARK  status: ('A' for Active; 'I' for Inactive)
REMARK    1  A    between atoms: C_2  and  C_4
REMARK    2  A    between atoms: N_9  and  C_10
REMARK    3  A    between atoms: C_10  and  C_11
REMARK    4  A    between atoms: C_15  and  C_16
REMARK    5  A    between atoms: CA_20  and  C_21
REMARK    6  A    between atoms: C_21  and  O_22
REMARK                            x       y       z     vdW  Elec       q    Type
REMARK                         _______ _______ _______ _____ _____    ______ ____
ROOT
ATOM      1  C   UNL     1      44.411   5.901  11.974  0.00  0.00    +0.000 A 
ATOM      2  C   UNL     1      43.423   5.139  12.581  0.00  0.00    +0.000 A 
ATOM      3  N   UNL     1      43.067   3.906  12.165  0.00  0.00    +0.000 NA
ATOM      4  C   UNL     1      43.722   3.412  11.084  0.00  0.00    +0.000 A 
ATOM      5  C   UNL     1      44.708   4.087  10.362  0.00  0.00    +0.000 A 
ATOM      6  C   UNL     1      45.032   5.367  10.838  0.00  0.00    +0.000 A 
ENDROOT
BRANCH   5   7
ATOM      7  C   UNL     1      45.371   3.506   9.174  0.00  0.00    +0.000 A 
ATOM      8  C   UNL     1      45.800   4.303   8.107  0.00  0.00    +0.000 A 
ATOM      9  C   UNL     1      46.456   3.713   7.037  0.00  0.00    +0.000 A 
ATOM     10  N   UNL     1      46.720   2.393   6.949  0.00  0.00    +0.000 NA
ATOM     11  CA  UNL     1      46.292   1.611   7.966  0.00  0.00    +0.000 A 
ATOM     12  C   UNL     1      45.620   2.128   9.075  0.00  0.00    +0.000 A 
BRANCH  11  13
ATOM     13  C   UNL     1      46.578   0.131   7.880  0.00  0.00    +0.000 C 
BRANCH  13  14
ATOM     14  O   UNL     1      46.780  -0.273   6.527  0.00  0.00    +0.000 OA
ATOM     15  H   UNL     1      47.703  -0.042   6.315  0.00  0.00    +0.000 HD
ENDBRANCH  13  14
ENDBRANCH  11  13
ENDBRANCH   5   7
BRANCH   1  16
ATOM     16  C   UNL     1      44.815   7.238  12.522  0.00  0.00    +0.000 C 
BRANCH  16  22
ATOM     17  C   UNL     1      48.822   7.045  14.165  0.00  0.00    +0.000 A 
ATOM     18  C   UNL     1      49.853   7.586  13.408  0.00  0.00    +0.000 A 
ATOM     19  C   UNL     1      49.515   8.138  12.190  0.00  0.00    +0.000 A 
ATOM     20  N   UNL     1      48.252   8.182  11.704  0.00  0.00    +0.000 NA
ATOM     21  C   UNL     1      47.260   7.645  12.440  0.00  0.00    +0.000 A 
ATOM     22  N   UNL     1      46.010   7.725  11.888  0.00  0.00    +0.000 N 
ATOM     23  C   UNL     1      47.516   7.062  13.670  0.00  0.00    +0.000 A 
ATOM     24  H   UNL     1      45.974   8.171  10.979  0.00  0.00    +0.000 HD
BRANCH  17  26
ATOM     25  N   UNL     1      47.960   5.931  16.148  0.00  0.00    +0.000 N 
ATOM     26  C   UNL     1      49.053   6.419  15.487  0.00  0.00    +0.000 C 
ATOM     27  O   UNL     1      50.178   6.299  15.951  0.00  0.00    +0.000 OA
ATOM     28  H   UNL     1      48.152   5.400  16.988  0.00  0.00    +0.000 HD
ATOM     29  H   UNL     1      47.076   5.769  15.689  0.00  0.00    +0.000 HD
ENDBRANCH  17  26
ENDBRANCH  16  22
ENDBRANCH   1  16
TORSDOF 6
ENDMDL
MODEL 6
REMARK VINA RESULT:    -6.957      2.733      8.097
REMARK INTER + INTRA:          -9.618
REMARK INTER:                  -8.798
REMARK INTRA:                  -0.820
REMARK UNBOUND:                -0.424
REMARK  Name = 
REMARK  6 active torsions:
REMARK  status: ('A' for Active; 'I' for Inactive)
REMARK    1  A    between atoms: C_2  and  C_4
REMARK    2  A    between atoms: N_9  and  C_10
REMARK    3  A    between atoms: C_10  and  C_11
REMARK    4  A    between atoms: C_15  and  C_16
REMARK    5  A    between atoms: CA_20  and  C_21
REMARK    6  A    between atoms: C_21  and  O_22
REMARK                            x       y       z     vdW  Elec       q    Type
REMARK                         _______ _______ _______ _____ _____    ______ ____
ROOT
ATOM      1  C   UNL     1      47.026   8.457  12.706  0.00  0.00    +0.000 A 
ATOM      2  C   UNL     1      47.930   9.404  12.247  0.00  0.00    +0.000 A 
ATOM      3  N   UNL     1      49.186   9.532  12.724  0.00  0.00    +0.000 NA
ATOM      4  C   UNL     1      49.555   8.681  13.714  0.00  0.00    +0.000 A 
ATOM      5  C   UNL     1      48.732   7.708  14.288  0.00  0.00    +0.000 A 
ATOM      6  C   UNL     1      47.436   7.626  13.756  0.00  0.00    +0.000 A 
ENDROOT
BRANCH   5   7
ATOM      7  C   UNL     1      49.183   6.823  15.384  0.00  0.00    +0.000 A 
ATOM      8  C   UNL     1      50.499   6.850  15.858  0.00  0.00    +0.000 A 
ATOM      9  C   UNL     1      50.859   6.031  16.918  0.00  0.00    +0.000 A 
ATOM     10  N   UNL     1      50.009   5.189  17.542  0.00  0.00    +0.000 NA
ATOM     11  CA  UNL     1      48.740   5.140  17.078  0.00  0.00    +0.000 A 
ATOM     12  C   UNL     1      48.302   5.929  16.013  0.00  0.00    +0.000 A 
BRANCH  11  13
ATOM     13  C   UNL     1      47.779   4.201  17.765  0.00  0.00    +0.000 C 
BRANCH  13  14
ATOM     14  O   UNL     1      46.619   4.898  18.219  0.00  0.00    +0.000 OA
ATOM     15  H   UNL     1      46.639   4.843  19.192  0.00  0.00    +0.000 HD
ENDBRANCH  13  14
ENDBRANCH  11  13
ENDBRANCH   5   7
BRANCH   1  16
ATOM     16  C   UNL     1      45.664   8.314  12.091  0.00  0.00    +0.000 C 
BRANCH  16  22
ATOM     17  C   UNL     1      44.501   4.513  10.360  0.00  0.00    +0.000 A 
ATOM     18  C   UNL     1      43.743   3.655  11.146  0.00  0.00    +0.000 A 
ATOM     19  C   UNL     1      43.427   4.082  12.419  0.00  0.00    +0.000 A 
ATOM     20  N   UNL     1      43.807   5.277  12.931  0.00  0.00    +0.000 NA
ATOM     21  C   UNL     1      44.551   6.098  12.166  0.00  0.00    +0.000 A 
ATOM     22  N   UNL     1      44.899   7.289  12.747  0.00  0.00    +0.000 N 
ATOM     23  C   UNL     1      44.920   5.740  10.880  0.00  0.00    +0.000 A 
ATOM     24  H   UNL     1      44.566   7.412  13.696  0.00  0.00    +0.000 HD
BRANCH  17  26
ATOM     25  N   UNL     1      44.327   3.073   8.407  0.00  0.00    +0.000 N 
ATOM     26  C   UNL     1      44.910   4.170   8.979  0.00  0.00    +0.000 C 
ATOM     27  O   UNL     1      45.701   4.863   8.354  0.00  0.00    +0.000 OA
ATOM     28  H   UNL     1      44.526   2.928   7.426  0.00  0.00    +0.000 HD
ATOM     29  H   UNL     1      43.490   2.649   8.779  0.00  0.00    +0.000 HD
ENDBRANCH  17  26
ENDBRANCH  16  22
ENDBRANCH   1  16
TORSDOF 6
ENDMDL
MODEL 7
REMARK VINA RESULT:    -6.706      3.019      8.098
REMARK INTER + INTRA:          -9.286
REMARK INTER:                  -8.548
REMARK INTRA:                  -0.738
REMARK UNBOUND:                -0.424
REMARK  Name = 
REMARK  6 active torsions:
REMARK  status: ('A' for Active; 'I' for Inactive)
REMARK    1  A    between atoms: C_2  and  C_4
REMARK    2  A    between atoms: N_9  and  C_10
REMARK    3  A    between atoms: C_10  and  C_11
REMARK    4  A    between atoms: C_15  and  C_16
REMARK    5  A    between atoms: CA_20  and  C_21
REMARK    6  A    between atoms: C_21  and  O_22
REMARK                            x       y       z     vdW  Elec       q    Type
REMARK                         _______ _______ _______ _____ _____    ______ ____
ROOT
ATOM      1  C   UNL     1      47.550   7.579  12.714  0.00  0.00    +0.000 A 
ATOM      2  C   UNL     1      48.546   8.236  12.005  0.00  0.00    +0.000 A 
ATOM      3  N   UNL     1      49.821   8.347  12.433  0.00  0.00    +0.000 NA
ATOM      4  C   UNL     1      50.115   7.784  13.632  0.00  0.00    +0.000 A 
ATOM      5  C   UNL     1      49.201   7.127  14.459  0.00  0.00    +0.000 A 
ATOM      6  C   UNL     1      47.890   7.048  13.965  0.00  0.00    +0.000 A 
ENDROOT
BRANCH   5   7
ATOM      7  C   UNL     1      49.576   6.553  15.770  0.00  0.00    +0.000 A 
ATOM      8  C   UNL     1      50.852   6.733  16.315  0.00  0.00    +0.000 A 
ATOM      9  C   UNL     1      51.137   6.211  17.568  0.00  0.00    +0.000 A 
ATOM     10  N   UNL     1      50.250   5.527  18.320  0.00  0.00    +0.000 NA
ATOM     11  CA  UNL     1      49.020   5.330  17.793  0.00  0.00    +0.000 A 
ATOM     12  C   UNL     1      48.658   5.818  16.538  0.00  0.00    +0.000 A 
BRANCH  11  13
ATOM     13  C   UNL     1      48.019   4.563  18.623  0.00  0.00    +0.000 C 
BRANCH  13  14
ATOM     14  O   UNL     1      46.691   4.777  18.148  0.00  0.00    +0.000 OA
ATOM     15  H   UNL     1      46.525   5.733  18.239  0.00  0.00    +0.000 HD
ENDBRANCH  13  14
ENDBRANCH  11  13
ENDBRANCH   5   7
BRANCH   1  16
ATOM     16  C   UNL     1      46.165   7.426  12.157  0.00  0.00    +0.000 C 
BRANCH  16  22
ATOM     17  C   UNL     1      44.310   3.696  10.957  0.00  0.00    +0.000 A 
ATOM     18  C   UNL     1      44.459   3.301   9.633  0.00  0.00    +0.000 A 
ATOM     19  C   UNL     1      45.184   4.135   8.807  0.00  0.00    +0.000 A 
ATOM     20  N   UNL     1      45.750   5.295   9.212  0.00  0.00    +0.000 NA
ATOM     21  C   UNL     1      45.592   5.676  10.495  0.00  0.00    +0.000 A 
ATOM     22  N   UNL     1      46.192   6.858  10.836  0.00  0.00    +0.000 N 
ATOM     23  C   UNL     1      44.870   4.901  11.387  0.00  0.00    +0.000 A 
ATOM     24  H   UNL     1      46.679   7.322  10.078  0.00  0.00    +0.000 HD
BRANCH  17  26
ATOM     25  N   UNL     1      43.596   3.299  13.248  0.00  0.00    +0.000 N 
ATOM     26  C   UNL     1      43.552   2.893  11.943  0.00  0.00    +0.000 C 
ATOM     27  O   UNL     1      42.876   1.932  11.603  0.00  0.00    +0.000 OA
ATOM     28  H   UNL     1      42.976   2.813  13.883  0.00  0.00    +0.000 HD
ATOM     29  H   UNL     1      43.910   4.220  13.518  0.00  0.00    +0.000 HD
ENDBRANCH  17  26
ENDBRANCH  16  22
ENDBRANCH   1  16
TORSDOF 6
ENDMDL
MODEL 8
REMARK VINA RESULT:    -6.623      2.430      2.855
REMARK INTER + INTRA:          -9.176
REMARK INTER:                  -8.566
REMARK INTRA:                  -0.610
REMARK UNBOUND:                -0.424
REMARK  Name = 
REMARK  6 active torsions:
REMARK  status: ('A' for Active; 'I' for Inactive)
REMARK    1  A    between atoms: C_2  and  C_4
REMARK    2  A    between atoms: N_9  and  C_10
REMARK    3  A    between atoms: C_10  and  C_11
REMARK    4  A    between atoms: C_15  and  C_16
REMARK    5  A    between atoms: CA_20  and  C_21
REMARK    6  A    between atoms: C_21  and  O_22
REMARK                            x       y       z     vdW  Elec       q    Type
REMARK                         _______ _______ _______ _____ _____    ______ ____
ROOT
ATOM      1  C   UNL     1      44.803   6.432  11.530  0.00  0.00    +0.000 A 
ATOM      2  C   UNL     1      43.492   6.182  11.907  0.00  0.00    +0.000 A 
ATOM      3  N   UNL     1      42.771   5.132  11.461  0.00  0.00    +0.000 NA
ATOM      4  C   UNL     1      43.386   4.295  10.588  0.00  0.00    +0.000 A 
ATOM      5  C   UNL     1      44.686   4.451  10.101  0.00  0.00    +0.000 A 
ATOM      6  C   UNL     1      45.384   5.564  10.596  0.00  0.00    +0.000 A 
ENDROOT
BRANCH   5   7
ATOM      7  C   UNL     1      45.296   3.518   9.130  0.00  0.00    +0.000 A 
ATOM      8  C   UNL     1      45.281   2.133   9.330  0.00  0.00    +0.000 A 
ATOM      9  C   UNL     1      45.827   1.299   8.366  0.00  0.00    +0.000 A 
ATOM     10  N   UNL     1      46.385   1.737   7.219  0.00  0.00    +0.000 NA
ATOM     11  CA  UNL     1      46.423   3.075   7.025  0.00  0.00    +0.000 A 
ATOM     12  C   UNL     1      45.899   3.979   7.949  0.00  0.00    +0.000 A 
BRANCH  11  13
ATOM     13  C   UNL     1      47.047   3.579   5.746  0.00  0.00    +0.000 C 
BRANCH  13  14
ATOM     14  O   UNL     1      48.194   2.806   5.397  0.00  0.00    +0.000 OA
ATOM     15  H   UNL     1      48.866   3.005   6.072  0.00  0.00    +0.000 HD
ENDBRANCH  13  14
ENDBRANCH  11  13
ENDBRANCH   5   7
BRANCH   1  16
ATOM     16  C   UNL     1      45.579   7.577  12.111  0.00  0.00    +0.000 C 
BRANCH  16  22
ATOM     17  C   UNL     1      48.797   8.881  14.708  0.00  0.00    +0.000 A 
ATOM     18  C   UNL     1      50.098   8.685  14.266  0.00  0.00    +0.000 A 
ATOM     19  C   UNL     1      50.260   8.085  13.034  0.00  0.00    +0.000 A 
ATOM     20  N   UNL     1      49.233   7.688  12.246  0.00  0.00    +0.000 NA
ATOM     21  C   UNL     1      47.974   7.872  12.688  0.00  0.00    +0.000 A 
ATOM     22  N   UNL     1      46.985   7.448  11.841  0.00  0.00    +0.000 N 
ATOM     23  C   UNL     1      47.725   8.458  13.918  0.00  0.00    +0.000 A 
ATOM     24  H   UNL     1      47.315   7.030  10.978  0.00  0.00    +0.000 HD
BRANCH  17  26
ATOM     25  N   UNL     1      47.752   8.777  16.903  0.00  0.00    +0.000 N 
ATOM     26  C   UNL     1      48.489   9.509  16.013  0.00  0.00    +0.000 C 
ATOM     27  O   UNL     1      48.913  10.618  16.306  0.00  0.00    +0.000 OA
ATOM     28  H   UNL     1      47.658   9.172  17.829  0.00  0.00    +0.000 HD
ATOM     29  H   UNL     1      47.621   7.780  16.807  0.00  0.00    +0.000 HD
ENDBRANCH  17  26
ENDBRANCH  16  22
ENDBRANCH   1  16
TORSDOF 6
ENDMDL
MODEL 9
REMARK VINA RESULT:    -6.543      3.688      6.323
REMARK INTER + INTRA:          -9.071
REMARK INTER:                  -8.396
REMARK INTRA:                  -0.675
REMARK UNBOUND:                -0.424
REMARK  Name = 
REMARK  6 active torsions:
REMARK  status: ('A' for Active; 'I' for Inactive)
REMARK    1  A    between atoms: C_2  and  C_4
REMARK    2  A    between atoms: N_9  and  C_10
REMARK    3  A    between atoms: C_10  and  C_11
REMARK    4  A    between atoms: C_15  and  C_16
REMARK    5  A    between atoms: CA_20  and  C_21
REMARK    6  A    between atoms: C_21  and  O_22
REMARK                            x       y       z     vdW  Elec       q    Type
REMARK                         _______ _______ _______ _____ _____    ______ ____
ROOT
ATOM      1  C   UNL     1      48.191   7.900  12.508  0.00  0.00    +0.000 A 
ATOM      2  C   UNL     1      47.342   8.872  13.017  0.00  0.00    +0.000 A 
ATOM      3  N   UNL     1      45.999   8.838  12.885  0.00  0.00    +0.000 NA
ATOM      4  C   UNL     1      45.478   7.786  12.204  0.00  0.00    +0.000 A 
ATOM      5  C   UNL     1      46.221   6.762  11.613  0.00  0.00    +0.000 A 
ATOM      6  C   UNL     1      47.611   6.854  11.777  0.00  0.00    +0.000 A 
ENDROOT
BRANCH   5   7
ATOM      7  C   UNL     1      45.597   5.652  10.860  0.00  0.00    +0.000 A 
ATOM      8  C   UNL     1      45.815   5.477   9.489  0.00  0.00    +0.000 A 
ATOM      9  C   UNL     1      45.243   4.394   8.840  0.00  0.00    +0.000 A 
ATOM     10  N   UNL     1      44.471   3.471   9.451  0.00  0.00    +0.000 NA
ATOM     11  CA  UNL     1      44.237   3.641  10.772  0.00  0.00    +0.000 A 
ATOM     12  C   UNL     1      44.773   4.708  11.495  0.00  0.00    +0.000 A 
BRANCH  11  13
ATOM     13  C   UNL     1      43.374   2.617  11.468  0.00  0.00    +0.000 C 
BRANCH  13  14
ATOM     14  O   UNL     1      43.784   2.438  12.823  0.00  0.00    +0.000 OA
ATOM     15  H   UNL     1      43.322   3.126  13.334  0.00  0.00    +0.000 HD
ENDBRANCH  13  14
ENDBRANCH  11  13
ENDBRANCH   5   7
BRANCH   1  16
ATOM     16  C   UNL     1      49.672   7.953  12.744  0.00  0.00    +0.000 C 
BRANCH  16  22
ATOM     17  C   UNL     1      52.766   7.430   9.752  0.00  0.00    +0.000 A 
ATOM     18  C   UNL     1      53.252   8.570   9.125  0.00  0.00    +0.000 A 
ATOM     19  C   UNL     1      52.703   9.778   9.504  0.00  0.00    +0.000 A 
ATOM     20  N   UNL     1      51.736   9.908  10.442  0.00  0.00    +0.000 NA
ATOM     21  C   UNL     1      51.263   8.796  11.037  0.00  0.00    +0.000 A 
ATOM     22  N   UNL     1      50.287   9.002  11.976  0.00  0.00    +0.000 N 
ATOM     23  C   UNL     1      51.753   7.544  10.707  0.00  0.00    +0.000 A 
ATOM     24  H   UNL     1      50.022   9.970  12.108  0.00  0.00    +0.000 HD
BRANCH  17  26
ATOM     25  N   UNL     1      53.613   5.270  10.483  0.00  0.00    +0.000 N 
ATOM     26  C   UNL     1      53.267   6.075   9.432  0.00  0.00    +0.000 C 
ATOM     27  O   UNL     1      53.327   5.669   8.280  0.00  0.00    +0.000 OA
ATOM     28  H   UNL     1      53.835   4.311  10.251  0.00  0.00    +0.000 HD
ATOM     29  H   UNL     1      53.326   5.464  11.431  0.00  0.00    +0.000 HD
ENDBRANCH  17  26
ENDBRANCH  16  22
ENDBRANCH   1  16
TORSDOF 6
ENDMDL
