MODEL 1
REMARK VINA RESULT:    -8.351      0.000      0.000
REMARK INTER + INTRA:         -13.396
REMARK INTER:                 -12.501
REMARK INTRA:                  -0.895
REMARK UNBOUND:                -0.895
REMARK  Name = 
REMARK  9 active torsions:
REMARK  status: ('A' for Active; 'I' for Inactive)
REMARK    1  A    between atoms: N_1  and  C_2
REMARK    2  A    between atoms: C_2  and  C_3
REMARK    3  A    between atoms: C_3  and  N_4
REMARK    4  A    between atoms: C_3  and  C_26
REMARK    5  A    between atoms: N_4  and  C_5
REMARK    6  A    between atoms: C_5  and  C_6
REMARK    7  A    between atoms: C_9  and  C_10
REMARK    8  A    between atoms: C_10  and  N_11
REMARK    9  A    between atoms: C_12  and  C_14
REMARK                            x       y       z     vdW  Elec       q    Type
REMARK                         _______ _______ _______ _____ _____    ______ ____
ROOT
ATOM      1  C   UNL     1      44.460   6.469  11.728  0.00  0.00    +0.000 A 
ATOM      2  C   UNL     1      44.550   7.852  11.553  0.00  0.00    +0.000 A 
ATOM      3  C   UNL     1      45.550   8.572  12.202  0.00  0.00    +0.000 A 
ATOM      4  C   UNL     1      46.430   7.893  13.039  0.00  0.00    +0.000 A 
ATOM      5  N   UNL     1      46.376   6.550  13.216  0.00  0.00    +0.000 NA
ATOM      6  C   UNL     1      45.403   5.876  12.562  0.00  0.00    +0.000 A 
ENDROOT
BRANCH   1   7
ATOM      7  C   UNL     1      43.414   5.658  11.008  0.00  0.00    +0.000 C 
BRANCH   7   8
ATOM      8  N   UNL     1      43.927   5.097   9.761  0.00  0.00    +0.000 NA
ATOM      9  H   UNL     1      43.289   5.342   9.002  0.00  0.00    +0.000 HD
BRANCH   8  10
ATOM     10  C   UNL     1      43.992   3.612   9.763  0.00  0.00    +0.000 C 
BRANCH  10  11
ATOM     11  C   UNL     1      45.079   3.146   8.786  0.00  0.00    +0.000 A 
ATOM     12  C   UNL     1      45.508   1.817   8.769  0.00  0.00    +0.000 A 
ATOM     13  C   UNL     1      46.519   1.432   7.896  0.00  0.00    +0.000 A 
ATOM     14  C   UNL     1      47.104   2.386   7.080  0.00  0.00    +0.000 A 
ATOM     15  C   UNL     1      46.652   3.691   7.174  0.00  0.00    +0.000 A 
ATOM     16  N   UNL     1      45.659   4.094   8.002  0.00  0.00    +0.000 NA
ENDBRANCH  10  11
BRANCH  10  17
ATOM     17  C   UNL     1      44.154   2.957  11.175  0.00  0.00    +0.000 C 
BRANCH  17  18
ATOM     18  N   UNL     1      43.039   2.117  11.628  0.00  0.00    +0.000 NA
ATOM     19  H   UNL     1      42.721   1.516  10.872  0.00  0.00    +0.000 HD
ATOM     20  H   UNL     1      42.261   2.716  11.907  0.00  0.00    +0.000 HD
ENDBRANCH  17  18
ENDBRANCH  10  17
ENDBRANCH   8  10
ENDBRANCH   7   8
ENDBRANCH   1   7
BRANCH   4  21
ATOM     21  C   UNL     1      47.511   8.647  13.772  0.00  0.00    +0.000 C 
BRANCH  21  22
ATOM     22  N   UNL     1      47.852   8.025  15.028  0.00  0.00    +0.000 N 
ATOM     23  C   UNL     1      48.945   7.219  15.185  0.00  0.00    +0.000 C 
ATOM     24  O   UNL     1      49.714   6.966  14.261  0.00  0.00    +0.000 OA
ATOM     25  H   UNL     1      47.101   7.990  15.710  0.00  0.00    +0.000 HD
BRANCH  23  26
ATOM     26  C   UNL     1      49.192   6.735  16.546  0.00  0.00    +0.000 A 
ATOM     27  C   UNL     1      49.869   7.541  17.452  0.00  0.00    +0.000 A 
ATOM     28  S   UNL     1      50.046   6.835  18.994  0.00  0.00    +0.000 S 
ATOM     29  C   UNL     1      49.263   5.412  18.493  0.00  0.00    +0.000 A 
ATOM     30  N   UNL     1      49.098   4.365  19.346  0.00  0.00    +0.000 NA
ATOM     31  C   UNL     1      48.499   3.345  18.830  0.00  0.00    +0.000 A 
ATOM     32  N   UNL     1      48.034   3.281  17.543  0.00  0.00    +0.000 N 
ATOM     33  C   UNL     1      48.131   4.331  16.666  0.00  0.00    +0.000 A 
ATOM     34  O   UNL     1      47.622   4.270  15.548  0.00  0.00    +0.000 OA
ATOM     35  C   UNL     1      48.831   5.493  17.183  0.00  0.00    +0.000 A 
ATOM     36  H   UNL     1      47.551   2.462  17.204  0.00  0.00    +0.000 HD
ENDBRANCH  23  26
ENDBRANCH  21  22
ENDBRANCH   4  21
TORSDOF 9
ENDMDL
MODEL 2
REMARK VINA RESULT:    -7.695      3.036      3.929
REMARK INTER + INTRA:         -12.414
REMARK INTER:                 -11.216
REMARK INTRA:                  -1.197
REMARK UNBOUND:                -0.895
REMARK  Name = 
REMARK  9 active torsions:
REMARK  status: ('A' for Active; 'I' for Inactive)
REMARK    1  A    between atoms: N_1  and  C_2
REMARK    2  A    between atoms: C_2  and  C_3
REMARK    3  A    between atoms: C_3  and  N_4
REMARK    4  A    between atoms: C_3  and  C_26
REMARK    5  A    between atoms: N_4  and  C_5
REMARK    6  A    between atoms: C_5  and  C_6
REMARK    7  A    between atoms: C_9  and  C_10
REMARK    8  A    between atoms: C_10  and  N_11
REMARK    9  A    between atoms: C_12  and  C_14
REMARK                            x       y       z     vdW  Elec       q    Type
REMARK                         _______ _______ _______ _____ _____    ______ ____
ROOT
ATOM      1  C   UNL     1      47.067   5.119  13.964  0.00  0.00    +0.000 A 
ATOM      2  C   UNL     1      47.817   6.296  13.898  0.00  0.00    +0.000 A 
ATOM      3  C   UNL     1      48.569   6.706  14.996  0.00  0.00    +0.000 A 
ATOM      4  C   UNL     1      48.536   5.938  16.155  0.00  0.00    +0.000 A 
ATOM      5  N   UNL     1      47.830   4.783  16.244  0.00  0.00    +0.000 NA
ATOM      6  C   UNL     1      47.121   4.404  15.156  0.00  0.00    +0.000 A 
ENDROOT
BRANCH   1   7
ATOM      7  C   UNL     1      46.276   4.630  12.779  0.00  0.00    +0.000 C 
BRANCH   7   8
ATOM      8  N   UNL     1      45.612   5.726  12.081  0.00  0.00    +0.000 NA
ATOM      9  H   UNL     1      45.285   6.407  12.770  0.00  0.00    +0.000 HD
BRANCH   8  10
ATOM     10  C   UNL     1      44.398   5.304  11.334  0.00  0.00    +0.000 C 
BRANCH  10  11
ATOM     11  C   UNL     1      44.806   4.399  10.164  0.00  0.00    +0.000 A 
ATOM     12  C   UNL     1      45.575   4.894   9.108  0.00  0.00    +0.000 A 
ATOM     13  C   UNL     1      45.902   4.058   8.045  0.00  0.00    +0.000 A 
ATOM     14  C   UNL     1      45.429   2.756   8.041  0.00  0.00    +0.000 A 
ATOM     15  C   UNL     1      44.644   2.344   9.105  0.00  0.00    +0.000 A 
ATOM     16  N   UNL     1      44.322   3.128  10.161  0.00  0.00    +0.000 NA
ENDBRANCH  10  11
BRANCH  10  17
ATOM     17  C   UNL     1      43.274   4.656  12.209  0.00  0.00    +0.000 C 
BRANCH  17  18
ATOM     18  N   UNL     1      42.738   5.492  13.291  0.00  0.00    +0.000 NA
ATOM     19  H   UNL     1      43.465   6.098  13.661  0.00  0.00    +0.000 HD
ATOM     20  H   UNL     1      42.409   4.890  14.046  0.00  0.00    +0.000 HD
ENDBRANCH  17  18
ENDBRANCH  10  17
ENDBRANCH   8  10
ENDBRANCH   7   8
ENDBRANCH   1   7
BRANCH   4  21
ATOM     21  C   UNL     1      49.324   6.365  17.368  0.00  0.00    +0.000 C 
BRANCH  21  22
ATOM     22  N   UNL     1      50.309   5.383  17.751  0.00  0.00    +0.000 N 
ATOM     23  C   UNL     1      51.599   5.409  17.295  0.00  0.00    +0.000 C 
ATOM     24  O   UNL     1      52.006   6.273  16.523  0.00  0.00    +0.000 OA
ATOM     25  H   UNL     1      49.935   4.527  18.147  0.00  0.00    +0.000 HD
BRANCH  23  26
ATOM     26  C   UNL     1      52.492   4.386  17.846  0.00  0.00    +0.000 A 
ATOM     27  C   UNL     1      53.663   4.766  18.488  0.00  0.00    +0.000 A 
ATOM     28  S   UNL     1      54.568   3.453  19.091  0.00  0.00    +0.000 S 
ATOM     29  C   UNL     1      53.449   2.329  18.479  0.00  0.00    +0.000 A 
ATOM     30  N   UNL     1      53.643   0.992  18.634  0.00  0.00    +0.000 NA
ATOM     31  C   UNL     1      52.723   0.254  18.110  0.00  0.00    +0.000 A 
ATOM     32  N   UNL     1      51.616   0.732  17.459  0.00  0.00    +0.000 N 
ATOM     33  C   UNL     1      51.354   2.072  17.326  0.00  0.00    +0.000 A 
ATOM     34  O   UNL     1      50.305   2.463  16.816  0.00  0.00    +0.000 OA
ATOM     35  C   UNL     1      52.377   2.948  17.866  0.00  0.00    +0.000 A 
ATOM     36  H   UNL     1      50.918   0.104  17.089  0.00  0.00    +0.000 HD
ENDBRANCH  23  26
ENDBRANCH  21  22
ENDBRANCH   4  21
TORSDOF 9
ENDMDL
MODEL 3
REMARK VINA RESULT:    -7.485      2.085      2.998
REMARK INTER + INTRA:         -12.100
REMARK INTER:                 -11.147
REMARK INTRA:                  -0.953
REMARK UNBOUND:                -0.895
REMARK  Name = 
REMARK  9 active torsions:
REMARK  status: ('A' for Active; 'I' for Inactive)
REMARK    1  A    between atoms: N_1  and  C_2
REMARK    2  A    between atoms: C_2  and  C_3
REMARK    3  A    between atoms: C_3  and  N_4
REMARK    4  A    between atoms: C_3  and  C_26
REMARK    5  A    between atoms: N_4  and  C_5
REMARK    6  A    between atoms: C_5  and  C_6
REMARK    7  A    between atoms: C_9  and  C_10
REMARK    8  A    between atoms: C_10  and  N_11
REMARK    9  A    between atoms: C_12  and  C_14
REMARK                            x       y       z     vdW  Elec       q    Type
REMARK                         _______ _______ _______ _____ _____    ______ ____
ROOT
ATOM      1  C   UNL     1      45.249   6.284  12.262  0.00  0.00    +0.000 A 
ATOM      2  C   UNL     1      46.246   5.369  12.607  0.00  0.00    +0.000 A 
ATOM      3  C   UNL     1      47.384   5.801  13.283  0.00  0.00    +0.000 A 
ATOM      4  C   UNL     1      47.514   7.154  13.581  0.00  0.00    +0.000 A 
ATOM      5  N   UNL     1      46.555   8.062  13.272  0.00  0.00    +0.000 NA
ATOM      6  C   UNL     1      45.455   7.610  12.628  0.00  0.00    +0.000 A 
ENDROOT
BRANCH   1   7
ATOM      7  C   UNL     1      43.988   5.839  11.566  0.00  0.00    +0.000 C 
BRANCH   7   8
ATOM      8  N   UNL     1      44.254   5.375  10.208  0.00  0.00    +0.000 NA
ATOM      9  H   UNL     1      43.597   5.830   9.570  0.00  0.00    +0.000 HD
BRANCH   8  10
ATOM     10  C   UNL     1      44.037   3.916  10.027  0.00  0.00    +0.000 C 
BRANCH  10  11
ATOM     11  C   UNL     1      45.030   3.376   8.990  0.00  0.00    +0.000 A 
ATOM     12  C   UNL     1      45.373   2.022   8.961  0.00  0.00    +0.000 A 
ATOM     13  C   UNL     1      46.301   1.568   8.030  0.00  0.00    +0.000 A 
ATOM     14  C   UNL     1      46.893   2.478   7.169  0.00  0.00    +0.000 A 
ATOM     15  C   UNL     1      46.530   3.809   7.277  0.00  0.00    +0.000 A 
ATOM     16  N   UNL     1      45.618   4.280   8.161  0.00  0.00    +0.000 NA
ENDBRANCH  10  11
BRANCH  10  17
ATOM     17  C   UNL     1      44.054   3.075  11.346  0.00  0.00    +0.000 C 
BRANCH  17  18
ATOM     18  N   UNL     1      42.946   2.129  11.522  0.00  0.00    +0.000 NA
ATOM     19  H   UNL     1      42.089   2.513  11.132  0.00  0.00    +0.000 HD
ATOM     20  H   UNL     1      42.798   1.967  12.519  0.00  0.00    +0.000 HD
ENDBRANCH  17  18
ENDBRANCH  10  17
ENDBRANCH   8  10
ENDBRANCH   7   8
ENDBRANCH   1   7
BRANCH   4  21
ATOM     21  C   UNL     1      48.743   7.657  14.294  0.00  0.00    +0.000 C 
BRANCH  21  22
ATOM     22  N   UNL     1      48.544   7.752  15.721  0.00  0.00    +0.000 N 
ATOM     23  C   UNL     1      48.881   6.747  16.585  0.00  0.00    +0.000 C 
ATOM     24  O   UNL     1      49.374   5.689  16.204  0.00  0.00    +0.000 OA
ATOM     25  H   UNL     1      47.898   8.475  16.019  0.00  0.00    +0.000 HD
BRANCH  23  26
ATOM     26  C   UNL     1      48.689   7.038  18.008  0.00  0.00    +0.000 A 
ATOM     27  C   UNL     1      47.927   6.180  18.791  0.00  0.00    +0.000 A 
ATOM     28  S   UNL     1      47.830   6.654  20.427  0.00  0.00    +0.000 S 
ATOM     29  C   UNL     1      48.766   8.044  20.137  0.00  0.00    +0.000 A 
ATOM     30  N   UNL     1      49.046   8.921  21.138  0.00  0.00    +0.000 NA
ATOM     31  C   UNL     1      49.755   9.936  20.776  0.00  0.00    +0.000 A 
ATOM     32  N   UNL     1      50.224  10.148  19.506  0.00  0.00    +0.000 N 
ATOM     33  C   UNL     1      50.010   9.263  18.479  0.00  0.00    +0.000 A 
ATOM     34  O   UNL     1      50.524   9.441  17.375  0.00  0.00    +0.000 OA
ATOM     35  C   UNL     1      49.186   8.120  18.823  0.00  0.00    +0.000 A 
ATOM     36  H   UNL     1      50.794  10.951  19.288  0.00  0.00    +0.000 HD
ENDBRANCH  23  26
ENDBRANCH  21  22
ENDBRANCH   4  21
TORSDOF 9
ENDMDL
MODEL 4
REMARK VINA RESULT:    -7.295      2.304      2.754
REMARK INTER + INTRA:         -11.816
REMARK INTER:                 -10.881
REMARK INTRA:                  -0.935
REMARK UNBOUND:                -0.895
REMARK  Name = 
REMARK  9 active torsions:
REMARK  status: ('A' for Active; 'I' for Inactive)
REMARK    1  A    between atoms: N_1  and  C_2
REMARK    2  A    between atoms: C_2  and  C_3
REMARK    3  A    between atoms: C_3  and  N_4
REMARK    4  A    between atoms: C_3  and  C_26
REMARK    5  A    between atoms: N_4  and  C_5
REMARK    6  A    between atoms: C_5  and  C_6
REMARK    7  A    between atoms: C_9  and  C_10
REMARK    8  A    between atoms: C_10  and  N_11
REMARK    9  A    between atoms: C_12  and  C_14
REMARK                            x       y       z     vdW  Elec       q    Type
REMARK                         _______ _______ _______ _____ _____    ______ ____
ROOT
ATOM      1  C   UNL     1      46.759   6.313  12.576  0.00  0.00    +0.000 A 
ATOM      2  C   UNL     1      47.151   5.441  13.595  0.00  0.00    +0.000 A 
ATOM      3  C   UNL     1      47.934   5.908  14.648  0.00  0.00    +0.000 A 
ATOM      4  C   UNL     1      48.333   7.240  14.648  0.00  0.00    +0.000 A 
ATOM      5  N   UNL     1      47.955   8.113  13.681  0.00  0.00    +0.000 NA
ATOM      6  C   UNL     1      47.183   7.634  12.679  0.00  0.00    +0.000 A 
ENDROOT
BRANCH   1   7
ATOM      7  C   UNL     1      45.878   5.847  11.446  0.00  0.00    +0.000 C 
BRANCH   7   8
ATOM      8  N   UNL     1      45.548   4.430  11.565  0.00  0.00    +0.000 NA
ATOM      9  H   UNL     1      46.386   3.878  11.369  0.00  0.00    +0.000 HD
BRANCH   8  10
ATOM     10  C   UNL     1      44.532   3.973  10.581  0.00  0.00    +0.000 C 
BRANCH  10  11
ATOM     11  C   UNL     1      45.237   3.466   9.317  0.00  0.00    +0.000 A 
ATOM     12  C   UNL     1      45.563   2.116   9.169  0.00  0.00    +0.000 A 
ATOM     13  C   UNL     1      46.231   1.691   8.026  0.00  0.00    +0.000 A 
ATOM     14  C   UNL     1      46.589   2.625   7.068  0.00  0.00    +0.000 A 
ATOM     15  C   UNL     1      46.263   3.951   7.297  0.00  0.00    +0.000 A 
ATOM     16  N   UNL     1      45.600   4.394   8.391  0.00  0.00    +0.000 NA
ENDBRANCH  10  11
BRANCH  10  17
ATOM     17  C   UNL     1      43.498   2.936  11.130  0.00  0.00    +0.000 C 
BRANCH  17  18
ATOM     18  N   UNL     1      43.705   2.489  12.513  0.00  0.00    +0.000 NA
ATOM     19  H   UNL     1      43.702   3.286  13.145  0.00  0.00    +0.000 HD
ATOM     20  H   UNL     1      44.613   2.029  12.584  0.00  0.00    +0.000 HD
ENDBRANCH  17  18
ENDBRANCH  10  17
ENDBRANCH   8  10
ENDBRANCH   7   8
ENDBRANCH   1   7
BRANCH   4  21
ATOM     21  C   UNL     1      49.198   7.771  15.763  0.00  0.00    +0.000 C 
BRANCH  21  22
ATOM     22  N   UNL     1      50.188   6.811  16.188  0.00  0.00    +0.000 N 
ATOM     23  C   UNL     1      50.199   6.261  17.439  0.00  0.00    +0.000 C 
ATOM     24  O   UNL     1      49.365   6.550  18.293  0.00  0.00    +0.000 OA
ATOM     25  H   UNL     1      51.025   6.772  15.615  0.00  0.00    +0.000 HD
BRANCH  23  26
ATOM     26  C   UNL     1      51.224   5.241  17.680  0.00  0.00    +0.000 A 
ATOM     27  C   UNL     1      52.487   5.621  18.114  0.00  0.00    +0.000 A 
ATOM     28  S   UNL     1      53.545   4.309  18.369  0.00  0.00    +0.000 S 
ATOM     29  C   UNL     1      52.367   3.190  17.867  0.00  0.00    +0.000 A 
ATOM     30  N   UNL     1      52.639   1.857  17.825  0.00  0.00    +0.000 NA
ATOM     31  C   UNL     1      51.658   1.126  17.414  0.00  0.00    +0.000 A 
ATOM     32  N   UNL     1      50.424   1.602  17.057  0.00  0.00    +0.000 N 
ATOM     33  C   UNL     1      50.091   2.930  17.134  0.00  0.00    +0.000 A 
ATOM     34  O   UNL     1      48.946   3.309  16.892  0.00  0.00    +0.000 OA
ATOM     35  C   UNL     1      51.170   3.805  17.556  0.00  0.00    +0.000 A 
ATOM     36  H   UNL     1      49.689   0.976  16.764  0.00  0.00    +0.000 HD
ENDBRANCH  23  26
ENDBRANCH  21  22
ENDBRANCH   4  21
TORSDOF 9
ENDMDL
MODEL 5
REMARK VINA RESULT:    -7.289      3.067      8.034
REMARK INTER + INTRA:         -11.806
REMARK INTER:                 -10.355
REMARK INTRA:                  -1.451
REMARK UNBOUND:                -0.895
REMARK  Name = 
REMARK  9 active torsions:
REMARK  status: ('A' for Active; 'I' for Inactive)
REMARK    1  A    between atoms: N_1  and  C_2
REMARK    2  A    between atoms: C_2  and  C_3
REMARK    3  A    between atoms: C_3  and  N_4
REMARK    4  A    between atoms: C_3  and  C_26
REMARK    5  A    between atoms: N_4  and  C_5
REMARK    6  A    between atoms: C_5  and  C_6
REMARK    7  A    between atoms: C_9  and  C_10
REMARK    8  A    between atoms: C_10  and  N_11
REMARK    9  A    between atoms: C_12  and  C_14
REMARK                            x       y       z     vdW  Elec       q    Type
REMARK                         _______ _______ _______ _____ _____    ______ ____
ROOT
ATOM      1  C   UNL     1      48.756   7.638  16.415  0.00  0.00    +0.000 A 
ATOM      2  C   UNL     1      48.318   8.837  15.847  0.00  0.00    +0.000 A 
ATOM      3  C   UNL     1      48.180   8.943  14.465  0.00  0.00    +0.000 A 
ATOM      4  C   UNL     1      48.506   7.847  13.672  0.00  0.00    +0.000 A 
ATOM      5  N   UNL     1      48.918   6.666  14.197  0.00  0.00    +0.000 NA
ATOM      6  C   UNL     1      49.030   6.590  15.543  0.00  0.00    +0.000 A 
ENDROOT
BRANCH   1   7
ATOM      7  C   UNL     1      48.877   7.481  17.909  0.00  0.00    +0.000 C 
BRANCH   7   8
ATOM      8  N   UNL     1      47.666   6.913  18.494  0.00  0.00    +0.000 NA
ATOM      9  H   UNL     1      47.279   7.581  19.164  0.00  0.00    +0.000 HD
BRANCH   8  10
ATOM     10  C   UNL     1      47.911   5.669  19.270  0.00  0.00    +0.000 C 
BRANCH  10  11
ATOM     11  C   UNL     1      48.307   4.538  18.312  0.00  0.00    +0.000 A 
ATOM     12  C   UNL     1      47.366   3.959  17.457  0.00  0.00    +0.000 A 
ATOM     13  C   UNL     1      47.746   2.913  16.623  0.00  0.00    +0.000 A 
ATOM     14  C   UNL     1      49.049   2.444  16.681  0.00  0.00    +0.000 A 
ATOM     15  C   UNL     1      49.918   3.044  17.576  0.00  0.00    +0.000 A 
ATOM     16  N   UNL     1      49.583   4.073  18.389  0.00  0.00    +0.000 NA
ENDBRANCH  10  11
BRANCH  10  17
ATOM     17  C   UNL     1      48.926   5.815  20.452  0.00  0.00    +0.000 C 
BRANCH  17  18
ATOM     18  N   UNL     1      49.299   4.572  21.139  0.00  0.00    +0.000 NA
ATOM     19  H   UNL     1      49.324   4.718  22.145  0.00  0.00    +0.000 HD
ATOM     20  H   UNL     1      50.231   4.288  20.835  0.00  0.00    +0.000 HD
ENDBRANCH  17  18
ENDBRANCH  10  17
ENDBRANCH   8  10
ENDBRANCH   7   8
ENDBRANCH   1   7
BRANCH   4  21
ATOM     21  C   UNL     1      48.386   7.937  12.172  0.00  0.00    +0.000 C 
BRANCH  21  22
ATOM     22  N   UNL     1      47.619   6.845  11.622  0.00  0.00    +0.000 N 
ATOM     23  C   UNL     1      46.261   6.892  11.475  0.00  0.00    +0.000 C 
ATOM     24  O   UNL     1      45.597   7.871  11.806  0.00  0.00    +0.000 OA
ATOM     25  H   UNL     1      48.094   5.948  11.607  0.00  0.00    +0.000 HD
BRANCH  23  26
ATOM     26  C   UNL     1      45.648   5.731  10.823  0.00  0.00    +0.000 A 
ATOM     27  C   UNL     1      45.797   5.550   9.454  0.00  0.00    +0.000 A 
ATOM     28  S   UNL     1      45.044   4.138   8.867  0.00  0.00    +0.000 S 
ATOM     29  C   UNL     1      44.457   3.741  10.412  0.00  0.00    +0.000 A 
ATOM     30  N   UNL     1      43.695   2.631  10.609  0.00  0.00    +0.000 NA
ATOM     31  C   UNL     1      43.308   2.459  11.828  0.00  0.00    +0.000 A 
ATOM     32  N   UNL     1      43.627   3.286  12.873  0.00  0.00    +0.000 N 
ATOM     33  C   UNL     1      44.435   4.385  12.730  0.00  0.00    +0.000 A 
ATOM     34  O   UNL     1      44.774   5.051  13.706  0.00  0.00    +0.000 OA
ATOM     35  C   UNL     1      44.869   4.647  11.370  0.00  0.00    +0.000 A 
ATOM     36  H   UNL     1      43.312   3.085  13.811  0.00  0.00    +0.000 HD
ENDBRANCH  23  26
ENDBRANCH  21  22
ENDBRANCH   4  21
TORSDOF 9
ENDMDL
MODEL 6
REMARK VINA RESULT:    -7.234      2.759      8.471
REMARK INTER + INTRA:         -11.724
REMARK INTER:                 -10.041
REMARK INTRA:                  -1.683
REMARK UNBOUND:                -0.895
REMARK  Name = 
REMARK  9 active torsions:
REMARK  status: ('A' for Active; 'I' for Inactive)
REMARK    1  A    between atoms: N_1  and  C_2
REMARK    2  A    between atoms: C_2  and  C_3
REMARK    3  A    between atoms: C_3  and  N_4
REMARK    4  A    between atoms: C_3  and  C_26
REMARK    5  A    between atoms: N_4  and  C_5
REMARK    6  A    between atoms: C_5  and  C_6
REMARK    7  A    between atoms: C_9  and  C_10
REMARK    8  A    between atoms: C_10  and  N_11
REMARK    9  A    between atoms: C_12  and  C_14
REMARK                            x       y       z     vdW  Elec       q    Type
REMARK                         _______ _______ _______ _____ _____    ______ ____
ROOT
ATOM      1  C   UNL     1      49.174   7.741  16.351  0.00  0.00    +0.000 A 
ATOM      2  C   UNL     1      48.420   8.801  15.840  0.00  0.00    +0.000 A 
ATOM      3  C   UNL     1      47.955   8.755  14.528  0.00  0.00    +0.000 A 
ATOM      4  C   UNL     1      48.275   7.654  13.741  0.00  0.00    +0.000 A 
ATOM      5  N   UNL     1      48.992   6.604  14.215  0.00  0.00    +0.000 NA
ATOM      6  C   UNL     1      49.418   6.671  15.496  0.00  0.00    +0.000 A 
ENDROOT
BRANCH   1   7
ATOM      7  C   UNL     1      49.657   7.745  17.778  0.00  0.00    +0.000 C 
BRANCH   7   8
ATOM      8  N   UNL     1      48.593   7.386  18.711  0.00  0.00    +0.000 NA
ATOM      9  H   UNL     1      48.537   8.103  19.438  0.00  0.00    +0.000 HD
BRANCH   8  10
ATOM     10  C   UNL     1      48.841   6.109  19.431  0.00  0.00    +0.000 C 
BRANCH  10  11
ATOM     11  C   UNL     1      48.616   4.932  18.474  0.00  0.00    +0.000 A 
ATOM     12  C   UNL     1      47.353   4.676  17.934  0.00  0.00    +0.000 A 
ATOM     13  C   UNL     1      47.172   3.581  17.096  0.00  0.00    +0.000 A 
ATOM     14  C   UNL     1      48.246   2.745  16.839  0.00  0.00    +0.000 A 
ATOM     15  C   UNL     1      49.460   3.040  17.436  0.00  0.00    +0.000 A 
ATOM     16  N   UNL     1      49.672   4.107  18.243  0.00  0.00    +0.000 NA
ENDBRANCH  10  11
BRANCH  10  17
ATOM     17  C   UNL     1      50.224   6.017  20.157  0.00  0.00    +0.000 C 
BRANCH  17  18
ATOM     18  N   UNL     1      50.442   4.819  20.977  0.00  0.00    +0.000 NA
ATOM     19  H   UNL     1      49.924   4.031  20.596  0.00  0.00    +0.000 HD
ATOM     20  H   UNL     1      50.103   4.994  21.924  0.00  0.00    +0.000 HD
ENDBRANCH  17  18
ENDBRANCH  10  17
ENDBRANCH   8  10
ENDBRANCH   7   8
ENDBRANCH   1   7
BRANCH   4  21
ATOM     21  C   UNL     1      47.803   7.583  12.311  0.00  0.00    +0.000 C 
BRANCH  21  22
ATOM     22  N   UNL     1      47.024   6.396  12.053  0.00  0.00    +0.000 N 
ATOM     23  C   UNL     1      45.660   6.370  12.140  0.00  0.00    +0.000 C 
ATOM     24  O   UNL     1      45.001   7.359  12.449  0.00  0.00    +0.000 OA
ATOM     25  H   UNL     1      47.545   5.525  12.074  0.00  0.00    +0.000 HD
BRANCH  23  26
ATOM     26  C   UNL     1      45.020   5.106  11.765  0.00  0.00    +0.000 A 
ATOM     27  C   UNL     1      44.275   4.405  12.704  0.00  0.00    +0.000 A 
ATOM     28  S   UNL     1      43.580   2.972  12.094  0.00  0.00    +0.000 S 
ATOM     29  C   UNL     1      44.285   3.216  10.566  0.00  0.00    +0.000 A 
ATOM     30  N   UNL     1      44.103   2.320   9.559  0.00  0.00    +0.000 NA
ATOM     31  C   UNL     1      44.704   2.624   8.458  0.00  0.00    +0.000 A 
ATOM     32  N   UNL     1      45.459   3.751   8.266  0.00  0.00    +0.000 N 
ATOM     33  C   UNL     1      45.626   4.706   9.236  0.00  0.00    +0.000 A 
ATOM     34  O   UNL     1      46.235   5.748   8.999  0.00  0.00    +0.000 OA
ATOM     35  C   UNL     1      45.000   4.397  10.509  0.00  0.00    +0.000 A 
ATOM     36  H   UNL     1      45.887   3.945   7.373  0.00  0.00    +0.000 HD
ENDBRANCH  23  26
ENDBRANCH  21  22
ENDBRANCH   4  21
TORSDOF 9
ENDMDL
MODEL 7
REMARK VINA RESULT:    -6.894      4.956      9.991
REMARK INTER + INTRA:         -11.215
REMARK INTER:                  -9.886
REMARK INTRA:                  -1.329
REMARK UNBOUND:                -0.895
REMARK  Name = 
REMARK  9 active torsions:
REMARK  status: ('A' for Active; 'I' for Inactive)
REMARK    1  A    between atoms: N_1  and  C_2
REMARK    2  A    between atoms: C_2  and  C_3
REMARK    3  A    between atoms: C_3  and  N_4
REMARK    4  A    between atoms: C_3  and  C_26
REMARK    5  A    between atoms: N_4  and  C_5
REMARK    6  A    between atoms: C_5  and  C_6
REMARK    7  A    between atoms: C_9  and  C_10
REMARK    8  A    between atoms: C_10  and  N_11
REMARK    9  A    between atoms: C_12  and  C_14
REMARK                            x       y       z     vdW  Elec       q    Type
REMARK                         _______ _______ _______ _____ _____    ______ ____
ROOT
ATOM      1  C   UNL     1      51.402   2.710  17.662  0.00  0.00    +0.000 A 
ATOM      2  C   UNL     1      50.573   1.770  17.044  0.00  0.00    +0.000 A 
ATOM      3  C   UNL     1      49.245   2.087  16.768  0.00  0.00    +0.000 A 
ATOM      4  C   UNL     1      48.763   3.337  17.141  0.00  0.00    +0.000 A 
ATOM      5  N   UNL     1      49.547   4.274  17.729  0.00  0.00    +0.000 NA
ATOM      6  C   UNL     1      50.836   3.942  17.971  0.00  0.00    +0.000 A 
ENDROOT
BRANCH   1   7
ATOM      7  C   UNL     1      52.852   2.410  17.936  0.00  0.00    +0.000 C 
BRANCH   7   8
ATOM      8  N   UNL     1      53.029   1.095  18.545  0.00  0.00    +0.000 NA
ATOM      9  H   UNL     1      53.050   1.203  19.561  0.00  0.00    +0.000 HD
BRANCH   8  10
ATOM     10  C   UNL     1      54.317   0.445  18.188  0.00  0.00    +0.000 C 
BRANCH  10  11
ATOM     11  C   UNL     1      54.406  -0.924  18.872  0.00  0.00    +0.000 A 
ATOM     12  C   UNL     1      55.643  -1.517  19.136  0.00  0.00    +0.000 A 
ATOM     13  C   UNL     1      55.691  -2.774  19.727  0.00  0.00    +0.000 A 
ATOM     14  C   UNL     1      54.505  -3.430  20.014  0.00  0.00    +0.000 A 
ATOM     15  C   UNL     1      53.316  -2.797  19.693  0.00  0.00    +0.000 A 
ATOM     16  N   UNL     1      53.236  -1.567  19.132  0.00  0.00    +0.000 NA
ENDBRANCH  10  11
BRANCH  10  17
ATOM     17  C   UNL     1      54.609   0.353  16.653  0.00  0.00    +0.000 C 
BRANCH  17  18
ATOM     18  N   UNL     1      54.021  -0.795  15.953  0.00  0.00    +0.000 NA
ATOM     19  H   UNL     1      54.125  -0.686  14.947  0.00  0.00    +0.000 HD
ATOM     20  H   UNL     1      53.024  -0.843  16.167  0.00  0.00    +0.000 HD
ENDBRANCH  17  18
ENDBRANCH  10  17
ENDBRANCH   8  10
ENDBRANCH   7   8
ENDBRANCH   1   7
BRANCH   4  21
ATOM     21  C   UNL     1      47.324   3.703  16.875  0.00  0.00    +0.000 C 
BRANCH  21  22
ATOM     22  N   UNL     1      47.198   4.685  15.826  0.00  0.00    +0.000 N 
ATOM     23  C   UNL     1      47.154   4.353  14.500  0.00  0.00    +0.000 C 
ATOM     24  O   UNL     1      47.222   3.191  14.110  0.00  0.00    +0.000 OA
ATOM     25  H   UNL     1      47.420   5.638  16.097  0.00  0.00    +0.000 HD
BRANCH  23  26
ATOM     26  C   UNL     1      46.940   5.466  13.570  0.00  0.00    +0.000 A 
ATOM     27  C   UNL     1      45.828   5.465  12.737  0.00  0.00    +0.000 A 
ATOM     28  S   UNL     1      45.721   6.845  11.741  0.00  0.00    +0.000 S 
ATOM     29  C   UNL     1      47.177   7.471  12.356  0.00  0.00    +0.000 A 
ATOM     30  N   UNL     1      47.683   8.648  11.899  0.00  0.00    +0.000 NA
ATOM     31  C   UNL     1      48.799   8.997  12.444  0.00  0.00    +0.000 A 
ATOM     32  N   UNL     1      49.449   8.286  13.417  0.00  0.00    +0.000 N 
ATOM     33  C   UNL     1      48.949   7.122  13.945  0.00  0.00    +0.000 A 
ATOM     34  O   UNL     1      49.514   6.558  14.881  0.00  0.00    +0.000 OA
ATOM     35  C   UNL     1      47.712   6.663  13.341  0.00  0.00    +0.000 A 
ATOM     36  H   UNL     1      50.310   8.623  13.822  0.00  0.00    +0.000 HD
ENDBRANCH  23  26
ENDBRANCH  21  22
ENDBRANCH   4  21
TORSDOF 9
ENDMDL
MODEL 8
REMARK VINA RESULT:    -6.860      4.389      9.845
REMARK INTER + INTRA:         -11.165
REMARK INTER:                 -10.178
REMARK INTRA:                  -0.987
REMARK UNBOUND:                -0.895
REMARK  Name = 
REMARK  9 active torsions:
REMARK  status: ('A' for Active; 'I' for Inactive)
REMARK    1  A    between atoms: N_1  and  C_2
REMARK    2  A    between atoms: C_2  and  C_3
REMARK    3  A    between atoms: C_3  and  N_4
REMARK    4  A    between atoms: C_3  and  C_26
REMARK    5  A    between atoms: N_4  and  C_5
REMARK    6  A    between atoms: C_5  and  C_6
REMARK    7  A    between atoms: C_9  and  C_10
REMARK    8  A    between atoms: C_10  and  N_11
REMARK    9  A    between atoms: C_12  and  C_14
REMARK                            x       y       z     vdW  Elec       q    Type
REMARK                         _______ _______ _______ _____ _____    ______ ____
ROOT
ATOM      1  C   UNL     1      51.216   3.802  18.099  0.00  0.00    +0.000 A 
ATOM      2  C   UNL     1      50.824   2.623  17.460  0.00  0.00    +0.000 A 
ATOM      3  C   UNL     1      49.509   2.469  17.029  0.00  0.00    +0.000 A 
ATOM      4  C   UNL     1      48.599   3.494  17.269  0.00  0.00    +0.000 A 
ATOM      5  N   UNL     1      48.955   4.655  17.873  0.00  0.00    +0.000 NA
ATOM      6  C   UNL     1      50.242   4.781  18.268  0.00  0.00    +0.000 A 
ENDROOT
BRANCH   1   7
ATOM      7  C   UNL     1      52.640   4.014  18.541  0.00  0.00    +0.000 C 
BRANCH   7   8
ATOM      8  N   UNL     1      53.056   3.020  19.526  0.00  0.00    +0.000 NA
ATOM      9  H   UNL     1      52.959   3.422  20.461  0.00  0.00    +0.000 HD
BRANCH   8  10
ATOM     10  C   UNL     1      54.485   2.630  19.407  0.00  0.00    +0.000 C 
BRANCH  10  11
ATOM     11  C   UNL     1      54.610   1.424  18.468  0.00  0.00    +0.000 A 
ATOM     12  C   UNL     1      55.019   1.585  17.142  0.00  0.00    +0.000 A 
ATOM     13  C   UNL     1      55.091   0.477  16.305  0.00  0.00    +0.000 A 
ATOM     14  C   UNL     1      54.724  -0.765  16.798  0.00  0.00    +0.000 A 
ATOM     15  C   UNL     1      54.296  -0.844  18.112  0.00  0.00    +0.000 A 
ATOM     16  N   UNL     1      54.230   0.213  18.956  0.00  0.00    +0.000 NA
ENDBRANCH  10  11
BRANCH  10  17
ATOM     17  C   UNL     1      55.456   3.789  19.003  0.00  0.00    +0.000 C 
BRANCH  17  18
ATOM     18  N   UNL     1      55.676   4.828  20.016  0.00  0.00    +0.000 NA
ATOM     19  H   UNL     1      55.040   5.608  19.866  0.00  0.00    +0.000 HD
ATOM     20  H   UNL     1      56.632   5.177  19.936  0.00  0.00    +0.000 HD
ENDBRANCH  17  18
ENDBRANCH  10  17
ENDBRANCH   8  10
ENDBRANCH   7   8
ENDBRANCH   1   7
BRANCH   4  21
ATOM     21  C   UNL     1      47.164   3.349  16.832  0.00  0.00    +0.000 C 
BRANCH  21  22
ATOM     22  N   UNL     1      46.794   4.333  15.843  0.00  0.00    +0.000 N 
ATOM     23  C   UNL     1      46.855   4.093  14.498  0.00  0.00    +0.000 C 
ATOM     24  O   UNL     1      47.234   3.020  14.038  0.00  0.00    +0.000 OA
ATOM     25  H   UNL     1      46.751   5.289  16.180  0.00  0.00    +0.000 HD
BRANCH  23  26
ATOM     26  C   UNL     1      46.365   5.171  13.634  0.00  0.00    +0.000 A 
ATOM     27  C   UNL     1      47.144   6.304  13.436  0.00  0.00    +0.000 A 
ATOM     28  S   UNL     1      46.435   7.443  12.384  0.00  0.00    +0.000 S 
ATOM     29  C   UNL     1      45.046   6.482  12.190  0.00  0.00    +0.000 A 
ATOM     30  N   UNL     1      44.010   6.898  11.411  0.00  0.00    +0.000 NA
ATOM     31  C   UNL     1      43.016   6.076  11.363  0.00  0.00    +0.000 A 
ATOM     32  N   UNL     1      42.968   4.869  12.010  0.00  0.00    +0.000 N 
ATOM     33  C   UNL     1      44.010   4.388  12.761  0.00  0.00    +0.000 A 
ATOM     34  O   UNL     1      43.968   3.261  13.252  0.00  0.00    +0.000 OA
ATOM     35  C   UNL     1      45.142   5.289  12.880  0.00  0.00    +0.000 A 
ATOM     36  H   UNL     1      42.170   4.259  11.915  0.00  0.00    +0.000 HD
ENDBRANCH  23  26
ENDBRANCH  21  22
ENDBRANCH   4  21
TORSDOF 9
ENDMDL
MODEL 9
REMARK VINA RESULT:    -6.626      4.829      6.376
REMARK INTER + INTRA:         -10.814
REMARK INTER:                  -9.486
REMARK INTRA:                  -1.328
REMARK UNBOUND:                -0.895
REMARK  Name = 
REMARK  9 active torsions:
REMARK  status: ('A' for Active; 'I' for Inactive)
REMARK    1  A    between atoms: N_1  and  C_2
REMARK    2  A    between atoms: C_2  and  C_3
REMARK    3  A    between atoms: C_3  and  N_4
REMARK    4  A    between atoms: C_3  and  C_26
REMARK    5  A    between atoms: N_4  and  C_5
REMARK    6  A    between atoms: C_5  and  C_6
REMARK    7  A    between atoms: C_9  and  C_10
REMARK    8  A    between atoms: C_10  and  N_11
REMARK    9  A    between atoms: C_12  and  C_14
REMARK                            x       y       z     vdW  Elec       q    Type
REMARK                         _______ _______ _______ _____ _____    ______ ____
ROOT
ATOM      1  C   UNL     1      45.935   7.296  11.934  0.00  0.00    +0.000 A 
ATOM      2  C   UNL     1      45.746   8.638  12.273  0.00  0.00    +0.000 A 
ATOM      3  C   UNL     1      46.846   9.480  12.425  0.00  0.00    +0.000 A 
ATOM      4  C   UNL     1      48.122   8.952  12.258  0.00  0.00    +0.000 A 
ATOM      5  N   UNL     1      48.335   7.658  11.914  0.00  0.00    +0.000 NA
ATOM      6  C   UNL     1      47.247   6.869  11.760  0.00  0.00    +0.000 A 
ENDROOT
BRANCH   1   7
ATOM      7  C   UNL     1      44.764   6.373  11.723  0.00  0.00    +0.000 C 
BRANCH   7   8
ATOM      8  N   UNL     1      45.192   4.994  11.510  0.00  0.00    +0.000 NA
ATOM      9  H   UNL     1      46.099   5.000  11.038  0.00  0.00    +0.000 HD
BRANCH   8  10
ATOM     10  C   UNL     1      44.286   4.223  10.619  0.00  0.00    +0.000 C 
BRANCH  10  11
ATOM     11  C   UNL     1      45.101   3.589   9.485  0.00  0.00    +0.000 A 
ATOM     12  C   UNL     1      45.664   4.376   8.477  0.00  0.00    +0.000 A 
ATOM     13  C   UNL     1      46.370   3.770   7.444  0.00  0.00    +0.000 A 
ATOM     14  C   UNL     1      46.474   2.389   7.418  0.00  0.00    +0.000 A 
ATOM     15  C   UNL     1      45.863   1.670   8.432  0.00  0.00    +0.000 A 
ATOM     16  N   UNL     1      45.182   2.231   9.459  0.00  0.00    +0.000 NA
ENDBRANCH  10  11
BRANCH  10  17
ATOM     17  C   UNL     1      43.379   3.174  11.344  0.00  0.00    +0.000 C 
BRANCH  17  18
ATOM     18  N   UNL     1      43.966   2.517  12.518  0.00  0.00    +0.000 NA
ATOM     19  H   UNL     1      44.254   1.569  12.286  0.00  0.00    +0.000 HD
ATOM     20  H   UNL     1      43.265   2.465  13.258  0.00  0.00    +0.000 HD
ENDBRANCH  17  18
ENDBRANCH  10  17
ENDBRANCH   8  10
ENDBRANCH   7   8
ENDBRANCH   1   7
BRANCH   4  21
ATOM     21  C   UNL     1      49.333   9.832  12.436  0.00  0.00    +0.000 C 
BRANCH  21  22
ATOM     22  N   UNL     1      50.190   9.820  11.274  0.00  0.00    +0.000 N 
ATOM     23  C   UNL     1      51.482  10.265  11.301  0.00  0.00    +0.000 C 
ATOM     24  O   UNL     1      52.004  10.710  12.319  0.00  0.00    +0.000 OA
ATOM     25  H   UNL     1      49.710   9.726  10.385  0.00  0.00    +0.000 HD
BRANCH  23  26
ATOM     26  C   UNL     1      52.238  10.105  10.055  0.00  0.00    +0.000 A 
ATOM     27  C   UNL     1      52.748  11.225   9.410  0.00  0.00    +0.000 A 
ATOM     28  S   UNL     1      53.622  10.857   7.993  0.00  0.00    +0.000 S 
ATOM     29  C   UNL     1      53.314   9.194   8.168  0.00  0.00    +0.000 A 
ATOM     30  N   UNL     1      53.773   8.296   7.255  0.00  0.00    +0.000 NA
ATOM     31  C   UNL     1      53.457   7.070   7.506  0.00  0.00    +0.000 A 
ATOM     32  N   UNL     1      52.736   6.657   8.596  0.00  0.00    +0.000 N 
ATOM     33  C   UNL     1      52.299   7.521   9.567  0.00  0.00    +0.000 A 
ATOM     34  O   UNL     1      51.734   7.103  10.577  0.00  0.00    +0.000 OA
ATOM     35  C   UNL     1      52.596   8.919   9.316  0.00  0.00    +0.000 A 
ATOM     36  H   UNL     1      52.539   5.680   8.749  0.00  0.00    +0.000 HD
ENDBRANCH  23  26
ENDBRANCH  21  22
ENDBRANCH   4  21
TORSDOF 9
ENDMDL
