MODEL 1
REMARK VINA RESULT:    -7.990      0.000      0.000
REMARK INTER + INTRA:         -10.939
REMARK INTER:                 -10.326
REMARK INTRA:                  -0.613
REMARK UNBOUND:                -0.613
REMARK  Name = 
REMARK  7 active torsions:
REMARK  status: ('A' for Active; 'I' for Inactive)
REMARK    1  A    between atoms: C_1  and  O_2
REMARK    2  A    between atoms: O_2  and  C_3
REMARK    3  A    between atoms: C_6  and  C_7
REMARK    4  A    between atoms: C_7  and  C_8
REMARK    5  A    between atoms: C_7  and  N_9
REMARK    6  A    between atoms: N_9  and  C_10
REMARK    7  A    between atoms: C_13  and  C_14
REMARK                            x       y       z     vdW  Elec       q    Type
REMARK                         _______ _______ _______ _____ _____    ______ ____
ROOT
ATOM      1  N   UNL     1      43.763   4.794   9.892  0.00  0.00    +0.000 N 
ATOM      2  H   UNL     1      43.830   5.775   9.617  0.00  0.00    +0.000 HD
ENDROOT
BRANCH   1   3
ATOM      3  C   UNL     1      44.711   4.017   9.232  0.00  0.00    +0.000 A 
ATOM      4  C   UNL     1      44.803   2.635   9.256  0.00  0.00    +0.000 A 
ATOM      5  N   UNL     1      45.675   1.895   8.530  0.00  0.00    +0.000 NA
ATOM      6  C   UNL     1      46.492   2.598   7.710  0.00  0.00    +0.000 A 
ATOM      7  N   UNL     1      46.493   3.933   7.568  0.00  0.00    +0.000 NA
ATOM      8  C   UNL     1      45.590   4.596   8.322  0.00  0.00    +0.000 A 
BRANCH   6   9
ATOM      9  C   UNL     1      47.462   1.795   6.874  0.00  0.00    +0.000 C 
ATOM     10  N   UNL     1      48.540   2.496   6.381  0.00  0.00    +0.000 N 
ATOM     11  O   UNL     1      47.337   0.600   6.631  0.00  0.00    +0.000 OA
ATOM     12  H   UNL     1      48.651   3.479   6.602  0.00  0.00    +0.000 HD
ATOM     13  H   UNL     1      49.235   2.007   5.835  0.00  0.00    +0.000 HD
ENDBRANCH   6   9
ENDBRANCH   1   3
BRANCH   1  14
ATOM     14  C   UNL     1      43.490   4.663  11.330  0.00  0.00    +0.000 C 
ATOM     15  C   UNL     1      42.362   5.597  11.774  0.00  0.00    +0.000 C 
BRANCH  14  19
ATOM     16  C   UNL     1      47.218   5.561  13.385  0.00  0.00    +0.000 A 
ATOM     17  C   UNL     1      46.626   4.303  13.507  0.00  0.00    +0.000 A 
ATOM     18  C   UNL     1      45.417   4.024  12.858  0.00  0.00    +0.000 A 
ATOM     19  C   UNL     1      44.776   4.998  12.079  0.00  0.00    +0.000 A 
ATOM     20  C   UNL     1      45.370   6.267  11.980  0.00  0.00    +0.000 A 
ATOM     21  C   UNL     1      46.578   6.542  12.627  0.00  0.00    +0.000 A 
BRANCH  16  23
ATOM     22  C   UNL     1      49.037   7.089  13.376  0.00  0.00    +0.000 C 
ATOM     23  O   UNL     1      48.404   5.949  13.944  0.00  0.00    +0.000 OA
ENDBRANCH  16  23
ENDBRANCH  14  19
ENDBRANCH   1  14
TORSDOF 5
ENDMDL
MODEL 2
REMARK VINA RESULT:    -6.994      1.391      2.129
REMARK INTER + INTRA:          -9.652
REMARK INTER:                  -9.095
REMARK INTRA:                  -0.557
REMARK UNBOUND:                -0.613
REMARK  Name = 
REMARK  7 active torsions:
REMARK  status: ('A' for Active; 'I' for Inactive)
REMARK    1  A    between atoms: C_1  and  O_2
REMARK    2  A    between atoms: O_2  and  C_3
REMARK    3  A    between atoms: C_6  and  C_7
REMARK    4  A    between atoms: C_7  and  C_8
REMARK    5  A    between atoms: C_7  and  N_9
REMARK    6  A    between atoms: N_9  and  C_10
REMARK    7  A    between atoms: C_13  and  C_14
REMARK                            x       y       z     vdW  Elec       q    Type
REMARK                         _______ _______ _______ _____ _____    ______ ____
ROOT
ATOM      1  N   UNL     1      44.010   4.159  10.539  0.00  0.00    +0.000 N 
ATOM      2  H   UNL     1      43.528   5.035  10.329  0.00  0.00    +0.000 HD
ENDROOT
BRANCH   1   3
ATOM      3  C   UNL     1      44.810   3.754   9.473  0.00  0.00    +0.000 A 
ATOM      4  C   UNL     1      45.503   4.582   8.605  0.00  0.00    +0.000 A 
ATOM      5  N   UNL     1      46.351   4.164   7.635  0.00  0.00    +0.000 NA
ATOM      6  C   UNL     1      46.527   2.824   7.553  0.00  0.00    +0.000 A 
ATOM      7  N   UNL     1      45.940   1.912   8.344  0.00  0.00    +0.000 NA
ATOM      8  C   UNL     1      45.115   2.409   9.289  0.00  0.00    +0.000 A 
BRANCH   6   9
ATOM      9  C   UNL     1      47.483   2.332   6.490  0.00  0.00    +0.000 C 
ATOM     10  N   UNL     1      47.456   3.027   5.302  0.00  0.00    +0.000 N 
ATOM     11  O   UNL     1      48.249   1.386   6.638  0.00  0.00    +0.000 OA
ATOM     12  H   UNL     1      46.837   3.821   5.191  0.00  0.00    +0.000 HD
ATOM     13  H   UNL     1      48.089   2.758   4.563  0.00  0.00    +0.000 HD
ENDBRANCH   6   9
ENDBRANCH   1   3
BRANCH   1  14
ATOM     14  C   UNL     1      44.470   4.128  11.934  0.00  0.00    +0.000 C 
ATOM     15  C   UNL     1      43.300   3.968  12.907  0.00  0.00    +0.000 C 
BRANCH  14  19
ATOM     16  C   UNL     1      46.506   7.871  12.811  0.00  0.00    +0.000 A 
ATOM     17  C   UNL     1      45.277   7.871  12.152  0.00  0.00    +0.000 A 
ATOM     18  C   UNL     1      44.633   6.662  11.856  0.00  0.00    +0.000 A 
ATOM     19  C   UNL     1      45.209   5.434  12.209  0.00  0.00    +0.000 A 
ATOM     20  C   UNL     1      46.457   5.446  12.854  0.00  0.00    +0.000 A 
ATOM     21  C   UNL     1      47.096   6.653  13.150  0.00  0.00    +0.000 A 
BRANCH  16  23
ATOM     22  C   UNL     1      47.707   9.804  12.129  0.00  0.00    +0.000 C 
ATOM     23  O   UNL     1      47.221   8.977  13.179  0.00  0.00    +0.000 OA
ENDBRANCH  16  23
ENDBRANCH  14  19
ENDBRANCH   1  14
TORSDOF 5
ENDMDL
MODEL 3
REMARK VINA RESULT:    -6.768      2.472      6.386
REMARK INTER + INTRA:          -9.360
REMARK INTER:                  -9.981
REMARK INTRA:                   0.621
REMARK UNBOUND:                -0.613
REMARK  Name = 
REMARK  7 active torsions:
REMARK  status: ('A' for Active; 'I' for Inactive)
REMARK    1  A    between atoms: C_1  and  O_2
REMARK    2  A    between atoms: O_2  and  C_3
REMARK    3  A    between atoms: C_6  and  C_7
REMARK    4  A    between atoms: C_7  and  C_8
REMARK    5  A    between atoms: C_7  and  N_9
REMARK    6  A    between atoms: N_9  and  C_10
REMARK    7  A    between atoms: C_13  and  C_14
REMARK                            x       y       z     vdW  Elec       q    Type
REMARK                         _______ _______ _______ _____ _____    ______ ____
ROOT
ATOM      1  N   UNL     1      44.817   5.455  10.600  0.00  0.00    +0.000 N 
ATOM      2  H   UNL     1      44.255   6.304  10.675  0.00  0.00    +0.000 HD
ENDROOT
BRANCH   1   3
ATOM      3  C   UNL     1      45.569   5.243  11.752  0.00  0.00    +0.000 A 
ATOM      4  C   UNL     1      46.525   6.097  12.279  0.00  0.00    +0.000 A 
ATOM      5  N   UNL     1      47.176   5.914  13.452  0.00  0.00    +0.000 NA
ATOM      6  C   UNL     1      46.821   4.809  14.149  0.00  0.00    +0.000 A 
ATOM      7  N   UNL     1      45.895   3.913  13.771  0.00  0.00    +0.000 NA
ATOM      8  C   UNL     1      45.289   4.170  12.593  0.00  0.00    +0.000 A 
BRANCH   6   9
ATOM      9  C   UNL     1      47.519   4.591  15.472  0.00  0.00    +0.000 C 
ATOM     10  N   UNL     1      46.946   3.648  16.296  0.00  0.00    +0.000 N 
ATOM     11  O   UNL     1      48.529   5.190  15.825  0.00  0.00    +0.000 OA
ATOM     12  H   UNL     1      46.124   3.140  15.993  0.00  0.00    +0.000 HD
ATOM     13  H   UNL     1      47.383   3.443  17.183  0.00  0.00    +0.000 HD
ENDBRANCH   6   9
ENDBRANCH   1   3
BRANCH   1  14
ATOM     14  C   UNL     1      44.070   4.382   9.930  0.00  0.00    +0.000 C 
ATOM     15  C   UNL     1      43.419   3.436  10.942  0.00  0.00    +0.000 C 
BRANCH  14  19
ATOM     16  C   UNL     1      46.771   2.158   7.344  0.00  0.00    +0.000 A 
ATOM     17  C   UNL     1      46.017   1.499   8.316  0.00  0.00    +0.000 A 
ATOM     18  C   UNL     1      45.162   2.221   9.158  0.00  0.00    +0.000 A 
ATOM     19  C   UNL     1      45.049   3.614   9.047  0.00  0.00    +0.000 A 
ATOM     20  C   UNL     1      45.828   4.270   8.079  0.00  0.00    +0.000 A 
ATOM     21  C   UNL     1      46.679   3.546   7.239  0.00  0.00    +0.000 A 
BRANCH  16  23
ATOM     22  C   UNL     1      47.926   2.311   5.274  0.00  0.00    +0.000 C 
ATOM     23  O   UNL     1      47.619   1.569   6.448  0.00  0.00    +0.000 OA
ENDBRANCH  16  23
ENDBRANCH  14  19
ENDBRANCH   1  14
TORSDOF 5
ENDMDL
MODEL 4
REMARK VINA RESULT:    -6.526      2.881      6.506
REMARK INTER + INTRA:          -9.047
REMARK INTER:                  -8.490
REMARK INTRA:                  -0.557
REMARK UNBOUND:                -0.613
REMARK  Name = 
REMARK  7 active torsions:
REMARK  status: ('A' for Active; 'I' for Inactive)
REMARK    1  A    between atoms: C_1  and  O_2
REMARK    2  A    between atoms: O_2  and  C_3
REMARK    3  A    between atoms: C_6  and  C_7
REMARK    4  A    between atoms: C_7  and  C_8
REMARK    5  A    between atoms: C_7  and  N_9
REMARK    6  A    between atoms: N_9  and  C_10
REMARK    7  A    between atoms: C_13  and  C_14
REMARK                            x       y       z     vdW  Elec       q    Type
REMARK                         _______ _______ _______ _____ _____    ______ ____
ROOT
ATOM      1  N   UNL     1      44.871   4.461  12.541  0.00  0.00    +0.000 N 
ATOM      2  H   UNL     1      45.043   3.457  12.458  0.00  0.00    +0.000 HD
ENDROOT
BRANCH   1   3
ATOM      3  C   UNL     1      45.919   5.102  13.194  0.00  0.00    +0.000 A 
ATOM      4  C   UNL     1      46.769   4.540  14.134  0.00  0.00    +0.000 A 
ATOM      5  N   UNL     1      47.842   5.155  14.686  0.00  0.00    +0.000 NA
ATOM      6  C   UNL     1      48.085   6.411  14.242  0.00  0.00    +0.000 A 
ATOM      7  N   UNL     1      47.362   7.065  13.320  0.00  0.00    +0.000 NA
ATOM      8  C   UNL     1      46.313   6.381  12.815  0.00  0.00    +0.000 A 
BRANCH   6   9
ATOM      9  C   UNL     1      49.288   7.113  14.829  0.00  0.00    +0.000 C 
ATOM     10  N   UNL     1      49.416   8.444  14.499  0.00  0.00    +0.000 N 
ATOM     11  O   UNL     1      50.115   6.572  15.555  0.00  0.00    +0.000 OA
ATOM     12  H   UNL     1      48.720   8.893  13.916  0.00  0.00    +0.000 HD
ATOM     13  H   UNL     1      50.188   8.971  14.881  0.00  0.00    +0.000 HD
ENDBRANCH   6   9
ENDBRANCH   1   3
BRANCH   1  14
ATOM     14  C   UNL     1      44.250   4.995  11.321  0.00  0.00    +0.000 C 
ATOM     15  C   UNL     1      42.725   4.880  11.372  0.00  0.00    +0.000 C 
BRANCH  14  19
ATOM     16  C   UNL     1      45.919   2.748   7.991  0.00  0.00    +0.000 A 
ATOM     17  C   UNL     1      46.076   4.132   8.061  0.00  0.00    +0.000 A 
ATOM     18  C   UNL     1      45.522   4.854   9.126  0.00  0.00    +0.000 A 
ATOM     19  C   UNL     1      44.798   4.205  10.136  0.00  0.00    +0.000 A 
ATOM     20  C   UNL     1      44.629   2.813  10.044  0.00  0.00    +0.000 A 
ATOM     21  C   UNL     1      45.185   2.096   8.982  0.00  0.00    +0.000 A 
BRANCH  16  23
ATOM     22  C   UNL     1      47.033   0.717   7.461  0.00  0.00    +0.000 C 
ATOM     23  O   UNL     1      46.431   1.929   7.022  0.00  0.00    +0.000 OA
ENDBRANCH  16  23
ENDBRANCH  14  19
ENDBRANCH   1  14
TORSDOF 5
ENDMDL
MODEL 5
REMARK VINA RESULT:    -6.295      2.878      6.523
REMARK INTER + INTRA:          -8.749
REMARK INTER:                  -8.340
REMARK INTRA:                  -0.408
REMARK UNBOUND:                -0.613
REMARK  Name = 
REMARK  7 active torsions:
REMARK  status: ('A' for Active; 'I' for Inactive)
REMARK    1  A    between atoms: C_1  and  O_2
REMARK    2  A    between atoms: O_2  and  C_3
REMARK    3  A    between atoms: C_6  and  C_7
REMARK    4  A    between atoms: C_7  and  C_8
REMARK    5  A    between atoms: C_7  and  N_9
REMARK    6  A    between atoms: N_9  and  C_10
REMARK    7  A    between atoms: C_13  and  C_14
REMARK                            x       y       z     vdW  Elec       q    Type
REMARK                         _______ _______ _______ _____ _____    ______ ____
ROOT
ATOM      1  N   UNL     1      44.962   4.685  12.069  0.00  0.00    +0.000 N 
ATOM      2  H   UNL     1      45.834   4.155  12.105  0.00  0.00    +0.000 HD
ENDROOT
BRANCH   1   3
ATOM      3  C   UNL     1      45.200   6.055  12.127  0.00  0.00    +0.000 A 
ATOM      4  C   UNL     1      46.321   6.674  12.658  0.00  0.00    +0.000 A 
ATOM      5  N   UNL     1      46.575   8.003  12.618  0.00  0.00    +0.000 NA
ATOM      6  C   UNL     1      45.647   8.754  11.979  0.00  0.00    +0.000 A 
ATOM      7  N   UNL     1      44.531   8.285  11.399  0.00  0.00    +0.000 NA
ATOM      8  C   UNL     1      44.354   6.949  11.477  0.00  0.00    +0.000 A 
BRANCH   6   9
ATOM      9  C   UNL     1      45.915  10.240  11.903  0.00  0.00    +0.000 C 
ATOM     10  N   UNL     1      44.825  11.050  12.127  0.00  0.00    +0.000 N 
ATOM     11  O   UNL     1      47.013  10.730  11.665  0.00  0.00    +0.000 OA
ATOM     12  H   UNL     1      43.923  10.642  12.344  0.00  0.00    +0.000 HD
ATOM     13  H   UNL     1      44.948  12.053  12.112  0.00  0.00    +0.000 HD
ENDBRANCH   6   9
ENDBRANCH   1   3
BRANCH   1  14
ATOM     14  C   UNL     1      44.015   4.083  11.121  0.00  0.00    +0.000 C 
ATOM     15  C   UNL     1      43.283   2.891  11.741  0.00  0.00    +0.000 C 
BRANCH  14  19
ATOM     16  C   UNL     1      46.165   2.782   7.570  0.00  0.00    +0.000 A 
ATOM     17  C   UNL     1      45.671   1.848   8.481  0.00  0.00    +0.000 A 
ATOM     18  C   UNL     1      44.995   2.272   9.633  0.00  0.00    +0.000 A 
ATOM     19  C   UNL     1      44.804   3.636   9.895  0.00  0.00    +0.000 A 
ATOM     20  C   UNL     1      45.324   4.568   8.981  0.00  0.00    +0.000 A 
ATOM     21  C   UNL     1      45.997   4.142   7.832  0.00  0.00    +0.000 A 
BRANCH  16  23
ATOM     22  C   UNL     1      48.185   2.123   6.507  0.00  0.00    +0.000 C 
ATOM     23  O   UNL     1      46.817   2.498   6.402  0.00  0.00    +0.000 OA
ENDBRANCH  16  23
ENDBRANCH  14  19
ENDBRANCH   1  14
TORSDOF 5
ENDMDL
MODEL 6
REMARK VINA RESULT:    -5.717      4.729      6.390
REMARK INTER + INTRA:          -8.002
REMARK INTER:                  -7.501
REMARK INTRA:                  -0.501
REMARK UNBOUND:                -0.613
REMARK  Name = 
REMARK  7 active torsions:
REMARK  status: ('A' for Active; 'I' for Inactive)
REMARK    1  A    between atoms: C_1  and  O_2
REMARK    2  A    between atoms: O_2  and  C_3
REMARK    3  A    between atoms: C_6  and  C_7
REMARK    4  A    between atoms: C_7  and  C_8
REMARK    5  A    between atoms: C_7  and  N_9
REMARK    6  A    between atoms: N_9  and  C_10
REMARK    7  A    between atoms: C_13  and  C_14
REMARK                            x       y       z     vdW  Elec       q    Type
REMARK                         _______ _______ _______ _____ _____    ______ ____
ROOT
ATOM      1  N   UNL     1      47.576   5.135  15.663  0.00  0.00    +0.000 N 
ATOM      2  H   UNL     1      48.533   5.437  15.472  0.00  0.00    +0.000 HD
ENDROOT
BRANCH   1   3
ATOM      3  C   UNL     1      46.923   4.753  14.495  0.00  0.00    +0.000 A 
ATOM      4  C   UNL     1      46.741   3.456  14.041  0.00  0.00    +0.000 A 
ATOM      5  N   UNL     1      46.020   3.102  12.951  0.00  0.00    +0.000 NA
ATOM      6  C   UNL     1      45.424   4.123  12.290  0.00  0.00    +0.000 A 
ATOM      7  N   UNL     1      45.494   5.419  12.634  0.00  0.00    +0.000 NA
ATOM      8  C   UNL     1      46.227   5.688  13.735  0.00  0.00    +0.000 A 
BRANCH   6   9
ATOM      9  C   UNL     1      44.597   3.754  11.080  0.00  0.00    +0.000 C 
ATOM     10  N   UNL     1      44.016   2.506  11.119  0.00  0.00    +0.000 N 
ATOM     11  O   UNL     1      44.427   4.487  10.112  0.00  0.00    +0.000 OA
ATOM     12  H   UNL     1      44.141   1.911  11.929  0.00  0.00    +0.000 HD
ATOM     13  H   UNL     1      43.433   2.213  10.348  0.00  0.00    +0.000 HD
ENDBRANCH   6   9
ENDBRANCH   1   3
BRANCH   1  14
ATOM     14  C   UNL     1      47.506   4.352  16.905  0.00  0.00    +0.000 C 
ATOM     15  C   UNL     1      47.100   5.223  18.095  0.00  0.00    +0.000 C 
BRANCH  14  19
ATOM     16  C   UNL     1      51.452   2.612  17.478  0.00  0.00    +0.000 A 
ATOM     17  C   UNL     1      50.394   1.831  17.012  0.00  0.00    +0.000 A 
ATOM     18  C   UNL     1      49.121   2.391  16.845  0.00  0.00    +0.000 A 
ATOM     19  C   UNL     1      48.883   3.739  17.146  0.00  0.00    +0.000 A 
ATOM     20  C   UNL     1      49.950   4.511  17.635  0.00  0.00    +0.000 A 
ATOM     21  C   UNL     1      51.220   3.949  17.798  0.00  0.00    +0.000 A 
BRANCH  16  23
ATOM     22  C   UNL     1      52.947   0.793  17.800  0.00  0.00    +0.000 C 
ATOM     23  O   UNL     1      52.741   2.193  17.659  0.00  0.00    +0.000 OA
ENDBRANCH  16  23
ENDBRANCH  14  19
ENDBRANCH   1  14
TORSDOF 5
ENDMDL
MODEL 7
REMARK VINA RESULT:    -5.341      3.374      5.473
REMARK INTER + INTRA:          -7.515
REMARK INTER:                  -7.019
REMARK INTRA:                  -0.496
REMARK UNBOUND:                -0.613
REMARK  Name = 
REMARK  7 active torsions:
REMARK  status: ('A' for Active; 'I' for Inactive)
REMARK    1  A    between atoms: C_1  and  O_2
REMARK    2  A    between atoms: O_2  and  C_3
REMARK    3  A    between atoms: C_6  and  C_7
REMARK    4  A    between atoms: C_7  and  C_8
REMARK    5  A    between atoms: C_7  and  N_9
REMARK    6  A    between atoms: N_9  and  C_10
REMARK    7  A    between atoms: C_13  and  C_14
REMARK                            x       y       z     vdW  Elec       q    Type
REMARK                         _______ _______ _______ _____ _____    ______ ____
ROOT
ATOM      1  N   UNL     1      46.946   6.711  13.824  0.00  0.00    +0.000 N 
ATOM      2  H   UNL     1      46.493   7.611  13.654  0.00  0.00    +0.000 HD
ENDROOT
BRANCH   1   3
ATOM      3  C   UNL     1      46.302   5.683  13.141  0.00  0.00    +0.000 A 
ATOM      4  C   UNL     1      46.298   4.342  13.489  0.00  0.00    +0.000 A 
ATOM      5  N   UNL     1      45.586   3.373  12.865  0.00  0.00    +0.000 NA
ATOM      6  C   UNL     1      44.810   3.792  11.837  0.00  0.00    +0.000 A 
ATOM      7  N   UNL     1      44.699   5.060  11.412  0.00  0.00    +0.000 NA
ATOM      8  C   UNL     1      45.436   5.966  12.090  0.00  0.00    +0.000 A 
BRANCH   6   9
ATOM      9  C   UNL     1      43.991   2.734  11.135  0.00  0.00    +0.000 C 
ATOM     10  N   UNL     1      44.532   2.242   9.969  0.00  0.00    +0.000 N 
ATOM     11  O   UNL     1      42.915   2.312  11.545  0.00  0.00    +0.000 OA
ATOM     12  H   UNL     1      45.432   2.578   9.645  0.00  0.00    +0.000 HD
ATOM     13  H   UNL     1      44.041   1.516   9.468  0.00  0.00    +0.000 HD
ENDBRANCH   6   9
ENDBRANCH   1   3
BRANCH   1  14
ATOM     14  C   UNL     1      48.408   6.852  13.852  0.00  0.00    +0.000 C 
ATOM     15  C   UNL     1      48.916   7.155  15.263  0.00  0.00    +0.000 C 
BRANCH  14  19
ATOM     16  C   UNL     1      49.505  10.154  11.240  0.00  0.00    +0.000 A 
ATOM     17  C   UNL     1      48.256  10.125  11.859  0.00  0.00    +0.000 A 
ATOM     18  C   UNL     1      47.900   9.051  12.685  0.00  0.00    +0.000 A 
ATOM     19  C   UNL     1      48.785   7.987  12.903  0.00  0.00    +0.000 A 
ATOM     20  C   UNL     1      50.033   8.016  12.258  0.00  0.00    +0.000 A 
ATOM     21  C   UNL     1      50.385   9.090  11.436  0.00  0.00    +0.000 A 
BRANCH  16  23
ATOM     22  C   UNL     1      51.383  11.388  10.468  0.00  0.00    +0.000 C 
ATOM     23  O   UNL     1      49.981  11.152  10.435  0.00  0.00    +0.000 OA
ENDBRANCH  16  23
ENDBRANCH  14  19
ENDBRANCH   1  14
TORSDOF 5
ENDMDL
MODEL 8
REMARK VINA RESULT:    -5.123      5.213      8.005
REMARK INTER + INTRA:          -7.234
REMARK INTER:                  -6.784
REMARK INTRA:                  -0.449
REMARK UNBOUND:                -0.613
REMARK  Name = 
REMARK  7 active torsions:
REMARK  status: ('A' for Active; 'I' for Inactive)
REMARK    1  A    between atoms: C_1  and  O_2
REMARK    2  A    between atoms: O_2  and  C_3
REMARK    3  A    between atoms: C_6  and  C_7
REMARK    4  A    between atoms: C_7  and  C_8
REMARK    5  A    between atoms: C_7  and  N_9
REMARK    6  A    between atoms: N_9  and  C_10
REMARK    7  A    between atoms: C_13  and  C_14
REMARK                            x       y       z     vdW  Elec       q    Type
REMARK                         _______ _______ _______ _____ _____    ______ ____
ROOT
ATOM      1  N   UNL     1      47.884   6.943  14.787  0.00  0.00    +0.000 N 
ATOM      2  H   UNL     1      46.883   6.854  14.968  0.00  0.00    +0.000 HD
ENDROOT
BRANCH   1   3
ATOM      3  C   UNL     1      48.633   6.265  15.744  0.00  0.00    +0.000 A 
ATOM      4  C   UNL     1      48.217   5.178  16.496  0.00  0.00    +0.000 A 
ATOM      5  N   UNL     1      48.995   4.475  17.353  0.00  0.00    +0.000 NA
ATOM      6  C   UNL     1      50.283   4.882  17.438  0.00  0.00    +0.000 A 
ATOM      7  N   UNL     1      50.826   5.899  16.750  0.00  0.00    +0.000 NA
ATOM      8  C   UNL     1      49.986   6.545  15.913  0.00  0.00    +0.000 A 
BRANCH   6   9
ATOM      9  C   UNL     1      51.178   4.102  18.373  0.00  0.00    +0.000 C 
ATOM     10  N   UNL     1      51.030   4.389  19.711  0.00  0.00    +0.000 N 
ATOM     11  O   UNL     1      51.991   3.260  18.007  0.00  0.00    +0.000 OA
ATOM     12  H   UNL     1      50.342   5.070  20.012  0.00  0.00    +0.000 HD
ATOM     13  H   UNL     1      51.585   3.882  20.386  0.00  0.00    +0.000 HD
ENDBRANCH   6   9
ENDBRANCH   1   3
BRANCH   1  14
ATOM     14  C   UNL     1      48.172   6.861  13.348  0.00  0.00    +0.000 C 
ATOM     15  C   UNL     1      48.347   8.250  12.731  0.00  0.00    +0.000 C 
BRANCH  14  19
ATOM     16  C   UNL     1      44.934   4.726  11.379  0.00  0.00    +0.000 A 
ATOM     17  C   UNL     1      45.528   5.831  10.769  0.00  0.00    +0.000 A 
ATOM     18  C   UNL     1      46.559   6.526  11.415  0.00  0.00    +0.000 A 
ATOM     19  C   UNL     1      47.009   6.132  12.682  0.00  0.00    +0.000 A 
ATOM     20  C   UNL     1      46.390   5.030  13.295  0.00  0.00    +0.000 A 
ATOM     21  C   UNL     1      45.363   4.337  12.648  0.00  0.00    +0.000 A 
BRANCH  16  23
ATOM     22  C   UNL     1      43.302   3.034  11.726  0.00  0.00    +0.000 C 
ATOM     23  O   UNL     1      43.942   3.950  10.846  0.00  0.00    +0.000 OA
ENDBRANCH  16  23
ENDBRANCH  14  19
ENDBRANCH   1  14
TORSDOF 5
ENDMDL
MODEL 9
REMARK VINA RESULT:    -4.994      1.275      1.642
REMARK INTER + INTRA:          -7.067
REMARK INTER:                  -6.625
REMARK INTRA:                  -0.442
REMARK UNBOUND:                -0.613
REMARK  Name = 
REMARK  7 active torsions:
REMARK  status: ('A' for Active; 'I' for Inactive)
REMARK    1  A    between atoms: C_1  and  O_2
REMARK    2  A    between atoms: O_2  and  C_3
REMARK    3  A    between atoms: C_6  and  C_7
REMARK    4  A    between atoms: C_7  and  C_8
REMARK    5  A    between atoms: C_7  and  N_9
REMARK    6  A    between atoms: N_9  and  C_10
REMARK    7  A    between atoms: C_13  and  C_14
REMARK                            x       y       z     vdW  Elec       q    Type
REMARK                         _______ _______ _______ _____ _____    ______ ____
ROOT
ATOM      1  N   UNL     1      45.065   5.585   9.822  0.00  0.00    +0.000 N 
ATOM      2  H   UNL     1      45.391   6.517   9.563  0.00  0.00    +0.000 HD
ENDROOT
BRANCH   1   3
ATOM      3  C   UNL     1      45.620   4.608   9.000  0.00  0.00    +0.000 A 
ATOM      4  C   UNL     1      45.191   3.297   8.875  0.00  0.00    +0.000 A 
ATOM      5  N   UNL     1      45.686   2.391   7.999  0.00  0.00    +0.000 NA
ATOM      6  C   UNL     1      46.662   2.847   7.179  0.00  0.00    +0.000 A 
ATOM      7  N   UNL     1      47.153   4.096   7.173  0.00  0.00    +0.000 NA
ATOM      8  C   UNL     1      46.603   4.940   8.072  0.00  0.00    +0.000 A 
BRANCH   6   9
ATOM      9  C   UNL     1      47.219   1.861   6.177  0.00  0.00    +0.000 C 
ATOM     10  N   UNL     1      47.782   2.416   5.050  0.00  0.00    +0.000 N 
ATOM     11  O   UNL     1      47.194   0.644   6.322  0.00  0.00    +0.000 OA
ATOM     12  H   UNL     1      47.820   3.423   4.943  0.00  0.00    +0.000 HD
ATOM     13  H   UNL     1      48.192   1.807   4.356  0.00  0.00    +0.000 HD
ENDBRANCH   6   9
ENDBRANCH   1   3
BRANCH   1  14
ATOM     14  C   UNL     1      44.980   5.440  11.281  0.00  0.00    +0.000 C 
ATOM     15  C   UNL     1      43.639   5.947  11.818  0.00  0.00    +0.000 C 
BRANCH  14  19
ATOM     16  C   UNL     1      48.319   7.610  13.031  0.00  0.00    +0.000 A 
ATOM     17  C   UNL     1      47.529   6.773  13.817  0.00  0.00    +0.000 A 
ATOM     18  C   UNL     1      46.443   6.089  13.254  0.00  0.00    +0.000 A 
ATOM     19  C   UNL     1      46.128   6.235  11.896  0.00  0.00    +0.000 A 
ATOM     20  C   UNL     1      46.918   7.097  11.118  0.00  0.00    +0.000 A 
ATOM     21  C   UNL     1      48.002   7.776  11.682  0.00  0.00    +0.000 A 
BRANCH  16  23
ATOM     22  C   UNL     1      50.334   7.618  14.289  0.00  0.00    +0.000 C 
ATOM     23  O   UNL     1      49.417   8.310  13.452  0.00  0.00    +0.000 OA
ENDBRANCH  16  23
ENDBRANCH  14  19
ENDBRANCH   1  14
TORSDOF 5
ENDMDL
