MODEL 1
REMARK VINA RESULT:    -7.936      0.000      0.000
REMARK INTER + INTRA:         -11.315
REMARK INTER:                 -10.720
REMARK INTRA:                  -0.596
REMARK UNBOUND:                -0.596
REMARK  Name = 
REMARK  7 active torsions:
REMARK  status: ('A' for Active; 'I' for Inactive)
REMARK    1  A    between atoms: N_1  and  C_2
REMARK    2  A    between atoms: C_2  and  C_3
REMARK    3  A    between atoms: C_3  and  C_4
REMARK    4  A    between atoms: C_7  and  C_8
REMARK    5  A    between atoms: C_8  and  N_9
REMARK    6  A    between atoms: C_14  and  C_15
REMARK    7  A    between atoms: C_15  and  O_17
REMARK                            x       y       z     vdW  Elec       q    Type
REMARK                         _______ _______ _______ _____ _____    ______ ____
ROOT
ATOM      1  C   UNL     1      44.232   5.011  11.340  0.00  0.00    +0.000 C 
ENDROOT
BRANCH   1   2
ATOM      2  N   UNL     1      45.166   4.986  12.440  0.00  0.00    +0.000 N 
ATOM      3  N   UNL     1      45.096   4.024  13.389  0.00  0.00    +0.000 NA
ATOM      4  N   UNL     1      46.111   4.215  14.228  0.00  0.00    +0.000 NA
ATOM      5  C   UNL     1      46.799   5.321  13.815  0.00  0.00    +0.000 A 
ATOM      6  C   UNL     1      47.960   5.929  14.299  0.00  0.00    +0.000 A 
ATOM      7  C   UNL     1      48.409   7.062  13.613  0.00  0.00    +0.000 A 
ATOM      8  C   UNL     1      47.697   7.515  12.497  0.00  0.00    +0.000 A 
ATOM      9  N   UNL     1      46.559   6.953  11.996  0.00  0.00    +0.000 NA
ATOM     10  C   UNL     1      46.188   5.858  12.690  0.00  0.00    +0.000 A 
BRANCH   7  11
ATOM     11  C   UNL     1      49.665   7.757  13.964  0.00  0.00    +0.000 C 
ATOM     12  O   UNL     1      49.885   8.909  13.636  0.00  0.00    +0.000 OA
BRANCH  11  13
ATOM     13  O   UNL     1      50.528   7.021  14.696  0.00  0.00    +0.000 OA
ATOM     14  H   UNL     1      51.455   7.319  14.718  0.00  0.00    +0.000 HD
ENDBRANCH  11  13
ENDBRANCH   7  11
ENDBRANCH   1   2
BRANCH   1  18
ATOM     15  C   UNL     1      45.864   3.006   7.860  0.00  0.00    +0.000 A 
ATOM     16  C   UNL     1      45.995   4.392   8.004  0.00  0.00    +0.000 A 
ATOM     17  C   UNL     1      45.455   5.040   9.120  0.00  0.00    +0.000 A 
ATOM     18  C   UNL     1      44.779   4.317  10.117  0.00  0.00    +0.000 A 
ATOM     19  C   UNL     1      44.617   2.933   9.946  0.00  0.00    +0.000 A 
ATOM     20  C   UNL     1      45.163   2.296   8.836  0.00  0.00    +0.000 A 
ATOM     21  F   UNL     1      45.003   0.971   8.709  0.00  0.00    +0.000 F 
BRANCH  15  22
ATOM     22  C   UNL     1      46.418   2.297   6.650  0.00  0.00    +0.000 C 
BRANCH  22  23
ATOM     23  C   UNL     1      47.877   1.886   6.869  0.00  0.00    +0.000 C 
BRANCH  23  24
ATOM     24  N   UNL     1      48.601   1.780   5.603  0.00  0.00    +0.000 NA
ATOM     25  H   UNL     1      48.804   0.797   5.421  0.00  0.00    +0.000 HD
ATOM     26  H   UNL     1      49.508   2.239   5.694  0.00  0.00    +0.000 HD
ENDBRANCH  23  24
ENDBRANCH  22  23
ENDBRANCH  15  22
ENDBRANCH   1  18
TORSDOF 7
ENDMDL
MODEL 2
REMARK VINA RESULT:    -7.690      3.998      6.772
REMARK INTER + INTRA:         -10.983
REMARK INTER:                 -10.408
REMARK INTRA:                  -0.575
REMARK UNBOUND:                -0.596
REMARK  Name = 
REMARK  7 active torsions:
REMARK  status: ('A' for Active; 'I' for Inactive)
REMARK    1  A    between atoms: N_1  and  C_2
REMARK    2  A    between atoms: C_2  and  C_3
REMARK    3  A    between atoms: C_3  and  C_4
REMARK    4  A    between atoms: C_7  and  C_8
REMARK    5  A    between atoms: C_8  and  N_9
REMARK    6  A    between atoms: C_14  and  C_15
REMARK    7  A    between atoms: C_15  and  O_17
REMARK                            x       y       z     vdW  Elec       q    Type
REMARK                         _______ _______ _______ _____ _____    ______ ____
ROOT
ATOM      1  C   UNL     1      43.639   5.321  10.689  0.00  0.00    +0.000 C 
ENDROOT
BRANCH   1   2
ATOM      2  N   UNL     1      44.129   4.065  10.172  0.00  0.00    +0.000 N 
ATOM      3  N   UNL     1      43.650   2.888  10.638  0.00  0.00    +0.000 NA
ATOM      4  N   UNL     1      44.231   1.916   9.940  0.00  0.00    +0.000 NA
ATOM      5  C   UNL     1      45.098   2.491   9.054  0.00  0.00    +0.000 A 
ATOM      6  C   UNL     1      45.916   1.943   8.063  0.00  0.00    +0.000 A 
ATOM      7  C   UNL     1      46.680   2.840   7.311  0.00  0.00    +0.000 A 
ATOM      8  C   UNL     1      46.584   4.211   7.573  0.00  0.00    +0.000 A 
ATOM      9  N   UNL     1      45.803   4.785   8.533  0.00  0.00    +0.000 NA
ATOM     10  C   UNL     1      45.080   3.870   9.211  0.00  0.00    +0.000 A 
BRANCH   7  11
ATOM     11  C   UNL     1      47.527   2.408   6.179  0.00  0.00    +0.000 C 
ATOM     12  O   UNL     1      48.295   1.466   6.263  0.00  0.00    +0.000 OA
BRANCH  11  13
ATOM     13  O   UNL     1      47.359   3.124   5.047  0.00  0.00    +0.000 OA
ATOM     14  H   UNL     1      48.164   3.447   4.603  0.00  0.00    +0.000 HD
ENDBRANCH  11  13
ENDBRANCH   7  11
ENDBRANCH   1   2
BRANCH   1  18
ATOM     15  C   UNL     1      46.594   7.420  13.066  0.00  0.00    +0.000 A 
ATOM     16  C   UNL     1      45.836   8.108  12.112  0.00  0.00    +0.000 A 
ATOM     17  C   UNL     1      44.893   7.426  11.335  0.00  0.00    +0.000 A 
ATOM     18  C   UNL     1      44.685   6.047  11.499  0.00  0.00    +0.000 A 
ATOM     19  C   UNL     1      45.478   5.357  12.430  0.00  0.00    +0.000 A 
ATOM     20  C   UNL     1      46.409   6.043  13.202  0.00  0.00    +0.000 A 
ATOM     21  F   UNL     1      47.140   5.358  14.092  0.00  0.00    +0.000 F 
BRANCH  15  22
ATOM     22  C   UNL     1      47.633   8.136  13.892  0.00  0.00    +0.000 C 
BRANCH  22  23
ATOM     23  C   UNL     1      49.008   8.081  13.221  0.00  0.00    +0.000 C 
BRANCH  23  24
ATOM     24  N   UNL     1      49.882   7.102  13.867  0.00  0.00    +0.000 NA
ATOM     25  H   UNL     1      49.692   6.181  13.472  0.00  0.00    +0.000 HD
ATOM     26  H   UNL     1      49.639   7.035  14.856  0.00  0.00    +0.000 HD
ENDBRANCH  23  24
ENDBRANCH  22  23
ENDBRANCH  15  22
ENDBRANCH   1  18
TORSDOF 7
ENDMDL
MODEL 3
REMARK VINA RESULT:    -7.444      1.608      2.416
REMARK INTER + INTRA:         -10.651
REMARK INTER:                 -10.319
REMARK INTRA:                  -0.333
REMARK UNBOUND:                -0.596
REMARK  Name = 
REMARK  7 active torsions:
REMARK  status: ('A' for Active; 'I' for Inactive)
REMARK    1  A    between atoms: N_1  and  C_2
REMARK    2  A    between atoms: C_2  and  C_3
REMARK    3  A    between atoms: C_3  and  C_4
REMARK    4  A    between atoms: C_7  and  C_8
REMARK    5  A    between atoms: C_8  and  N_9
REMARK    6  A    between atoms: C_14  and  C_15
REMARK    7  A    between atoms: C_15  and  O_17
REMARK                            x       y       z     vdW  Elec       q    Type
REMARK                         _______ _______ _______ _____ _____    ______ ____
ROOT
ATOM      1  C   UNL     1      44.441   5.189  11.338  0.00  0.00    +0.000 C 
ENDROOT
BRANCH   1   2
ATOM      2  N   UNL     1      45.522   5.823  12.055  0.00  0.00    +0.000 N 
ATOM      3  N   UNL     1      46.007   7.023  11.660  0.00  0.00    +0.000 NA
ATOM      4  N   UNL     1      46.940   7.385  12.538  0.00  0.00    +0.000 NA
ATOM      5  C   UNL     1      47.056   6.390  13.467  0.00  0.00    +0.000 A 
ATOM      6  C   UNL     1      47.840   6.279  14.618  0.00  0.00    +0.000 A 
ATOM      7  C   UNL     1      47.695   5.106  15.366  0.00  0.00    +0.000 A 
ATOM      8  C   UNL     1      46.788   4.129  14.942  0.00  0.00    +0.000 A 
ATOM      9  N   UNL     1      46.009   4.198  13.824  0.00  0.00    +0.000 NA
ATOM     10  C   UNL     1      46.183   5.357  13.157  0.00  0.00    +0.000 A 
BRANCH   7  11
ATOM     11  C   UNL     1      48.401   4.889  16.647  0.00  0.00    +0.000 C 
ATOM     12  O   UNL     1      49.272   4.048  16.776  0.00  0.00    +0.000 OA
BRANCH  11  13
ATOM     13  O   UNL     1      48.017   5.713  17.645  0.00  0.00    +0.000 OA
ATOM     14  H   UNL     1      47.405   5.349  18.309  0.00  0.00    +0.000 HD
ENDBRANCH  11  13
ENDBRANCH   7  11
ENDBRANCH   1   2
BRANCH   1  18
ATOM     15  C   UNL     1      45.908   3.022   7.882  0.00  0.00    +0.000 A 
ATOM     16  C   UNL     1      46.126   4.400   7.998  0.00  0.00    +0.000 A 
ATOM     17  C   UNL     1      45.639   5.101   9.107  0.00  0.00    +0.000 A 
ATOM     18  C   UNL     1      44.930   4.439  10.124  0.00  0.00    +0.000 A 
ATOM     19  C   UNL     1      44.682   3.065   9.981  0.00  0.00    +0.000 A 
ATOM     20  C   UNL     1      45.174   2.375   8.878  0.00  0.00    +0.000 A 
ATOM     21  F   UNL     1      44.931   1.061   8.778  0.00  0.00    +0.000 F 
BRANCH  15  22
ATOM     22  C   UNL     1      46.403   2.258   6.680  0.00  0.00    +0.000 C 
BRANCH  22  23
ATOM     23  C   UNL     1      47.907   1.988   6.778  0.00  0.00    +0.000 C 
BRANCH  23  24
ATOM     24  N   UNL     1      48.506   1.799   5.457  0.00  0.00    +0.000 NA
ATOM     25  H   UNL     1      47.935   1.140   4.928  0.00  0.00    +0.000 HD
ATOM     26  H   UNL     1      49.419   1.355   5.562  0.00  0.00    +0.000 HD
ENDBRANCH  23  24
ENDBRANCH  22  23
ENDBRANCH  15  22
ENDBRANCH   1  18
TORSDOF 7
ENDMDL
MODEL 4
REMARK VINA RESULT:    -6.547      5.214      8.083
REMARK INTER + INTRA:          -9.439
REMARK INTER:                  -9.258
REMARK INTRA:                  -0.181
REMARK UNBOUND:                -0.596
REMARK  Name = 
REMARK  7 active torsions:
REMARK  status: ('A' for Active; 'I' for Inactive)
REMARK    1  A    between atoms: N_1  and  C_2
REMARK    2  A    between atoms: C_2  and  C_3
REMARK    3  A    between atoms: C_3  and  C_4
REMARK    4  A    between atoms: C_7  and  C_8
REMARK    5  A    between atoms: C_8  and  N_9
REMARK    6  A    between atoms: C_14  and  C_15
REMARK    7  A    between atoms: C_15  and  O_17
REMARK                            x       y       z     vdW  Elec       q    Type
REMARK                         _______ _______ _______ _____ _____    ______ ____
ROOT
ATOM      1  C   UNL     1      47.217   4.059  16.308  0.00  0.00    +0.000 C 
ENDROOT
BRANCH   1   2
ATOM      2  N   UNL     1      47.315   4.842  15.100  0.00  0.00    +0.000 N 
ATOM      3  N   UNL     1      48.293   5.765  14.948  0.00  0.00    +0.000 NA
ATOM      4  N   UNL     1      48.174   6.276  13.725  0.00  0.00    +0.000 NA
ATOM      5  C   UNL     1      47.096   5.688  13.125  0.00  0.00    +0.000 A 
ATOM      6  C   UNL     1      46.560   5.820  11.841  0.00  0.00    +0.000 A 
ATOM      7  C   UNL     1      45.438   5.040  11.546  0.00  0.00    +0.000 A 
ATOM      8  C   UNL     1      44.924   4.180  12.521  0.00  0.00    +0.000 A 
ATOM      9  N   UNL     1      45.414   4.027  13.785  0.00  0.00    +0.000 NA
ATOM     10  C   UNL     1      46.503   4.791  14.002  0.00  0.00    +0.000 A 
BRANCH   7  11
ATOM     11  C   UNL     1      44.817   5.018  10.204  0.00  0.00    +0.000 C 
ATOM     12  O   UNL     1      43.671   4.647  10.023  0.00  0.00    +0.000 OA
BRANCH  11  13
ATOM     13  O   UNL     1      45.614   5.463   9.209  0.00  0.00    +0.000 OA
ATOM     14  H   UNL     1      46.344   6.058   9.459  0.00  0.00    +0.000 HD
ENDBRANCH  11  13
ENDBRANCH   7  11
ENDBRANCH   1   2
BRANCH   1  18
ATOM     15  C   UNL     1      51.117   2.666  17.589  0.00  0.00    +0.000 A 
ATOM     16  C   UNL     1      50.258   1.814  16.886  0.00  0.00    +0.000 A 
ATOM     17  C   UNL     1      48.993   2.260  16.486  0.00  0.00    +0.000 A 
ATOM     18  C   UNL     1      48.564   3.566  16.775  0.00  0.00    +0.000 A 
ATOM     19  C   UNL     1      49.416   4.401  17.516  0.00  0.00    +0.000 A 
ATOM     20  C   UNL     1      50.673   3.952  17.904  0.00  0.00    +0.000 A 
ATOM     21  F   UNL     1      51.468   4.778  18.599  0.00  0.00    +0.000 F 
BRANCH  15  22
ATOM     22  C   UNL     1      52.472   2.191  18.049  0.00  0.00    +0.000 C 
BRANCH  22  23
ATOM     23  C   UNL     1      52.843   0.857  17.395  0.00  0.00    +0.000 C 
BRANCH  23  24
ATOM     24  N   UNL     1      52.828  -0.238  18.364  0.00  0.00    +0.000 NA
ATOM     25  H   UNL     1      51.867  -0.558  18.485  0.00  0.00    +0.000 HD
ATOM     26  H   UNL     1      53.120   0.116  19.276  0.00  0.00    +0.000 HD
ENDBRANCH  23  24
ENDBRANCH  22  23
ENDBRANCH  15  22
ENDBRANCH   1  18
TORSDOF 7
ENDMDL
MODEL 5
REMARK VINA RESULT:    -5.909      4.325      5.908
REMARK INTER + INTRA:          -8.578
REMARK INTER:                  -8.096
REMARK INTRA:                  -0.481
REMARK UNBOUND:                -0.596
REMARK  Name = 
REMARK  7 active torsions:
REMARK  status: ('A' for Active; 'I' for Inactive)
REMARK    1  A    between atoms: N_1  and  C_2
REMARK    2  A    between atoms: C_2  and  C_3
REMARK    3  A    between atoms: C_3  and  C_4
REMARK    4  A    between atoms: C_7  and  C_8
REMARK    5  A    between atoms: C_8  and  N_9
REMARK    6  A    between atoms: C_14  and  C_15
REMARK    7  A    between atoms: C_15  and  O_17
REMARK                            x       y       z     vdW  Elec       q    Type
REMARK                         _______ _______ _______ _____ _____    ______ ____
ROOT
ATOM      1  C   UNL     1      48.612   6.672  13.782  0.00  0.00    +0.000 C 
ENDROOT
BRANCH   1   2
ATOM      2  N   UNL     1      48.657   7.045  15.175  0.00  0.00    +0.000 N 
ATOM      3  N   UNL     1      48.512   8.337  15.553  0.00  0.00    +0.000 NA
ATOM      4  N   UNL     1      48.531   8.368  16.883  0.00  0.00    +0.000 NA
ATOM      5  C   UNL     1      48.718   7.092  17.334  0.00  0.00    +0.000 A 
ATOM      6  C   UNL     1      48.766   6.558  18.625  0.00  0.00    +0.000 A 
ATOM      7  C   UNL     1      48.960   5.177  18.727  0.00  0.00    +0.000 A 
ATOM      8  C   UNL     1      49.084   4.413  17.562  0.00  0.00    +0.000 A 
ATOM      9  N   UNL     1      49.047   4.896  16.286  0.00  0.00    +0.000 NA
ATOM     10  C   UNL     1      48.841   6.228  16.255  0.00  0.00    +0.000 A 
BRANCH   7  11
ATOM     11  C   UNL     1      48.951   4.468  20.024  0.00  0.00    +0.000 C 
ATOM     12  O   UNL     1      49.429   4.953  21.034  0.00  0.00    +0.000 OA
BRANCH  11  13
ATOM     13  O   UNL     1      48.351   3.259  19.999  0.00  0.00    +0.000 OA
ATOM     14  H   UNL     1      48.915   2.488  19.808  0.00  0.00    +0.000 HD
ENDBRANCH  11  13
ENDBRANCH   7  11
ENDBRANCH   1   2
BRANCH   1  18
ATOM     15  C   UNL     1      44.690   5.187  12.687  0.00  0.00    +0.000 A 
ATOM     16  C   UNL     1      45.629   4.334  13.278  0.00  0.00    +0.000 A 
ATOM     17  C   UNL     1      46.900   4.811  13.617  0.00  0.00    +0.000 A 
ATOM     18  C   UNL     1      47.256   6.149  13.378  0.00  0.00    +0.000 A 
ATOM     19  C   UNL     1      46.322   6.987  12.749  0.00  0.00    +0.000 A 
ATOM     20  C   UNL     1      45.059   6.507  12.420  0.00  0.00    +0.000 A 
ATOM     21  F   UNL     1      44.186   7.336  11.832  0.00  0.00    +0.000 F 
BRANCH  15  22
ATOM     22  C   UNL     1      43.325   4.681  12.292  0.00  0.00    +0.000 C 
BRANCH  22  23
ATOM     23  C   UNL     1      43.425   3.622  11.191  0.00  0.00    +0.000 C 
BRANCH  23  24
ATOM     24  N   UNL     1      43.046   2.298  11.684  0.00  0.00    +0.000 NA
ATOM     25  H   UNL     1      43.887   1.726  11.772  0.00  0.00    +0.000 HD
ATOM     26  H   UNL     1      42.466   1.832  10.985  0.00  0.00    +0.000 HD
ENDBRANCH  23  24
ENDBRANCH  22  23
ENDBRANCH  15  22
ENDBRANCH   1  18
TORSDOF 7
ENDMDL
MODEL 6
REMARK VINA RESULT:    -5.895      3.477      4.618
REMARK INTER + INTRA:          -8.558
REMARK INTER:                  -8.982
REMARK INTRA:                   0.424
REMARK UNBOUND:                -0.596
REMARK  Name = 
REMARK  7 active torsions:
REMARK  status: ('A' for Active; 'I' for Inactive)
REMARK    1  A    between atoms: N_1  and  C_2
REMARK    2  A    between atoms: C_2  and  C_3
REMARK    3  A    between atoms: C_3  and  C_4
REMARK    4  A    between atoms: C_7  and  C_8
REMARK    5  A    between atoms: C_8  and  N_9
REMARK    6  A    between atoms: C_14  and  C_15
REMARK    7  A    between atoms: C_15  and  O_17
REMARK                            x       y       z     vdW  Elec       q    Type
REMARK                         _______ _______ _______ _____ _____    ______ ____
ROOT
ATOM      1  C   UNL     1      47.472   5.919  13.902  0.00  0.00    +0.000 C 
ENDROOT
BRANCH   1   2
ATOM      2  N   UNL     1      47.659   4.855  14.860  0.00  0.00    +0.000 N 
ATOM      3  N   UNL     1      47.596   3.558  14.479  0.00  0.00    +0.000 NA
ATOM      4  N   UNL     1      47.870   2.814  15.548  0.00  0.00    +0.000 NA
ATOM      5  C   UNL     1      48.076   3.654  16.606  0.00  0.00    +0.000 A 
ATOM      6  C   UNL     1      48.437   3.407  17.933  0.00  0.00    +0.000 A 
ATOM      7  C   UNL     1      48.581   4.522  18.763  0.00  0.00    +0.000 A 
ATOM      8  C   UNL     1      48.371   5.801  18.237  0.00  0.00    +0.000 A 
ATOM      9  N   UNL     1      48.014   6.084  16.951  0.00  0.00    +0.000 NA
ATOM     10  C   UNL     1      47.907   4.970  16.199  0.00  0.00    +0.000 A 
BRANCH   7  11
ATOM     11  C   UNL     1      49.037   4.415  20.166  0.00  0.00    +0.000 C 
ATOM     12  O   UNL     1      49.973   5.064  20.597  0.00  0.00    +0.000 OA
BRANCH  11  13
ATOM     13  O   UNL     1      48.318   3.563  20.926  0.00  0.00    +0.000 OA
ATOM     14  H   UNL     1      48.722   3.265  21.761  0.00  0.00    +0.000 HD
ENDBRANCH  11  13
ENDBRANCH   7  11
ENDBRANCH   1   2
BRANCH   1  18
ATOM     15  C   UNL     1      44.888   4.705  10.640  0.00  0.00    +0.000 A 
ATOM     16  C   UNL     1      45.736   5.809  10.497  0.00  0.00    +0.000 A 
ATOM     17  C   UNL     1      46.559   6.209  11.556  0.00  0.00    +0.000 A 
ATOM     18  C   UNL     1      46.555   5.512  12.776  0.00  0.00    +0.000 A 
ATOM     19  C   UNL     1      45.672   4.430  12.925  0.00  0.00    +0.000 A 
ATOM     20  C   UNL     1      44.862   4.036  11.865  0.00  0.00    +0.000 A 
ATOM     21  F   UNL     1      44.040   2.991  12.035  0.00  0.00    +0.000 F 
BRANCH  15  22
ATOM     22  C   UNL     1      43.976   4.278   9.518  0.00  0.00    +0.000 C 
BRANCH  22  23
ATOM     23  C   UNL     1      44.635   3.205   8.647  0.00  0.00    +0.000 C 
BRANCH  23  24
ATOM     24  N   UNL     1      45.406   3.797   7.555  0.00  0.00    +0.000 NA
ATOM     25  H   UNL     1      46.069   3.105   7.206  0.00  0.00    +0.000 HD
ATOM     26  H   UNL     1      45.971   4.564   7.919  0.00  0.00    +0.000 HD
ENDBRANCH  23  24
ENDBRANCH  22  23
ENDBRANCH  15  22
ENDBRANCH   1  18
TORSDOF 7
ENDMDL
MODEL 7
REMARK VINA RESULT:    -5.877      4.340      6.898
REMARK INTER + INTRA:          -8.534
REMARK INTER:                  -7.920
REMARK INTRA:                  -0.614
REMARK UNBOUND:                -0.596
REMARK  Name = 
REMARK  7 active torsions:
REMARK  status: ('A' for Active; 'I' for Inactive)
REMARK    1  A    between atoms: N_1  and  C_2
REMARK    2  A    between atoms: C_2  and  C_3
REMARK    3  A    between atoms: C_3  and  C_4
REMARK    4  A    between atoms: C_7  and  C_8
REMARK    5  A    between atoms: C_8  and  N_9
REMARK    6  A    between atoms: C_14  and  C_15
REMARK    7  A    between atoms: C_15  and  O_17
REMARK                            x       y       z     vdW  Elec       q    Type
REMARK                         _______ _______ _______ _____ _____    ______ ____
ROOT
ATOM      1  C   UNL     1      47.528   7.717  13.583  0.00  0.00    +0.000 C 
ENDROOT
BRANCH   1   2
ATOM      2  N   UNL     1      47.247   6.301  13.582  0.00  0.00    +0.000 N 
ATOM      3  N   UNL     1      47.809   5.480  14.500  0.00  0.00    +0.000 NA
ATOM      4  N   UNL     1      47.321   4.259  14.297  0.00  0.00    +0.000 NA
ATOM      5  C   UNL     1      46.474   4.315  13.226  0.00  0.00    +0.000 A 
ATOM      6  C   UNL     1      45.669   3.344  12.625  0.00  0.00    +0.000 A 
ATOM      7  C   UNL     1      44.897   3.756  11.534  0.00  0.00    +0.000 A 
ATOM      8  C   UNL     1      44.958   5.088  11.113  0.00  0.00    +0.000 A 
ATOM      9  N   UNL     1      45.733   6.064  11.669  0.00  0.00    +0.000 NA
ATOM     10  C   UNL     1      46.439   5.609  12.724  0.00  0.00    +0.000 A 
BRANCH   7  11
ATOM     11  C   UNL     1      43.941   2.856  10.853  0.00  0.00    +0.000 C 
ATOM     12  O   UNL     1      43.926   2.717   9.644  0.00  0.00    +0.000 OA
BRANCH  11  13
ATOM     13  O   UNL     1      43.110   2.190  11.683  0.00  0.00    +0.000 OA
ATOM     14  H   UNL     1      43.507   1.780  12.472  0.00  0.00    +0.000 HD
ENDBRANCH  11  13
ENDBRANCH   7  11
ENDBRANCH   1   2
BRANCH   1  18
ATOM     15  C   UNL     1      51.547   8.527  12.174  0.00  0.00    +0.000 A 
ATOM     16  C   UNL     1      51.106   9.053  13.393  0.00  0.00    +0.000 A 
ATOM     17  C   UNL     1      49.803   8.803  13.840  0.00  0.00    +0.000 A 
ATOM     18  C   UNL     1      48.918   8.019  13.081  0.00  0.00    +0.000 A 
ATOM     19  C   UNL     1      49.356   7.528  11.841  0.00  0.00    +0.000 A 
ATOM     20  C   UNL     1      50.654   7.776  11.407  0.00  0.00    +0.000 A 
ATOM     21  F   UNL     1      51.045   7.282  10.224  0.00  0.00    +0.000 F 
BRANCH  15  22
ATOM     22  C   UNL     1      52.939   8.809  11.667  0.00  0.00    +0.000 C 
BRANCH  22  23
ATOM     23  C   UNL     1      53.959   7.854  12.291  0.00  0.00    +0.000 C 
BRANCH  23  24
ATOM     24  N   UNL     1      54.167   6.670  11.458  0.00  0.00    +0.000 NA
ATOM     25  H   UNL     1      53.695   6.810  10.564  0.00  0.00    +0.000 HD
ATOM     26  H   UNL     1      53.709   5.868  11.892  0.00  0.00    +0.000 HD
ENDBRANCH  23  24
ENDBRANCH  22  23
ENDBRANCH  15  22
ENDBRANCH   1  18
TORSDOF 7
ENDMDL
MODEL 8
REMARK VINA RESULT:    -5.749      5.040      8.826
REMARK INTER + INTRA:          -8.361
REMARK INTER:                  -8.027
REMARK INTRA:                  -0.334
REMARK UNBOUND:                -0.596
REMARK  Name = 
REMARK  7 active torsions:
REMARK  status: ('A' for Active; 'I' for Inactive)
REMARK    1  A    between atoms: N_1  and  C_2
REMARK    2  A    between atoms: C_2  and  C_3
REMARK    3  A    between atoms: C_3  and  C_4
REMARK    4  A    between atoms: C_7  and  C_8
REMARK    5  A    between atoms: C_8  and  N_9
REMARK    6  A    between atoms: C_14  and  C_15
REMARK    7  A    between atoms: C_15  and  O_17
REMARK                            x       y       z     vdW  Elec       q    Type
REMARK                         _______ _______ _______ _____ _____    ______ ____
ROOT
ATOM      1  C   UNL     1      47.533   3.407  15.705  0.00  0.00    +0.000 C 
ENDROOT
BRANCH   1   2
ATOM      2  N   UNL     1      47.332   4.441  14.717  0.00  0.00    +0.000 N 
ATOM      3  N   UNL     1      47.952   5.639  14.830  0.00  0.00    +0.000 NA
ATOM      4  N   UNL     1      47.635   6.356  13.755  0.00  0.00    +0.000 NA
ATOM      5  C   UNL     1      46.788   5.610  12.984  0.00  0.00    +0.000 A 
ATOM      6  C   UNL     1      46.198   5.859  11.743  0.00  0.00    +0.000 A 
ATOM      7  C   UNL     1      45.381   4.851  11.222  0.00  0.00    +0.000 A 
ATOM      8  C   UNL     1      45.205   3.667  11.946  0.00  0.00    +0.000 A 
ATOM      9  N   UNL     1      45.758   3.388  13.161  0.00  0.00    +0.000 NA
ATOM     10  C   UNL     1      46.547   4.390  13.601  0.00  0.00    +0.000 A 
BRANCH   7  11
ATOM     11  C   UNL     1      44.758   4.945   9.884  0.00  0.00    +0.000 C 
ATOM     12  O   UNL     1      45.400   4.817   8.857  0.00  0.00    +0.000 OA
BRANCH  11  13
ATOM     13  O   UNL     1      43.425   5.157   9.899  0.00  0.00    +0.000 OA
ATOM     14  H   UNL     1      42.920   4.754  10.628  0.00  0.00    +0.000 HD
ENDBRANCH  11  13
ENDBRANCH   7  11
ENDBRANCH   1   2
BRANCH   1  18
ATOM     15  C   UNL     1      49.046   5.059  19.416  0.00  0.00    +0.000 A 
ATOM     16  C   UNL     1      49.878   4.293  18.592  0.00  0.00    +0.000 A 
ATOM     17  C   UNL     1      49.384   3.747  17.401  0.00  0.00    +0.000 A 
ATOM     18  C   UNL     1      48.052   3.961  17.008  0.00  0.00    +0.000 A 
ATOM     19  C   UNL     1      47.214   4.698  17.860  0.00  0.00    +0.000 A 
ATOM     20  C   UNL     1      47.715   5.241  19.038  0.00  0.00    +0.000 A 
ATOM     21  F   UNL     1      46.891   5.950  19.823  0.00  0.00    +0.000 F 
BRANCH  15  22
ATOM     22  C   UNL     1      49.557   5.631  20.714  0.00  0.00    +0.000 C 
BRANCH  22  23
ATOM     23  C   UNL     1      50.097   7.050  20.519  0.00  0.00    +0.000 C 
BRANCH  23  24
ATOM     24  N   UNL     1      49.127   8.058  20.944  0.00  0.00    +0.000 NA
ATOM     25  H   UNL     1      48.259   7.590  21.205  0.00  0.00    +0.000 HD
ATOM     26  H   UNL     1      48.893   8.656  20.151  0.00  0.00    +0.000 HD
ENDBRANCH  23  24
ENDBRANCH  22  23
ENDBRANCH  15  22
ENDBRANCH   1  18
TORSDOF 7
ENDMDL
MODEL 9
REMARK VINA RESULT:    -5.385      4.746      7.052
REMARK INTER + INTRA:          -7.869
REMARK INTER:                  -7.312
REMARK INTRA:                  -0.557
REMARK UNBOUND:                -0.596
REMARK  Name = 
REMARK  7 active torsions:
REMARK  status: ('A' for Active; 'I' for Inactive)
REMARK    1  A    between atoms: N_1  and  C_2
REMARK    2  A    between atoms: C_2  and  C_3
REMARK    3  A    between atoms: C_3  and  C_4
REMARK    4  A    between atoms: C_7  and  C_8
REMARK    5  A    between atoms: C_8  and  N_9
REMARK    6  A    between atoms: C_14  and  C_15
REMARK    7  A    between atoms: C_15  and  O_17
REMARK                            x       y       z     vdW  Elec       q    Type
REMARK                         _______ _______ _______ _____ _____    ______ ____
ROOT
ATOM      1  C   UNL     1      47.185   7.854  13.656  0.00  0.00    +0.000 C 
ENDROOT
BRANCH   1   2
ATOM      2  N   UNL     1      46.076   7.506  12.800  0.00  0.00    +0.000 N 
ATOM      3  N   UNL     1      45.375   8.463  12.148  0.00  0.00    +0.000 NA
ATOM      4  N   UNL     1      44.467   7.848  11.394  0.00  0.00    +0.000 NA
ATOM      5  C   UNL     1      44.585   6.503  11.601  0.00  0.00    +0.000 A 
ATOM      6  C   UNL     1      43.921   5.412  11.034  0.00  0.00    +0.000 A 
ATOM      7  C   UNL     1      44.310   4.142  11.472  0.00  0.00    +0.000 A 
ATOM      8  C   UNL     1      45.326   4.027  12.426  0.00  0.00    +0.000 A 
ATOM      9  N   UNL     1      45.995   5.065  13.007  0.00  0.00    +0.000 NA
ATOM     10  C   UNL     1      45.586   6.259  12.531  0.00  0.00    +0.000 A 
BRANCH   7  11
ATOM     11  C   UNL     1      43.751   2.899  10.900  0.00  0.00    +0.000 C 
ATOM     12  O   UNL     1      44.011   2.528   9.770  0.00  0.00    +0.000 OA
BRANCH  11  13
ATOM     13  O   UNL     1      42.954   2.204  11.740  0.00  0.00    +0.000 OA
ATOM     14  H   UNL     1      42.383   2.720  12.337  0.00  0.00    +0.000 HD
ENDBRANCH  11  13
ENDBRANCH   7  11
ENDBRANCH   1   2
BRANCH   1  18
ATOM     15  C   UNL     1      50.615   9.128  11.331  0.00  0.00    +0.000 A 
ATOM     16  C   UNL     1      50.301   7.769  11.442  0.00  0.00    +0.000 A 
ATOM     17  C   UNL     1      49.203   7.358  12.206  0.00  0.00    +0.000 A 
ATOM     18  C   UNL     1      48.393   8.295  12.867  0.00  0.00    +0.000 A 
ATOM     19  C   UNL     1      48.737   9.654  12.783  0.00  0.00    +0.000 A 
ATOM     20  C   UNL     1      49.827  10.054  12.017  0.00  0.00    +0.000 A 
ATOM     21  F   UNL     1      50.122  11.360  11.946  0.00  0.00    +0.000 F 
BRANCH  15  22
ATOM     22  C   UNL     1      51.810   9.584  10.534  0.00  0.00    +0.000 C 
BRANCH  22  23
ATOM     23  C   UNL     1      52.740   8.411  10.211  0.00  0.00    +0.000 C 
BRANCH  23  24
ATOM     24  N   UNL     1      52.851   8.195   8.769  0.00  0.00    +0.000 NA
ATOM     25  H   UNL     1      53.203   9.048   8.334  0.00  0.00    +0.000 HD
ATOM     26  H   UNL     1      51.920   8.047   8.378  0.00  0.00    +0.000 HD
ENDBRANCH  23  24
ENDBRANCH  22  23
ENDBRANCH  15  22
ENDBRANCH   1  18
TORSDOF 7
ENDMDL
