MODEL 1
REMARK VINA RESULT:    -8.596      0.000      0.000
REMARK INTER + INTRA:         -12.050
REMARK INTER:                 -11.108
REMARK INTRA:                  -0.942
REMARK UNBOUND:                -0.942
REMARK  Name = 
REMARK  6 active torsions:
REMARK  status: ('A' for Active; 'I' for Inactive)
REMARK    1  A    between atoms: C_1  and  C_2
REMARK    2  A    between atoms: C_4  and  C_5
REMARK    3  A    between atoms: C_10  and  C_11
REMARK    4  A    between atoms: C_11  and  N_12
REMARK    5  A    between atoms: N_12  and  C_13
REMARK    6  A    between atoms: C_16  and  C_17
REMARK                            x       y       z     vdW  Elec       q    Type
REMARK                         _______ _______ _______ _____ _____    ______ ____
ROOT
ATOM      1  C   UNL     1      43.645   5.167  11.261  0.00  0.00    +0.000 C 
ATOM      2  C   UNL     1      42.361   5.505  11.995  0.00  0.00    +0.000 C 
ATOM      3  C   UNL     1      42.855   4.104  12.012  0.00  0.00    +0.000 C 
ENDROOT
BRANCH   1  10
ATOM      4  C   UNL     1      45.908   3.752  12.801  0.00  0.00    +0.000 C 
ATOM      5  C   UNL     1      46.001   5.190  12.369  0.00  0.00    +0.000 A 
ATOM      6  C   UNL     1      47.233   5.861  12.510  0.00  0.00    +0.000 A 
ATOM      7  C   UNL     1      47.398   7.192  12.095  0.00  0.00    +0.000 A 
ATOM      8  C   UNL     1      46.293   7.887  11.622  0.00  0.00    +0.000 A 
ATOM      9  C   UNL     1      45.069   7.229  11.484  0.00  0.00    +0.000 A 
ATOM     10  C   UNL     1      44.905   5.857  11.780  0.00  0.00    +0.000 A 
BRANCH   7  11
ATOM     11  C   UNL     1      48.764   7.786  12.139  0.00  0.00    +0.000 C 
ATOM     12  N   UNL     1      49.780   7.053  12.690  0.00  0.00    +0.000 N 
ATOM     13  O   UNL     1      48.984   8.916  11.722  0.00  0.00    +0.000 OA
ATOM     14  H   UNL     1      49.680   6.152  13.129  0.00  0.00    +0.000 HD
ATOM     15  H   UNL     1      50.681   7.510  12.759  0.00  0.00    +0.000 HD
ENDBRANCH   7  11
ENDBRANCH   1  10
BRANCH   1  16
ATOM     16  N   UNL     1      43.768   4.805   9.841  0.00  0.00    +0.000 N 
ATOM     17  H   UNL     1      42.877   4.562   9.416  0.00  0.00    +0.000 HD
BRANCH  16  18
ATOM     18  C   UNL     1      44.823   4.129   9.204  0.00  0.00    +0.000 A 
ATOM     19  C   UNL     1      45.724   4.708   8.313  0.00  0.00    +0.000 A 
ATOM     20  C   UNL     1      46.624   3.908   7.590  0.00  0.00    +0.000 A 
ATOM     21  C   UNL     1      46.608   2.514   7.728  0.00  0.00    +0.000 A 
ATOM     22  C   UNL     1      45.720   1.929   8.626  0.00  0.00    +0.000 A 
ATOM     23  C   UNL     1      44.846   2.732   9.357  0.00  0.00    +0.000 A 
BRANCH  21  24
ATOM     24  C   UNL     1      47.461   1.689   6.832  0.00  0.00    +0.000 C 
ATOM     25  N   UNL     1      48.560   2.283   6.276  0.00  0.00    +0.000 N 
ATOM     26  O   UNL     1      47.193   0.520   6.595  0.00  0.00    +0.000 OA
ATOM     27  H   UNL     1      48.720   3.278   6.276  0.00  0.00    +0.000 HD
ATOM     28  H   UNL     1      49.121   1.711   5.658  0.00  0.00    +0.000 HD
ENDBRANCH  21  24
ENDBRANCH  16  18
ENDBRANCH   1  16
TORSDOF 5
ENDMDL
MODEL 2
REMARK VINA RESULT:    -8.493      1.340      2.205
REMARK INTER + INTRA:         -11.917
REMARK INTER:                 -11.347
REMARK INTRA:                  -0.570
REMARK UNBOUND:                -0.942
REMARK  Name = 
REMARK  6 active torsions:
REMARK  status: ('A' for Active; 'I' for Inactive)
REMARK    1  A    between atoms: C_1  and  C_2
REMARK    2  A    between atoms: C_4  and  C_5
REMARK    3  A    between atoms: C_10  and  C_11
REMARK    4  A    between atoms: C_11  and  N_12
REMARK    5  A    between atoms: N_12  and  C_13
REMARK    6  A    between atoms: C_16  and  C_17
REMARK                            x       y       z     vdW  Elec       q    Type
REMARK                         _______ _______ _______ _____ _____    ______ ____
ROOT
ATOM      1  C   UNL     1      43.862   4.877  11.538  0.00  0.00    +0.000 C 
ATOM      2  C   UNL     1      42.665   5.177  12.421  0.00  0.00    +0.000 C 
ATOM      3  C   UNL     1      42.983   3.764  12.092  0.00  0.00    +0.000 C 
ENDROOT
BRANCH   1  10
ATOM      4  C   UNL     1      45.028   7.725  11.385  0.00  0.00    +0.000 C 
ATOM      5  C   UNL     1      45.699   6.616  12.151  0.00  0.00    +0.000 A 
ATOM      6  C   UNL     1      46.799   6.931  12.975  0.00  0.00    +0.000 A 
ATOM      7  C   UNL     1      47.448   5.952  13.743  0.00  0.00    +0.000 A 
ATOM      8  C   UNL     1      47.053   4.627  13.610  0.00  0.00    +0.000 A 
ATOM      9  C   UNL     1      45.968   4.308  12.792  0.00  0.00    +0.000 A 
ATOM     10  C   UNL     1      45.220   5.289  12.102  0.00  0.00    +0.000 A 
BRANCH   7  11
ATOM     11  C   UNL     1      48.504   6.385  14.701  0.00  0.00    +0.000 C 
ATOM     12  N   UNL     1      48.262   6.262  16.043  0.00  0.00    +0.000 N 
ATOM     13  O   UNL     1      49.560   6.869  14.313  0.00  0.00    +0.000 OA
ATOM     14  H   UNL     1      47.398   5.951  16.455  0.00  0.00    +0.000 HD
ATOM     15  H   UNL     1      48.976   6.621  16.664  0.00  0.00    +0.000 HD
ENDBRANCH   7  11
ENDBRANCH   1  10
BRANCH   1  16
ATOM     16  N   UNL     1      43.871   4.837  10.068  0.00  0.00    +0.000 N 
ATOM     17  H   UNL     1      42.963   5.045   9.661  0.00  0.00    +0.000 HD
BRANCH  16  18
ATOM     18  C   UNL     1      44.612   3.989   9.226  0.00  0.00    +0.000 A 
ATOM     19  C   UNL     1      44.650   2.599   9.320  0.00  0.00    +0.000 A 
ATOM     20  C   UNL     1      45.563   1.858   8.553  0.00  0.00    +0.000 A 
ATOM     21  C   UNL     1      46.472   2.506   7.706  0.00  0.00    +0.000 A 
ATOM     22  C   UNL     1      46.432   3.893   7.596  0.00  0.00    +0.000 A 
ATOM     23  C   UNL     1      45.506   4.619   8.343  0.00  0.00    +0.000 A 
BRANCH  21  24
ATOM     24  C   UNL     1      47.528   1.705   7.033  0.00  0.00    +0.000 C 
ATOM     25  N   UNL     1      48.552   2.382   6.430  0.00  0.00    +0.000 N 
ATOM     26  O   UNL     1      47.489   0.484   7.013  0.00  0.00    +0.000 OA
ATOM     27  H   UNL     1      48.537   3.373   6.245  0.00  0.00    +0.000 HD
ATOM     28  H   UNL     1      49.255   1.823   5.965  0.00  0.00    +0.000 HD
ENDBRANCH  21  24
ENDBRANCH  16  18
ENDBRANCH   1  16
TORSDOF 5
ENDMDL
MODEL 3
REMARK VINA RESULT:    -6.937      2.142      6.754
REMARK INTER + INTRA:          -9.906
REMARK INTER:                  -9.734
REMARK INTRA:                  -0.173
REMARK UNBOUND:                -0.942
REMARK  Name = 
REMARK  6 active torsions:
REMARK  status: ('A' for Active; 'I' for Inactive)
REMARK    1  A    between atoms: C_1  and  C_2
REMARK    2  A    between atoms: C_4  and  C_5
REMARK    3  A    between atoms: C_10  and  C_11
REMARK    4  A    between atoms: C_11  and  N_12
REMARK    5  A    between atoms: N_12  and  C_13
REMARK    6  A    between atoms: C_16  and  C_17
REMARK                            x       y       z     vdW  Elec       q    Type
REMARK                         _______ _______ _______ _____ _____    ______ ____
ROOT
ATOM      1  C   UNL     1      44.348   4.213  11.199  0.00  0.00    +0.000 C 
ATOM      2  C   UNL     1      43.509   3.242  12.010  0.00  0.00    +0.000 C 
ATOM      3  C   UNL     1      42.875   4.478  11.481  0.00  0.00    +0.000 C 
ENDROOT
BRANCH   1  10
ATOM      4  C   UNL     1      45.896   5.887   9.126  0.00  0.00    +0.000 C 
ATOM      5  C   UNL     1      45.728   4.397   9.000  0.00  0.00    +0.000 A 
ATOM      6  C   UNL     1      46.455   3.716   8.001  0.00  0.00    +0.000 A 
ATOM      7  C   UNL     1      46.372   2.323   7.851  0.00  0.00    +0.000 A 
ATOM      8  C   UNL     1      45.480   1.616   8.647  0.00  0.00    +0.000 A 
ATOM      9  C   UNL     1      44.754   2.285   9.634  0.00  0.00    +0.000 A 
ATOM     10  C   UNL     1      44.908   3.667   9.887  0.00  0.00    +0.000 A 
BRANCH   7  11
ATOM     11  C   UNL     1      47.280   1.658   6.874  0.00  0.00    +0.000 C 
ATOM     12  N   UNL     1      48.302   2.386   6.329  0.00  0.00    +0.000 N 
ATOM     13  O   UNL     1      47.110   0.494   6.533  0.00  0.00    +0.000 OA
ATOM     14  H   UNL     1      48.471   3.366   6.487  0.00  0.00    +0.000 HD
ATOM     15  H   UNL     1      48.862   1.922   5.624  0.00  0.00    +0.000 HD
ENDBRANCH   7  11
ENDBRANCH   1  10
BRANCH   1  16
ATOM     16  N   UNL     1      45.175   5.306  11.733  0.00  0.00    +0.000 N 
ATOM     17  H   UNL     1      45.465   5.968  11.019  0.00  0.00    +0.000 HD
BRANCH  16  18
ATOM     18  C   UNL     1      46.117   5.253  12.775  0.00  0.00    +0.000 A 
ATOM     19  C   UNL     1      46.158   4.280  13.771  0.00  0.00    +0.000 A 
ATOM     20  C   UNL     1      47.021   4.421  14.869  0.00  0.00    +0.000 A 
ATOM     21  C   UNL     1      47.832   5.557  14.997  0.00  0.00    +0.000 A 
ATOM     22  C   UNL     1      47.807   6.527  13.999  0.00  0.00    +0.000 A 
ATOM     23  C   UNL     1      46.964   6.368  12.901  0.00  0.00    +0.000 A 
BRANCH  21  24
ATOM     24  C   UNL     1      48.612   5.751  16.248  0.00  0.00    +0.000 C 
ATOM     25  N   UNL     1      47.948   6.224  17.345  0.00  0.00    +0.000 N 
ATOM     26  O   UNL     1      49.807   5.499  16.300  0.00  0.00    +0.000 OA
ATOM     27  H   UNL     1      47.025   6.629  17.311  0.00  0.00    +0.000 HD
ATOM     28  H   UNL     1      48.497   6.363  18.184  0.00  0.00    +0.000 HD
ENDBRANCH  21  24
ENDBRANCH  16  18
ENDBRANCH   1  16
TORSDOF 5
ENDMDL
MODEL 4
REMARK VINA RESULT:    -6.562      1.619      5.779
REMARK INTER + INTRA:          -9.421
REMARK INTER:                  -8.786
REMARK INTRA:                  -0.636
REMARK UNBOUND:                -0.942
REMARK  Name = 
REMARK  6 active torsions:
REMARK  status: ('A' for Active; 'I' for Inactive)
REMARK    1  A    between atoms: C_1  and  C_2
REMARK    2  A    between atoms: C_4  and  C_5
REMARK    3  A    between atoms: C_10  and  C_11
REMARK    4  A    between atoms: C_11  and  N_12
REMARK    5  A    between atoms: N_12  and  C_13
REMARK    6  A    between atoms: C_16  and  C_17
REMARK                            x       y       z     vdW  Elec       q    Type
REMARK                         _______ _______ _______ _____ _____    ______ ____
ROOT
ATOM      1  C   UNL     1      43.744   5.783  11.773  0.00  0.00    +0.000 C 
ATOM      2  C   UNL     1      42.242   5.561  11.760  0.00  0.00    +0.000 C 
ATOM      3  C   UNL     1      42.786   6.855  11.271  0.00  0.00    +0.000 C 
ENDROOT
BRANCH   1  10
ATOM      4  C   UNL     1      43.632   2.706  11.909  0.00  0.00    +0.000 C 
ATOM      5  C   UNL     1      44.412   3.441  10.853  0.00  0.00    +0.000 A 
ATOM      6  C   UNL     1      44.961   2.706   9.782  0.00  0.00    +0.000 A 
ATOM      7  C   UNL     1      45.669   3.332   8.745  0.00  0.00    +0.000 A 
ATOM      8  C   UNL     1      45.913   4.696   8.831  0.00  0.00    +0.000 A 
ATOM      9  C   UNL     1      45.376   5.429   9.891  0.00  0.00    +0.000 A 
ATOM     10  C   UNL     1      44.557   4.844  10.883  0.00  0.00    +0.000 A 
BRANCH   7  11
ATOM     11  C   UNL     1      46.091   2.511   7.575  0.00  0.00    +0.000 C 
ATOM     12  N   UNL     1      46.535   1.235   7.795  0.00  0.00    +0.000 N 
ATOM     13  O   UNL     1      46.073   2.963   6.437  0.00  0.00    +0.000 OA
ATOM     14  H   UNL     1      46.660   0.807   8.698  0.00  0.00    +0.000 HD
ATOM     15  H   UNL     1      46.870   0.728   6.985  0.00  0.00    +0.000 HD
ENDBRANCH   7  11
ENDBRANCH   1  10
BRANCH   1  16
ATOM     16  N   UNL     1      44.539   6.294  12.899  0.00  0.00    +0.000 N 
ATOM     17  H   UNL     1      43.979   6.792  13.585  0.00  0.00    +0.000 HD
BRANCH  16  18
ATOM     18  C   UNL     1      45.857   6.784  12.881  0.00  0.00    +0.000 A 
ATOM     19  C   UNL     1      46.255   7.993  12.313  0.00  0.00    +0.000 A 
ATOM     20  C   UNL     1      47.617   8.304  12.183  0.00  0.00    +0.000 A 
ATOM     21  C   UNL     1      48.599   7.391  12.591  0.00  0.00    +0.000 A 
ATOM     22  C   UNL     1      48.210   6.186  13.171  0.00  0.00    +0.000 A 
ATOM     23  C   UNL     1      46.855   5.896  13.318  0.00  0.00    +0.000 A 
BRANCH  21  24
ATOM     24  C   UNL     1      50.026   7.682  12.292  0.00  0.00    +0.000 C 
ATOM     25  N   UNL     1      50.880   7.830  13.350  0.00  0.00    +0.000 N 
ATOM     26  O   UNL     1      50.429   7.788  11.143  0.00  0.00    +0.000 OA
ATOM     27  H   UNL     1      50.575   7.947  14.304  0.00  0.00    +0.000 HD
ATOM     28  H   UNL     1      51.844   8.041  13.130  0.00  0.00    +0.000 HD
ENDBRANCH  21  24
ENDBRANCH  16  18
ENDBRANCH   1  16
TORSDOF 5
ENDMDL
MODEL 5
REMARK VINA RESULT:    -5.992      3.782      5.797
REMARK INTER + INTRA:          -8.685
REMARK INTER:                  -8.604
REMARK INTRA:                  -0.082
REMARK UNBOUND:                -0.942
REMARK  Name = 
REMARK  6 active torsions:
REMARK  status: ('A' for Active; 'I' for Inactive)
REMARK    1  A    between atoms: C_1  and  C_2
REMARK    2  A    between atoms: C_4  and  C_5
REMARK    3  A    between atoms: C_10  and  C_11
REMARK    4  A    between atoms: C_11  and  N_12
REMARK    5  A    between atoms: N_12  and  C_13
REMARK    6  A    between atoms: C_16  and  C_17
REMARK                            x       y       z     vdW  Elec       q    Type
REMARK                         _______ _______ _______ _____ _____    ______ ____
ROOT
ATOM      1  C   UNL     1      48.016   7.505  13.830  0.00  0.00    +0.000 C 
ATOM      2  C   UNL     1      49.231   7.827  12.979  0.00  0.00    +0.000 C 
ATOM      3  C   UNL     1      48.716   8.854  13.923  0.00  0.00    +0.000 C 
ENDROOT
BRANCH   1  10
ATOM      4  C   UNL     1      49.375   7.753  16.584  0.00  0.00    +0.000 C 
ATOM      5  C   UNL     1      48.690   6.492  16.131  0.00  0.00    +0.000 A 
ATOM      6  C   UNL     1      48.503   5.450  17.063  0.00  0.00    +0.000 A 
ATOM      7  C   UNL     1      47.842   4.262  16.716  0.00  0.00    +0.000 A 
ATOM      8  C   UNL     1      47.448   4.076  15.398  0.00  0.00    +0.000 A 
ATOM      9  C   UNL     1      47.635   5.102  14.469  0.00  0.00    +0.000 A 
ATOM     10  C   UNL     1      48.188   6.354  14.819  0.00  0.00    +0.000 A 
BRANCH   7  11
ATOM     11  C   UNL     1      47.552   3.271  17.790  0.00  0.00    +0.000 C 
ATOM     12  N   UNL     1      48.408   3.188  18.855  0.00  0.00    +0.000 N 
ATOM     13  O   UNL     1      46.588   2.518  17.723  0.00  0.00    +0.000 OA
ATOM     14  H   UNL     1      49.265   3.707  18.958  0.00  0.00    +0.000 HD
ATOM     15  H   UNL     1      48.214   2.463  19.535  0.00  0.00    +0.000 HD
ENDBRANCH   7  11
ENDBRANCH   1  10
BRANCH   1  16
ATOM     16  N   UNL     1      46.608   7.686  13.442  0.00  0.00    +0.000 N 
ATOM     17  H   UNL     1      46.033   8.050  14.197  0.00  0.00    +0.000 HD
BRANCH  16  18
ATOM     18  C   UNL     1      45.840   6.898  12.567  0.00  0.00    +0.000 A 
ATOM     19  C   UNL     1      44.672   6.222  12.912  0.00  0.00    +0.000 A 
ATOM     20  C   UNL     1      44.083   5.316  12.017  0.00  0.00    +0.000 A 
ATOM     21  C   UNL     1      44.677   5.051  10.777  0.00  0.00    +0.000 A 
ATOM     22  C   UNL     1      45.838   5.732  10.418  0.00  0.00    +0.000 A 
ATOM     23  C   UNL     1      46.402   6.648  11.303  0.00  0.00    +0.000 A 
BRANCH  21  24
ATOM     24  C   UNL     1      44.118   3.969   9.923  0.00  0.00    +0.000 C 
ATOM     25  N   UNL     1      44.139   4.154   8.568  0.00  0.00    +0.000 N 
ATOM     26  O   UNL     1      43.652   2.949  10.408  0.00  0.00    +0.000 OA
ATOM     27  H   UNL     1      44.325   5.041   8.125  0.00  0.00    +0.000 HD
ATOM     28  H   UNL     1      43.742   3.415   8.002  0.00  0.00    +0.000 HD
ENDBRANCH  21  24
ENDBRANCH  16  18
ENDBRANCH   1  16
TORSDOF 5
ENDMDL
MODEL 6
REMARK VINA RESULT:    -5.738      4.569      6.428
REMARK INTER + INTRA:          -8.357
REMARK INTER:                  -7.525
REMARK INTRA:                  -0.831
REMARK UNBOUND:                -0.942
REMARK  Name = 
REMARK  6 active torsions:
REMARK  status: ('A' for Active; 'I' for Inactive)
REMARK    1  A    between atoms: C_1  and  C_2
REMARK    2  A    between atoms: C_4  and  C_5
REMARK    3  A    between atoms: C_10  and  C_11
REMARK    4  A    between atoms: C_11  and  N_12
REMARK    5  A    between atoms: N_12  and  C_13
REMARK    6  A    between atoms: C_16  and  C_17
REMARK                            x       y       z     vdW  Elec       q    Type
REMARK                         _______ _______ _______ _____ _____    ______ ____
ROOT
ATOM      1  C   UNL     1      48.548   7.521  14.474  0.00  0.00    +0.000 C 
ATOM      2  C   UNL     1      49.785   7.413  13.601  0.00  0.00    +0.000 C 
ATOM      3  C   UNL     1      49.184   8.750  13.840  0.00  0.00    +0.000 C 
ENDROOT
BRANCH   1  10
ATOM      4  C   UNL     1      48.124   9.360  16.909  0.00  0.00    +0.000 C 
ATOM      5  C   UNL     1      48.406   7.888  17.047  0.00  0.00    +0.000 A 
ATOM      6  C   UNL     1      48.293   7.293  18.320  0.00  0.00    +0.000 A 
ATOM      7  C   UNL     1      48.507   5.920  18.513  0.00  0.00    +0.000 A 
ATOM      8  C   UNL     1      48.934   5.152  17.437  0.00  0.00    +0.000 A 
ATOM      9  C   UNL     1      49.052   5.736  16.174  0.00  0.00    +0.000 A 
ATOM     10  C   UNL     1      48.726   7.089  15.928  0.00  0.00    +0.000 A 
BRANCH   7  11
ATOM     11  C   UNL     1      48.225   5.337  19.855  0.00  0.00    +0.000 C 
ATOM     12  N   UNL     1      48.609   4.047  20.104  0.00  0.00    +0.000 N 
ATOM     13  O   UNL     1      47.636   5.976  20.718  0.00  0.00    +0.000 OA
ATOM     14  H   UNL     1      49.025   3.421  19.434  0.00  0.00    +0.000 HD
ATOM     15  H   UNL     1      48.348   3.664  21.004  0.00  0.00    +0.000 HD
ENDBRANCH   7  11
ENDBRANCH   1  10
BRANCH   1  16
ATOM     16  N   UNL     1      47.154   7.380  14.029  0.00  0.00    +0.000 N 
ATOM     17  H   UNL     1      46.481   7.623  14.751  0.00  0.00    +0.000 HD
BRANCH  16  18
ATOM     18  C   UNL     1      46.614   6.426  13.148  0.00  0.00    +0.000 A 
ATOM     19  C   UNL     1      46.128   6.697  11.871  0.00  0.00    +0.000 A 
ATOM     20  C   UNL     1      45.442   5.711  11.146  0.00  0.00    +0.000 A 
ATOM     21  C   UNL     1      45.206   4.449  11.706  0.00  0.00    +0.000 A 
ATOM     22  C   UNL     1      45.700   4.165  12.977  0.00  0.00    +0.000 A 
ATOM     23  C   UNL     1      46.401   5.142  13.680  0.00  0.00    +0.000 A 
BRANCH  21  24
ATOM     24  C   UNL     1      44.339   3.484  10.978  0.00  0.00    +0.000 C 
ATOM     25  N   UNL     1      44.953   2.503  10.249  0.00  0.00    +0.000 N 
ATOM     26  O   UNL     1      43.121   3.561  11.024  0.00  0.00    +0.000 OA
ATOM     27  H   UNL     1      45.934   2.507  10.017  0.00  0.00    +0.000 HD
ATOM     28  H   UNL     1      44.349   1.864   9.749  0.00  0.00    +0.000 HD
ENDBRANCH  21  24
ENDBRANCH  16  18
ENDBRANCH   1  16
TORSDOF 5
ENDMDL
MODEL 7
REMARK VINA RESULT:    -5.666      4.215      7.915
REMARK INTER + INTRA:          -8.264
REMARK INTER:                  -8.158
REMARK INTRA:                  -0.106
REMARK UNBOUND:                -0.942
REMARK  Name = 
REMARK  6 active torsions:
REMARK  status: ('A' for Active; 'I' for Inactive)
REMARK    1  A    between atoms: C_1  and  C_2
REMARK    2  A    between atoms: C_4  and  C_5
REMARK    3  A    between atoms: C_10  and  C_11
REMARK    4  A    between atoms: C_11  and  N_12
REMARK    5  A    between atoms: N_12  and  C_13
REMARK    6  A    between atoms: C_16  and  C_17
REMARK                            x       y       z     vdW  Elec       q    Type
REMARK                         _______ _______ _______ _____ _____    ______ ____
ROOT
ATOM      1  C   UNL     1      48.011   7.175  13.419  0.00  0.00    +0.000 C 
ATOM      2  C   UNL     1      48.350   8.007  12.196  0.00  0.00    +0.000 C 
ATOM      3  C   UNL     1      49.306   6.962  12.648  0.00  0.00    +0.000 C 
ENDROOT
BRANCH   1  10
ATOM      4  C   UNL     1      45.200   8.230  12.725  0.00  0.00    +0.000 C 
ATOM      5  C   UNL     1      45.503   6.762  12.854  0.00  0.00    +0.000 A 
ATOM      6  C   UNL     1      44.518   5.830  12.467  0.00  0.00    +0.000 A 
ATOM      7  C   UNL     1      44.748   4.447  12.529  0.00  0.00    +0.000 A 
ATOM      8  C   UNL     1      45.941   3.990  13.073  0.00  0.00    +0.000 A 
ATOM      9  C   UNL     1      46.919   4.908  13.462  0.00  0.00    +0.000 A 
ATOM     10  C   UNL     1      46.762   6.303  13.299  0.00  0.00    +0.000 A 
BRANCH   7  11
ATOM     11  C   UNL     1      43.718   3.529  11.965  0.00  0.00    +0.000 C 
ATOM     12  N   UNL     1      43.696   2.228  12.390  0.00  0.00    +0.000 N 
ATOM     13  O   UNL     1      42.920   3.907  11.116  0.00  0.00    +0.000 OA
ATOM     14  H   UNL     1      44.359   1.808  13.021  0.00  0.00    +0.000 HD
ATOM     15  H   UNL     1      43.023   1.619  11.942  0.00  0.00    +0.000 HD
ENDBRANCH   7  11
ENDBRANCH   1  10
BRANCH   1  16
ATOM     16  N   UNL     1      48.300   7.523  14.818  0.00  0.00    +0.000 N 
ATOM     17  H   UNL     1      48.408   8.524  14.963  0.00  0.00    +0.000 HD
BRANCH  16  18
ATOM     18  C   UNL     1      49.059   6.801  15.755  0.00  0.00    +0.000 A 
ATOM     19  C   UNL     1      50.434   6.927  15.941  0.00  0.00    +0.000 A 
ATOM     20  C   UNL     1      51.125   6.030  16.771  0.00  0.00    +0.000 A 
ATOM     21  C   UNL     1      50.451   4.973  17.397  0.00  0.00    +0.000 A 
ATOM     22  C   UNL     1      49.074   4.848  17.226  0.00  0.00    +0.000 A 
ATOM     23  C   UNL     1      48.392   5.758  16.421  0.00  0.00    +0.000 A 
BRANCH  21  24
ATOM     24  C   UNL     1      51.237   3.950  18.136  0.00  0.00    +0.000 C 
ATOM     25  N   UNL     1      50.994   2.635  17.851  0.00  0.00    +0.000 N 
ATOM     26  O   UNL     1      52.071   4.266  18.971  0.00  0.00    +0.000 OA
ATOM     27  H   UNL     1      50.196   2.312  17.326  0.00  0.00    +0.000 HD
ATOM     28  H   UNL     1      51.528   1.951  18.372  0.00  0.00    +0.000 HD
ENDBRANCH  21  24
ENDBRANCH  16  18
ENDBRANCH   1  16
TORSDOF 5
ENDMDL
