MODEL 1
REMARK VINA RESULT:    -8.886      0.000      0.000
REMARK INTER + INTRA:         -12.777
REMARK INTER:                 -12.003
REMARK INTRA:                  -0.774
REMARK UNBOUND:                -0.774
REMARK  Name = 
REMARK  6 active torsions:
REMARK  status: ('A' for Active; 'I' for Inactive)
REMARK    1  A    between atoms: C_2  and  C_25
REMARK    2  A    between atoms: N_3  and  C_4
REMARK    3  A    between atoms: C_4  and  C_5
REMARK    4  A    between atoms: C_8  and  C_9
REMARK    5  A    between atoms: C_9  and  N_10
REMARK    6  A    between atoms: C_11  and  C_13
REMARK                            x       y       z     vdW  Elec       q    Type
REMARK                         _______ _______ _______ _____ _____    ______ ____
ROOT
ATOM      1  C   UNL     1      43.261   4.174  11.577  0.00  0.00    +0.000 C 
ATOM      2  C   UNL     1      44.134   3.030  12.104  0.00  0.00    +0.000 C 
ATOM      3  C   UNL     1      45.548   3.486  12.449  0.00  0.00    +0.000 C 
ATOM      4  C   UNL     1      45.573   4.659  13.444  0.00  0.00    +0.000 C 
ATOM      5  C   UNL     1      44.659   5.801  12.970  0.00  0.00    +0.000 C 
ATOM      6  C   UNL     1      43.253   5.311  12.613  0.00  0.00    +0.000 C 
ENDROOT
BRANCH   1   7
ATOM      7  C   UNL     1      43.717   4.686  10.197  0.00  0.00    +0.000 C 
BRANCH   7  10
ATOM      8  O   UNL     1      45.880   5.205   8.451  0.00  0.00    +0.000 OA
ATOM      9  C   UNL     1      45.505   4.046   8.613  0.00  0.00    +0.000 C 
ATOM     10  N   UNL     1      44.457   3.708   9.435  0.00  0.00    +0.000 N 
ATOM     11  H   UNL     1      44.318   2.733   9.657  0.00  0.00    +0.000 HD
BRANCH   9  12
ATOM     12  C   UNL     1      46.149   2.925   7.966  0.00  0.00    +0.000 A 
ATOM     13  C   UNL     1      46.978   2.863   6.853  0.00  0.00    +0.000 A 
ATOM     14  C   UNL     1      47.345   1.513   6.650  0.00  0.00    +0.000 A 
ATOM     15  C   UNL     1      46.740   0.773   7.638  0.00  0.00    +0.000 A 
ATOM     16  N   UNL     1      46.020   1.631   8.428  0.00  0.00    +0.000 N 
ATOM     17  H   UNL     1      45.463   1.373   9.235  0.00  0.00    +0.000 HD
ENDBRANCH   9  12
ENDBRANCH   7  10
ENDBRANCH   1   7
BRANCH   4  18
ATOM     18  C   UNL     1      47.004   5.189  13.658  0.00  0.00    +0.000 C 
BRANCH  18  19
ATOM     19  N   UNL     1      47.287   5.515  15.039  0.00  0.00    +0.000 N 
ATOM     20  C   UNL     1      48.455   6.146  15.398  0.00  0.00    +0.000 C 
ATOM     21  O   UNL     1      49.285   6.510  14.569  0.00  0.00    +0.000 OA
ATOM     22  H   UNL     1      46.801   4.992  15.760  0.00  0.00    +0.000 HD
BRANCH  20  23
ATOM     23  C   UNL     1      48.624   6.425  16.829  0.00  0.00    +0.000 A 
ATOM     24  C   UNL     1      48.873   7.723  17.251  0.00  0.00    +0.000 A 
ATOM     25  S   UNL     1      48.999   7.876  18.946  0.00  0.00    +0.000 S 
ATOM     26  C   UNL     1      48.776   6.205  19.170  0.00  0.00    +0.000 A 
ATOM     27  N   UNL     1      48.803   5.652  20.410  0.00  0.00    +0.000 NA
ATOM     28  C   UNL     1      48.646   4.370  20.432  0.00  0.00    +0.000 A 
ATOM     29  N   UNL     1      48.457   3.588  19.318  0.00  0.00    +0.000 N 
ATOM     30  C   UNL     1      48.411   4.110  18.051  0.00  0.00    +0.000 A 
ATOM     31  O   UNL     1      48.218   3.389  17.075  0.00  0.00    +0.000 OA
ATOM     32  C   UNL     1      48.586   5.543  17.970  0.00  0.00    +0.000 A 
ATOM     33  H   UNL     1      48.335   2.592  19.401  0.00  0.00    +0.000 HD
ENDBRANCH  20  23
ENDBRANCH  18  19
ENDBRANCH   4  18
TORSDOF 6
ENDMDL
MODEL 2
REMARK VINA RESULT:    -8.705      1.316      2.049
REMARK INTER + INTRA:         -12.532
REMARK INTER:                 -11.789
REMARK INTRA:                  -0.744
REMARK UNBOUND:                -0.774
REMARK  Name = 
REMARK  6 active torsions:
REMARK  status: ('A' for Active; 'I' for Inactive)
REMARK    1  A    between atoms: C_2  and  C_25
REMARK    2  A    between atoms: N_3  and  C_4
REMARK    3  A    between atoms: C_4  and  C_5
REMARK    4  A    between atoms: C_8  and  C_9
REMARK    5  A    between atoms: C_9  and  N_10
REMARK    6  A    between atoms: C_11  and  C_13
REMARK                            x       y       z     vdW  Elec       q    Type
REMARK                         _______ _______ _______ _____ _____    ______ ____
ROOT
ATOM      1  C   UNL     1      43.045   4.225  11.534  0.00  0.00    +0.000 C 
ATOM      2  C   UNL     1      43.836   2.987  11.969  0.00  0.00    +0.000 C 
ATOM      3  C   UNL     1      45.303   3.300  12.244  0.00  0.00    +0.000 C 
ATOM      4  C   UNL     1      45.494   4.426  13.274  0.00  0.00    +0.000 C 
ATOM      5  C   UNL     1      44.664   5.663  12.894  0.00  0.00    +0.000 C 
ATOM      6  C   UNL     1      43.201   5.317  12.606  0.00  0.00    +0.000 C 
ENDROOT
BRANCH   1   7
ATOM      7  C   UNL     1      43.467   4.748  10.148  0.00  0.00    +0.000 C 
BRANCH   7  10
ATOM      8  O   UNL     1      45.834   5.245   8.684  0.00  0.00    +0.000 OA
ATOM      9  C   UNL     1      45.364   4.110   8.695  0.00  0.00    +0.000 C 
ATOM     10  N   UNL     1      44.214   3.785   9.372  0.00  0.00    +0.000 N 
ATOM     11  H   UNL     1      43.984   2.808   9.484  0.00  0.00    +0.000 HD
BRANCH   9  12
ATOM     12  C   UNL     1      45.994   3.003   8.011  0.00  0.00    +0.000 A 
ATOM     13  C   UNL     1      46.706   2.950   6.820  0.00  0.00    +0.000 A 
ATOM     14  C   UNL     1      47.117   1.613   6.611  0.00  0.00    +0.000 A 
ATOM     15  C   UNL     1      46.655   0.873   7.672  0.00  0.00    +0.000 A 
ATOM     16  N   UNL     1      45.977   1.717   8.513  0.00  0.00    +0.000 N 
ATOM     17  H   UNL     1      45.520   1.457   9.379  0.00  0.00    +0.000 HD
ENDBRANCH   9  12
ENDBRANCH   7  10
ENDBRANCH   1   7
BRANCH   4  18
ATOM     18  C   UNL     1      46.977   4.815  13.419  0.00  0.00    +0.000 C 
BRANCH  18  19
ATOM     19  N   UNL     1      47.298   5.350  14.725  0.00  0.00    +0.000 N 
ATOM     20  C   UNL     1      47.601   4.522  15.780  0.00  0.00    +0.000 C 
ATOM     21  O   UNL     1      47.666   3.302  15.658  0.00  0.00    +0.000 OA
ATOM     22  H   UNL     1      46.977   6.287  14.947  0.00  0.00    +0.000 HD
BRANCH  20  23
ATOM     23  C   UNL     1      47.911   5.185  17.053  0.00  0.00    +0.000 A 
ATOM     24  C   UNL     1      47.168   4.883  18.184  0.00  0.00    +0.000 A 
ATOM     25  S   UNL     1      47.690   5.708  19.584  0.00  0.00    +0.000 S 
ATOM     26  C   UNL     1      48.896   6.535  18.714  0.00  0.00    +0.000 A 
ATOM     27  N   UNL     1      49.704   7.442  19.322  0.00  0.00    +0.000 NA
ATOM     28  C   UNL     1      50.556   8.014  18.538  0.00  0.00    +0.000 A 
ATOM     29  N   UNL     1      50.678   7.754  17.195  0.00  0.00    +0.000 N 
ATOM     30  C   UNL     1      49.890   6.838  16.548  0.00  0.00    +0.000 A 
ATOM     31  O   UNL     1      50.036   6.610  15.349  0.00  0.00    +0.000 OA
ATOM     32  C   UNL     1      48.913   6.171  17.380  0.00  0.00    +0.000 A 
ATOM     33  H   UNL     1      51.368   8.230  16.637  0.00  0.00    +0.000 HD
ENDBRANCH  20  23
ENDBRANCH  18  19
ENDBRANCH   4  18
TORSDOF 6
ENDMDL
MODEL 3
REMARK VINA RESULT:    -7.935      3.727      5.329
REMARK INTER + INTRA:         -11.492
REMARK INTER:                 -10.646
REMARK INTRA:                  -0.847
REMARK UNBOUND:                -0.774
REMARK  Name = 
REMARK  6 active torsions:
REMARK  status: ('A' for Active; 'I' for Inactive)
REMARK    1  A    between atoms: C_2  and  C_25
REMARK    2  A    between atoms: N_3  and  C_4
REMARK    3  A    between atoms: C_4  and  C_5
REMARK    4  A    between atoms: C_8  and  C_9
REMARK    5  A    between atoms: C_9  and  N_10
REMARK    6  A    between atoms: C_11  and  C_13
REMARK                            x       y       z     vdW  Elec       q    Type
REMARK                         _______ _______ _______ _____ _____    ______ ____
ROOT
ATOM      1  C   UNL     1      43.188   4.132  11.331  0.00  0.00    +0.000 C 
ATOM      2  C   UNL     1      44.145   3.091  11.922  0.00  0.00    +0.000 C 
ATOM      3  C   UNL     1      45.475   3.700  12.351  0.00  0.00    +0.000 C 
ATOM      4  C   UNL     1      45.310   4.870  13.336  0.00  0.00    +0.000 C 
ATOM      5  C   UNL     1      44.309   5.904  12.794  0.00  0.00    +0.000 C 
ATOM      6  C   UNL     1      42.991   5.263  12.354  0.00  0.00    +0.000 C 
ENDROOT
BRANCH   1   7
ATOM      7  C   UNL     1      43.672   4.688   9.978  0.00  0.00    +0.000 C 
BRANCH   7  10
ATOM      8  O   UNL     1      46.036   5.306   8.555  0.00  0.00    +0.000 OA
ATOM      9  C   UNL     1      45.635   4.145   8.575  0.00  0.00    +0.000 C 
ATOM     10  N   UNL     1      44.492   3.761   9.234  0.00  0.00    +0.000 N 
ATOM     11  H   UNL     1      44.320   2.774   9.357  0.00  0.00    +0.000 HD
BRANCH   9  12
ATOM     12  C   UNL     1      46.345   3.068   7.922  0.00  0.00    +0.000 A 
ATOM     13  C   UNL     1      46.246   1.690   8.062  0.00  0.00    +0.000 A 
ATOM     14  C   UNL     1      47.165   1.088   7.172  0.00  0.00    +0.000 A 
ATOM     15  C   UNL     1      47.808   2.102   6.503  0.00  0.00    +0.000 A 
ATOM     16  N   UNL     1      47.309   3.294   6.960  0.00  0.00    +0.000 N 
ATOM     17  H   UNL     1      47.594   4.216   6.653  0.00  0.00    +0.000 HD
ENDBRANCH   9  12
ENDBRANCH   7  10
ENDBRANCH   1   7
BRANCH   4  18
ATOM     18  C   UNL     1      46.658   5.553  13.634  0.00  0.00    +0.000 C 
BRANCH  18  19
ATOM     19  N   UNL     1      46.835   6.796  12.913  0.00  0.00    +0.000 N 
ATOM     20  C   UNL     1      47.729   7.748  13.343  0.00  0.00    +0.000 C 
ATOM     21  O   UNL     1      48.454   7.574  14.319  0.00  0.00    +0.000 OA
ATOM     22  H   UNL     1      46.082   7.105  12.307  0.00  0.00    +0.000 HD
BRANCH  20  23
ATOM     23  C   UNL     1      47.819   8.964  12.526  0.00  0.00    +0.000 A 
ATOM     24  C   UNL     1      46.692   9.751  12.336  0.00  0.00    +0.000 A 
ATOM     25  S   UNL     1      46.984  11.147  11.400  0.00  0.00    +0.000 S 
ATOM     26  C   UNL     1      48.616  10.722  11.174  0.00  0.00    +0.000 A 
ATOM     27  N   UNL     1      49.445  11.492  10.423  0.00  0.00    +0.000 NA
ATOM     28  C   UNL     1      50.649  11.038  10.314  0.00  0.00    +0.000 A 
ATOM     29  N   UNL     1      51.102   9.880  10.896  0.00  0.00    +0.000 N 
ATOM     30  C   UNL     1      50.301   9.082  11.670  0.00  0.00    +0.000 A 
ATOM     31  O   UNL     1      50.739   8.062  12.197  0.00  0.00    +0.000 OA
ATOM     32  C   UNL     1      48.938   9.543  11.821  0.00  0.00    +0.000 A 
ATOM     33  H   UNL     1      52.057   9.581  10.778  0.00  0.00    +0.000 HD
ENDBRANCH  20  23
ENDBRANCH  18  19
ENDBRANCH   4  18
TORSDOF 6
ENDMDL
MODEL 4
REMARK VINA RESULT:    -7.846      3.375      8.358
REMARK INTER + INTRA:         -11.372
REMARK INTER:                 -10.352
REMARK INTRA:                  -1.020
REMARK UNBOUND:                -0.774
REMARK  Name = 
REMARK  6 active torsions:
REMARK  status: ('A' for Active; 'I' for Inactive)
REMARK    1  A    between atoms: C_2  and  C_25
REMARK    2  A    between atoms: N_3  and  C_4
REMARK    3  A    between atoms: C_4  and  C_5
REMARK    4  A    between atoms: C_8  and  C_9
REMARK    5  A    between atoms: C_9  and  N_10
REMARK    6  A    between atoms: C_11  and  C_13
REMARK                            x       y       z     vdW  Elec       q    Type
REMARK                         _______ _______ _______ _____ _____    ______ ____
ROOT
ATOM      1  C   UNL     1      48.738   4.548  19.058  0.00  0.00    +0.000 C 
ATOM      2  C   UNL     1      49.976   5.438  18.902  0.00  0.00    +0.000 C 
ATOM      3  C   UNL     1      50.138   5.966  17.481  0.00  0.00    +0.000 C 
ATOM      4  C   UNL     1      48.893   6.715  16.973  0.00  0.00    +0.000 C 
ATOM      5  C   UNL     1      47.626   5.867  17.171  0.00  0.00    +0.000 C 
ATOM      6  C   UNL     1      47.499   5.335  18.601  0.00  0.00    +0.000 C 
ENDROOT
BRANCH   1   7
ATOM      7  C   UNL     1      48.860   3.216  18.294  0.00  0.00    +0.000 C 
BRANCH   7  10
ATOM      8  O   UNL     1      50.062   1.713  16.222  0.00  0.00    +0.000 OA
ATOM      9  C   UNL     1      50.708   1.957  17.238  0.00  0.00    +0.000 C 
ATOM     10  N   UNL     1      50.198   2.671  18.295  0.00  0.00    +0.000 N 
ATOM     11  H   UNL     1      50.834   2.983  19.014  0.00  0.00    +0.000 HD
BRANCH   9  12
ATOM     12  C   UNL     1      52.079   1.530  17.406  0.00  0.00    +0.000 A 
ATOM     13  C   UNL     1      53.166   2.156  18.003  0.00  0.00    +0.000 A 
ATOM     14  C   UNL     1      54.281   1.292  17.906  0.00  0.00    +0.000 A 
ATOM     15  C   UNL     1      53.862   0.157  17.256  0.00  0.00    +0.000 A 
ATOM     16  N   UNL     1      52.533   0.306  16.957  0.00  0.00    +0.000 N 
ATOM     17  H   UNL     1      51.951  -0.368  16.474  0.00  0.00    +0.000 HD
ENDBRANCH   9  12
ENDBRANCH   7  10
ENDBRANCH   1   7
BRANCH   4  18
ATOM     18  C   UNL     1      49.035   7.106  15.490  0.00  0.00    +0.000 C 
BRANCH  18  19
ATOM     19  N   UNL     1      47.832   6.861  14.722  0.00  0.00    +0.000 N 
ATOM     20  C   UNL     1      47.894   6.425  13.420  0.00  0.00    +0.000 C 
ATOM     21  O   UNL     1      48.959   6.172  12.863  0.00  0.00    +0.000 OA
ATOM     22  H   UNL     1      46.978   7.322  15.018  0.00  0.00    +0.000 HD
BRANCH  20  23
ATOM     23  C   UNL     1      46.607   6.211  12.749  0.00  0.00    +0.000 A 
ATOM     24  C   UNL     1      45.943   7.286  12.175  0.00  0.00    +0.000 A 
ATOM     25  S   UNL     1      44.486   6.853  11.400  0.00  0.00    +0.000 S 
ATOM     26  C   UNL     1      44.667   5.222  11.848  0.00  0.00    +0.000 A 
ATOM     27  N   UNL     1      43.730   4.295  11.519  0.00  0.00    +0.000 NA
ATOM     28  C   UNL     1      43.981   3.102  11.945  0.00  0.00    +0.000 A 
ATOM     29  N   UNL     1      45.095   2.750  12.668  0.00  0.00    +0.000 N 
ATOM     30  C   UNL     1      46.068   3.653  13.009  0.00  0.00    +0.000 A 
ATOM     31  O   UNL     1      47.064   3.305  13.637  0.00  0.00    +0.000 OA
ATOM     32  C   UNL     1      45.833   5.008  12.560  0.00  0.00    +0.000 A 
ATOM     33  H   UNL     1      45.238   1.799  12.967  0.00  0.00    +0.000 HD
ENDBRANCH  20  23
ENDBRANCH  18  19
ENDBRANCH   4  18
TORSDOF 6
ENDMDL
MODEL 5
REMARK VINA RESULT:    -7.676      2.317      3.159
REMARK INTER + INTRA:         -11.142
REMARK INTER:                 -10.128
REMARK INTRA:                  -1.014
REMARK UNBOUND:                -0.774
REMARK  Name = 
REMARK  6 active torsions:
REMARK  status: ('A' for Active; 'I' for Inactive)
REMARK    1  A    between atoms: C_2  and  C_25
REMARK    2  A    between atoms: N_3  and  C_4
REMARK    3  A    between atoms: C_4  and  C_5
REMARK    4  A    between atoms: C_8  and  C_9
REMARK    5  A    between atoms: C_9  and  N_10
REMARK    6  A    between atoms: C_11  and  C_13
REMARK                            x       y       z     vdW  Elec       q    Type
REMARK                         _______ _______ _______ _____ _____    ______ ____
ROOT
ATOM      1  C   UNL     1      43.785   3.658  11.855  0.00  0.00    +0.000 C 
ATOM      2  C   UNL     1      45.250   3.381  12.210  0.00  0.00    +0.000 C 
ATOM      3  C   UNL     1      46.098   4.649  12.214  0.00  0.00    +0.000 C 
ATOM      4  C   UNL     1      45.538   5.742  13.140  0.00  0.00    +0.000 C 
ATOM      5  C   UNL     1      44.051   6.000  12.846  0.00  0.00    +0.000 C 
ATOM      6  C   UNL     1      43.228   4.710  12.830  0.00  0.00    +0.000 C 
ENDROOT
BRANCH   1   7
ATOM      7  C   UNL     1      43.598   4.106  10.393  0.00  0.00    +0.000 C 
BRANCH   7  10
ATOM      8  O   UNL     1      45.605   5.135   8.688  0.00  0.00    +0.000 OA
ATOM      9  C   UNL     1      45.359   3.932   8.666  0.00  0.00    +0.000 C 
ATOM     10  N   UNL     1      44.395   3.351   9.453  0.00  0.00    +0.000 N 
ATOM     11  H   UNL     1      44.368   2.344   9.513  0.00  0.00    +0.000 HD
BRANCH   9  12
ATOM     12  C   UNL     1      46.081   3.009   7.819  0.00  0.00    +0.000 A 
ATOM     13  C   UNL     1      46.644   3.171   6.559  0.00  0.00    +0.000 A 
ATOM     14  C   UNL     1      47.249   1.948   6.186  0.00  0.00    +0.000 A 
ATOM     15  C   UNL     1      47.050   1.063   7.217  0.00  0.00    +0.000 A 
ATOM     16  N   UNL     1      46.345   1.708   8.200  0.00  0.00    +0.000 N 
ATOM     17  H   UNL     1      46.047   1.308   9.081  0.00  0.00    +0.000 HD
ENDBRANCH   9  12
ENDBRANCH   7  10
ENDBRANCH   1   7
BRANCH   4  18
ATOM     18  C   UNL     1      46.333   7.055  13.010  0.00  0.00    +0.000 C 
BRANCH  18  19
ATOM     19  N   UNL     1      47.141   7.346  14.175  0.00  0.00    +0.000 N 
ATOM     20  C   UNL     1      48.442   6.911  14.267  0.00  0.00    +0.000 C 
ATOM     21  O   UNL     1      48.997   6.305  13.355  0.00  0.00    +0.000 OA
ATOM     22  H   UNL     1      46.662   7.567  15.042  0.00  0.00    +0.000 HD
BRANCH  20  23
ATOM     23  C   UNL     1      49.157   7.271  15.497  0.00  0.00    +0.000 A 
ATOM     24  C   UNL     1      49.574   6.275  16.368  0.00  0.00    +0.000 A 
ATOM     25  S   UNL     1      50.428   6.865  17.722  0.00  0.00    +0.000 S 
ATOM     26  C   UNL     1      50.227   8.477  17.216  0.00  0.00    +0.000 A 
ATOM     27  N   UNL     1      50.705   9.511  17.956  0.00  0.00    +0.000 NA
ATOM     28  C   UNL     1      50.459  10.681  17.468  0.00  0.00    +0.000 A 
ATOM     29  N   UNL     1      49.779  10.911  16.297  0.00  0.00    +0.000 N 
ATOM     30  C   UNL     1      49.292   9.895  15.516  0.00  0.00    +0.000 A 
ATOM     31  O   UNL     1      48.707  10.130  14.462  0.00  0.00    +0.000 OA
ATOM     32  C   UNL     1      49.537   8.562  16.021  0.00  0.00    +0.000 A 
ATOM     33  H   UNL     1      49.624  11.849  15.965  0.00  0.00    +0.000 HD
ENDBRANCH  20  23
ENDBRANCH  18  19
ENDBRANCH   4  18
TORSDOF 6
ENDMDL
MODEL 6
REMARK VINA RESULT:    -7.402      3.870      5.645
REMARK INTER + INTRA:         -10.773
REMARK INTER:                  -9.958
REMARK INTRA:                  -0.815
REMARK UNBOUND:                -0.774
REMARK  Name = 
REMARK  6 active torsions:
REMARK  status: ('A' for Active; 'I' for Inactive)
REMARK    1  A    between atoms: C_2  and  C_25
REMARK    2  A    between atoms: N_3  and  C_4
REMARK    3  A    between atoms: C_4  and  C_5
REMARK    4  A    between atoms: C_8  and  C_9
REMARK    5  A    between atoms: C_9  and  N_10
REMARK    6  A    between atoms: C_11  and  C_13
REMARK                            x       y       z     vdW  Elec       q    Type
REMARK                         _______ _______ _______ _____ _____    ______ ____
ROOT
ATOM      1  C   UNL     1      46.784   7.625  11.792  0.00  0.00    +0.000 C 
ATOM      2  C   UNL     1      48.090   7.047  12.348  0.00  0.00    +0.000 C 
ATOM      3  C   UNL     1      47.866   6.200  13.596  0.00  0.00    +0.000 C 
ATOM      4  C   UNL     1      46.849   5.066  13.377  0.00  0.00    +0.000 C 
ATOM      5  C   UNL     1      45.548   5.609  12.764  0.00  0.00    +0.000 C 
ATOM      6  C   UNL     1      45.803   6.471  11.525  0.00  0.00    +0.000 C 
ENDROOT
BRANCH   1   7
ATOM      7  C   UNL     1      46.155   8.682  12.720  0.00  0.00    +0.000 C 
BRANCH   7  10
ATOM      8  O   UNL     1      45.346  11.209  11.742  0.00  0.00    +0.000 OA
ATOM      9  C   UNL     1      44.511  10.317  11.858  0.00  0.00    +0.000 C 
ATOM     10  N   UNL     1      44.816   9.064  12.334  0.00  0.00    +0.000 N 
ATOM     11  H   UNL     1      44.126   8.334  12.236  0.00  0.00    +0.000 HD
BRANCH   9  12
ATOM     12  C   UNL     1      43.126  10.497  11.483  0.00  0.00    +0.000 A 
ATOM     13  C   UNL     1      42.432  10.124  10.339  0.00  0.00    +0.000 A 
ATOM     14  C   UNL     1      41.086  10.532  10.487  0.00  0.00    +0.000 A 
ATOM     15  C   UNL     1      40.978  11.144  11.712  0.00  0.00    +0.000 A 
ATOM     16  N   UNL     1      42.212  11.120  12.308  0.00  0.00    +0.000 N 
ATOM     17  H   UNL     1      42.442  11.502  13.218  0.00  0.00    +0.000 HD
ENDBRANCH   9  12
ENDBRANCH   7  10
ENDBRANCH   1   7
BRANCH   4  18
ATOM     18  C   UNL     1      46.539   4.324  14.691  0.00  0.00    +0.000 C 
BRANCH  18  19
ATOM     19  N   UNL     1      47.382   4.742  15.791  0.00  0.00    +0.000 N 
ATOM     20  C   UNL     1      47.310   4.127  17.018  0.00  0.00    +0.000 C 
ATOM     21  O   UNL     1      46.575   3.166  17.228  0.00  0.00    +0.000 OA
ATOM     22  H   UNL     1      47.768   5.680  15.763  0.00  0.00    +0.000 HD
BRANCH  20  23
ATOM     23  C   UNL     1      48.218   4.640  18.051  0.00  0.00    +0.000 A 
ATOM     24  C   UNL     1      47.786   5.639  18.912  0.00  0.00    +0.000 A 
ATOM     25  S   UNL     1      48.950   6.085  20.078  0.00  0.00    +0.000 S 
ATOM     26  C   UNL     1      50.088   4.993  19.440  0.00  0.00    +0.000 A 
ATOM     27  N   UNL     1      51.336   4.892  19.968  0.00  0.00    +0.000 NA
ATOM     28  C   UNL     1      52.105   4.044  19.371  0.00  0.00    +0.000 A 
ATOM     29  N   UNL     1      51.735   3.279  18.291  0.00  0.00    +0.000 N 
ATOM     30  C   UNL     1      50.482   3.344  17.738  0.00  0.00    +0.000 A 
ATOM     31  O   UNL     1      50.171   2.632  16.787  0.00  0.00    +0.000 OA
ATOM     32  C   UNL     1      49.581   4.284  18.367  0.00  0.00    +0.000 A 
ATOM     33  H   UNL     1      52.380   2.630  17.872  0.00  0.00    +0.000 HD
ENDBRANCH  20  23
ENDBRANCH  18  19
ENDBRANCH   4  18
TORSDOF 6
ENDMDL
MODEL 7
REMARK VINA RESULT:    -7.154      3.778      8.866
REMARK INTER + INTRA:         -10.438
REMARK INTER:                 -10.030
REMARK INTRA:                  -0.409
REMARK UNBOUND:                -0.774
REMARK  Name = 
REMARK  6 active torsions:
REMARK  status: ('A' for Active; 'I' for Inactive)
REMARK    1  A    between atoms: C_2  and  C_25
REMARK    2  A    between atoms: N_3  and  C_4
REMARK    3  A    between atoms: C_4  and  C_5
REMARK    4  A    between atoms: C_8  and  C_9
REMARK    5  A    between atoms: C_9  and  N_10
REMARK    6  A    between atoms: C_11  and  C_13
REMARK                            x       y       z     vdW  Elec       q    Type
REMARK                         _______ _______ _______ _____ _____    ______ ____
ROOT
ATOM      1  C   UNL     1      49.164   5.519  20.130  0.00  0.00    +0.000 C 
ATOM      2  C   UNL     1      48.082   6.293  19.368  0.00  0.00    +0.000 C 
ATOM      3  C   UNL     1      47.818   5.713  17.983  0.00  0.00    +0.000 C 
ATOM      4  C   UNL     1      47.458   4.218  18.017  0.00  0.00    +0.000 C 
ATOM      5  C   UNL     1      48.496   3.423  18.826  0.00  0.00    +0.000 C 
ATOM      6  C   UNL     1      48.756   4.038  20.203  0.00  0.00    +0.000 C 
ENDROOT
BRANCH   1   7
ATOM      7  C   UNL     1      50.564   5.677  19.506  0.00  0.00    +0.000 C 
BRANCH   7  10
ATOM      8  O   UNL     1      51.593   4.835  17.010  0.00  0.00    +0.000 OA
ATOM      9  C   UNL     1      51.696   4.092  17.982  0.00  0.00    +0.000 C 
ATOM     10  N   UNL     1      51.215   4.418  19.228  0.00  0.00    +0.000 N 
ATOM     11  H   UNL     1      51.488   3.844  20.012  0.00  0.00    +0.000 HD
BRANCH   9  12
ATOM     12  C   UNL     1      52.354   2.806  17.909  0.00  0.00    +0.000 A 
ATOM     13  C   UNL     1      53.700   2.470  17.845  0.00  0.00    +0.000 A 
ATOM     14  C   UNL     1      53.801   1.060  17.801  0.00  0.00    +0.000 A 
ATOM     15  C   UNL     1      52.523   0.558  17.841  0.00  0.00    +0.000 A 
ATOM     16  N   UNL     1      51.654   1.616  17.906  0.00  0.00    +0.000 N 
ATOM     17  H   UNL     1      50.643   1.557  17.943  0.00  0.00    +0.000 HD
ENDBRANCH   9  12
ENDBRANCH   7  10
ENDBRANCH   1   7
BRANCH   4  18
ATOM     18  C   UNL     1      47.341   3.632  16.597  0.00  0.00    +0.000 C 
BRANCH  18  19
ATOM     19  N   UNL     1      46.760   4.558  15.648  0.00  0.00    +0.000 N 
ATOM     20  C   UNL     1      46.760   4.290  14.300  0.00  0.00    +0.000 C 
ATOM     21  O   UNL     1      47.198   3.239  13.839  0.00  0.00    +0.000 OA
ATOM     22  H   UNL     1      46.664   5.528  15.929  0.00  0.00    +0.000 HD
BRANCH  20  23
ATOM     23  C   UNL     1      46.139   5.306  13.440  0.00  0.00    +0.000 A 
ATOM     24  C   UNL     1      46.827   6.476  13.152  0.00  0.00    +0.000 A 
ATOM     25  S   UNL     1      45.980   7.524  12.105  0.00  0.00    +0.000 S 
ATOM     26  C   UNL     1      44.644   6.472  12.042  0.00  0.00    +0.000 A 
ATOM     27  N   UNL     1      43.534   6.789  11.327  0.00  0.00    +0.000 NA
ATOM     28  C   UNL     1      42.586   5.913  11.388  0.00  0.00    +0.000 A 
ATOM     29  N   UNL     1      42.653   4.740  12.098  0.00  0.00    +0.000 N 
ATOM     30  C   UNL     1      43.760   4.378  12.822  0.00  0.00    +0.000 A 
ATOM     31  O   UNL     1      43.800   3.312  13.430  0.00  0.00    +0.000 OA
ATOM     32  C   UNL     1      44.850   5.328  12.791  0.00  0.00    +0.000 A 
ATOM     33  H   UNL     1      41.881   4.093  12.102  0.00  0.00    +0.000 HD
ENDBRANCH  20  23
ENDBRANCH  18  19
ENDBRANCH   4  18
TORSDOF 6
ENDMDL
MODEL 8
REMARK VINA RESULT:    -6.923      3.108      8.807
REMARK INTER + INTRA:         -10.126
REMARK INTER:                  -9.273
REMARK INTRA:                  -0.854
REMARK UNBOUND:                -0.774
REMARK  Name = 
REMARK  6 active torsions:
REMARK  status: ('A' for Active; 'I' for Inactive)
REMARK    1  A    between atoms: C_2  and  C_25
REMARK    2  A    between atoms: N_3  and  C_4
REMARK    3  A    between atoms: C_4  and  C_5
REMARK    4  A    between atoms: C_8  and  C_9
REMARK    5  A    between atoms: C_9  and  N_10
REMARK    6  A    between atoms: C_11  and  C_13
REMARK                            x       y       z     vdW  Elec       q    Type
REMARK                         _______ _______ _______ _____ _____    ______ ____
ROOT
ATOM      1  C   UNL     1      50.009   8.590  14.252  0.00  0.00    +0.000 C 
ATOM      2  C   UNL     1      49.837   7.391  13.313  0.00  0.00    +0.000 C 
ATOM      3  C   UNL     1      48.388   7.196  12.878  0.00  0.00    +0.000 C 
ATOM      4  C   UNL     1      47.782   8.453  12.230  0.00  0.00    +0.000 C 
ATOM      5  C   UNL     1      47.991   9.685  13.125  0.00  0.00    +0.000 C 
ATOM      6  C   UNL     1      49.449   9.846  13.562  0.00  0.00    +0.000 C 
ENDROOT
BRANCH   1   7
ATOM      7  C   UNL     1      49.346   8.373  15.626  0.00  0.00    +0.000 C 
BRANCH   7  10
ATOM      8  O   UNL     1      48.445   7.334  18.097  0.00  0.00    +0.000 OA
ATOM      9  C   UNL     1      48.648   6.565  17.162  0.00  0.00    +0.000 C 
ATOM     10  N   UNL     1      49.095   6.984  15.932  0.00  0.00    +0.000 N 
ATOM     11  H   UNL     1      49.070   6.329  15.164  0.00  0.00    +0.000 HD
BRANCH   9  12
ATOM     12  C   UNL     1      48.413   5.141  17.263  0.00  0.00    +0.000 A 
ATOM     13  C   UNL     1      49.292   4.078  17.425  0.00  0.00    +0.000 A 
ATOM     14  C   UNL     1      48.536   2.884  17.478  0.00  0.00    +0.000 A 
ATOM     15  C   UNL     1      47.213   3.233  17.350  0.00  0.00    +0.000 A 
ATOM     16  N   UNL     1      47.145   4.596  17.220  0.00  0.00    +0.000 N 
ATOM     17  H   UNL     1      46.300   5.143  17.105  0.00  0.00    +0.000 HD
ENDBRANCH   9  12
ENDBRANCH   7  10
ENDBRANCH   1   7
BRANCH   4  18
ATOM     18  C   UNL     1      46.281   8.269  11.936  0.00  0.00    +0.000 C 
BRANCH  18  19
ATOM     19  N   UNL     1      45.917   6.889  11.692  0.00  0.00    +0.000 N 
ATOM     20  C   UNL     1      44.614   6.530  11.436  0.00  0.00    +0.000 C 
ATOM     21  O   UNL     1      43.711   7.358  11.349  0.00  0.00    +0.000 OA
ATOM     22  H   UNL     1      46.539   6.165  12.037  0.00  0.00    +0.000 HD
BRANCH  20  23
ATOM     23  C   UNL     1      44.372   5.101  11.203  0.00  0.00    +0.000 A 
ATOM     24  C   UNL     1      43.625   4.372  12.117  0.00  0.00    +0.000 A 
ATOM     25  S   UNL     1      43.404   2.740  11.670  0.00  0.00    +0.000 S 
ATOM     26  C   UNL     1      44.342   2.940  10.265  0.00  0.00    +0.000 A 
ATOM     27  N   UNL     1      44.581   1.899   9.426  0.00  0.00    +0.000 NA
ATOM     28  C   UNL     1      45.329   2.185   8.413  0.00  0.00    +0.000 A 
ATOM     29  N   UNL     1      45.856   3.427   8.158  0.00  0.00    +0.000 N 
ATOM     30  C   UNL     1      45.628   4.506   8.973  0.00  0.00    +0.000 A 
ATOM     31  O   UNL     1      46.095   5.611   8.709  0.00  0.00    +0.000 OA
ATOM     32  C   UNL     1      44.799   4.238  10.128  0.00  0.00    +0.000 A 
ATOM     33  H   UNL     1      46.429   3.590   7.346  0.00  0.00    +0.000 HD
ENDBRANCH  20  23
ENDBRANCH  18  19
ENDBRANCH   4  18
TORSDOF 6
ENDMDL
MODEL 9
REMARK VINA RESULT:    -6.907      3.035      4.835
REMARK INTER + INTRA:         -10.104
REMARK INTER:                  -8.511
REMARK INTRA:                  -1.593
REMARK UNBOUND:                -0.774
REMARK  Name = 
REMARK  6 active torsions:
REMARK  status: ('A' for Active; 'I' for Inactive)
REMARK    1  A    between atoms: C_2  and  C_25
REMARK    2  A    between atoms: N_3  and  C_4
REMARK    3  A    between atoms: C_4  and  C_5
REMARK    4  A    between atoms: C_8  and  C_9
REMARK    5  A    between atoms: C_9  and  N_10
REMARK    6  A    between atoms: C_11  and  C_13
REMARK                            x       y       z     vdW  Elec       q    Type
REMARK                         _______ _______ _______ _____ _____    ______ ____
ROOT
ATOM      1  C   UNL     1      47.457   8.544  12.138  0.00  0.00    +0.000 C 
ATOM      2  C   UNL     1      47.953   9.860  12.748  0.00  0.00    +0.000 C 
ATOM      3  C   UNL     1      49.088   9.649  13.744  0.00  0.00    +0.000 C 
ATOM      4  C   UNL     1      50.276   8.875  13.145  0.00  0.00    +0.000 C 
ATOM      5  C   UNL     1      49.800   7.576  12.474  0.00  0.00    +0.000 C 
ATOM      6  C   UNL     1      48.649   7.815  11.494  0.00  0.00    +0.000 C 
ENDROOT
BRANCH   1   7
ATOM      7  C   UNL     1      46.745   7.641  13.163  0.00  0.00    +0.000 C 
BRANCH   7  10
ATOM      8  O   UNL     1      46.518   4.975  14.078  0.00  0.00    +0.000 OA
ATOM      9  C   UNL     1      45.898   5.319  13.075  0.00  0.00    +0.000 C 
ATOM     10  N   UNL     1      45.959   6.591  12.558  0.00  0.00    +0.000 N 
ATOM     11  H   UNL     1      45.294   6.850  11.844  0.00  0.00    +0.000 HD
BRANCH   9  12
ATOM     12  C   UNL     1      45.025   4.418  12.355  0.00  0.00    +0.000 A 
ATOM     13  C   UNL     1      44.869   4.189  10.994  0.00  0.00    +0.000 A 
ATOM     14  C   UNL     1      43.884   3.189  10.825  0.00  0.00    +0.000 A 
ATOM     15  C   UNL     1      43.456   2.822  12.079  0.00  0.00    +0.000 A 
ATOM     16  N   UNL     1      44.148   3.568  12.997  0.00  0.00    +0.000 N 
ATOM     17  H   UNL     1      44.045   3.520  14.004  0.00  0.00    +0.000 HD
ENDBRANCH   9  12
ENDBRANCH   7  10
ENDBRANCH   1   7
BRANCH   4  18
ATOM     18  C   UNL     1      51.337   8.554  14.214  0.00  0.00    +0.000 C 
BRANCH  18  19
ATOM     19  N   UNL     1      51.050   7.342  14.952  0.00  0.00    +0.000 N 
ATOM     20  C   UNL     1      51.537   7.149  16.223  0.00  0.00    +0.000 C 
ATOM     21  O   UNL     1      52.190   8.006  16.813  0.00  0.00    +0.000 OA
ATOM     22  H   UNL     1      50.786   6.517  14.425  0.00  0.00    +0.000 HD
BRANCH  20  23
ATOM     23  C   UNL     1      51.174   5.881  16.868  0.00  0.00    +0.000 A 
ATOM     24  C   UNL     1      52.171   5.050  17.359  0.00  0.00    +0.000 A 
ATOM     25  S   UNL     1      51.572   3.642  18.115  0.00  0.00    +0.000 S 
ATOM     26  C   UNL     1      49.963   4.071  17.767  0.00  0.00    +0.000 A 
ATOM     27  N   UNL     1      48.929   3.265  18.121  0.00  0.00    +0.000 NA
ATOM     28  C   UNL     1      47.764   3.700  17.773  0.00  0.00    +0.000 A 
ATOM     29  N   UNL     1      47.539   4.879  17.104  0.00  0.00    +0.000 N 
ATOM     30  C   UNL     1      48.555   5.725  16.740  0.00  0.00    +0.000 A 
ATOM     31  O   UNL     1      48.322   6.783  16.162  0.00  0.00    +0.000 OA
ATOM     32  C   UNL     1      49.883   5.281  17.103  0.00  0.00    +0.000 A 
ATOM     33  H   UNL     1      46.605   5.167  16.864  0.00  0.00    +0.000 HD
ENDBRANCH  20  23
ENDBRANCH  18  19
ENDBRANCH   4  18
TORSDOF 6
ENDMDL
