MODEL 1
REMARK VINA RESULT:    -7.593      0.000      0.000
REMARK INTER + INTRA:         -11.316
REMARK INTER:                 -10.256
REMARK INTRA:                  -1.060
REMARK UNBOUND:                -1.060
REMARK  Name = 
REMARK  7 active torsions:
REMARK  status: ('A' for Active; 'I' for Inactive)
REMARK    1  A    between atoms: C_1  and  N_2
REMARK    2  A    between atoms: N_2  and  C_3
REMARK    3  A    between atoms: C_3  and  C_4
REMARK    4  A    between atoms: C_7  and  C_8
REMARK    5  A    between atoms: C_8  and  N_9
REMARK    6  A    between atoms: C_10  and  C_12
REMARK    7  A    between atoms: C_24  and  C_26
REMARK                            x       y       z     vdW  Elec       q    Type
REMARK                         _______ _______ _______ _____ _____    ______ ____
ROOT
ATOM      1  C   UNL     1      46.494   4.575  13.450  0.00  0.00    +0.000 A 
ATOM      2  C   UNL     1      47.131   5.759  13.045  0.00  0.00    +0.000 A 
ATOM      3  C   UNL     1      47.980   6.444  13.916  0.00  0.00    +0.000 A 
ATOM      4  C   UNL     1      48.225   5.947  15.202  0.00  0.00    +0.000 A 
ATOM      5  C   UNL     1      47.588   4.765  15.606  0.00  0.00    +0.000 A 
ATOM      6  C   UNL     1      46.736   4.081  14.736  0.00  0.00    +0.000 A 
ENDROOT
BRANCH   1   7
ATOM      7  C   UNL     1      45.544   3.872  12.516  0.00  0.00    +0.000 C 
BRANCH   7   9
ATOM      8  C   UNL     1      43.308   4.827  13.239  0.00  0.00    +0.000 C 
ATOM      9  N   UNL     1      44.275   4.519  12.190  0.00  0.00    +0.000 N 
ATOM     10  C   UNL     1      43.833   4.746  10.866  0.00  0.00    +0.000 C 
ATOM     11  O   UNL     1      42.718   5.247  10.685  0.00  0.00    +0.000 OA
BRANCH  10  12
ATOM     12  C   UNL     1      44.687   4.415   9.730  0.00  0.00    +0.000 A 
ATOM     13  C   UNL     1      45.673   5.107   9.045  0.00  0.00    +0.000 A 
ATOM     14  N   UNL     1      46.282   4.441   7.996  0.00  0.00    +0.000 NA
ATOM     15  C   UNL     1      45.806   3.219   7.931  0.00  0.00    +0.000 A 
ATOM     16  S   UNL     1      44.606   2.815   9.080  0.00  0.00    +0.000 S 
ENDBRANCH  10  12
ENDBRANCH   7   9
ENDBRANCH   1   7
BRANCH   4  17
ATOM     17  C   UNL     1      49.104   6.701  16.163  0.00  0.00    +0.000 C 
BRANCH  17  18
ATOM     18  N   UNL     1      50.175   5.863  16.639  0.00  0.00    +0.000 N 
ATOM     19  C   UNL     1      50.245   5.480  17.951  0.00  0.00    +0.000 C 
ATOM     20  O   UNL     1      49.381   5.798  18.766  0.00  0.00    +0.000 OA
ATOM     21  H   UNL     1      50.993   5.773  16.043  0.00  0.00    +0.000 HD
BRANCH  19  22
ATOM     22  C   UNL     1      51.371   4.617  18.326  0.00  0.00    +0.000 A 
ATOM     23  C   UNL     1      52.407   5.140  19.089  0.00  0.00    +0.000 A 
ATOM     24  S   UNL     1      53.609   3.999  19.488  0.00  0.00    +0.000 S 
ATOM     25  C   UNL     1      52.814   2.776  18.609  0.00  0.00    +0.000 A 
ATOM     26  N   UNL     1      53.342   1.526  18.526  0.00  0.00    +0.000 NA
ATOM     27  C   UNL     1      52.655   0.706  17.801  0.00  0.00    +0.000 A 
ATOM     28  N   UNL     1      51.484   1.023  17.160  0.00  0.00    +0.000 N 
ATOM     29  C   UNL     1      50.897   2.264  17.242  0.00  0.00    +0.000 A 
ATOM     30  O   UNL     1      49.826   2.500  16.694  0.00  0.00    +0.000 OA
ATOM     31  C   UNL     1      51.638   3.227  18.034  0.00  0.00    +0.000 A 
ATOM     32  H   UNL     1      50.993   0.331  16.614  0.00  0.00    +0.000 HD
ENDBRANCH  19  22
ENDBRANCH  17  18
ENDBRANCH   4  17
TORSDOF 6
ENDMDL
MODEL 2
REMARK VINA RESULT:    -7.416      2.823      9.784
REMARK INTER + INTRA:         -11.077
REMARK INTER:                 -10.134
REMARK INTRA:                  -0.943
REMARK UNBOUND:                -1.060
REMARK  Name = 
REMARK  7 active torsions:
REMARK  status: ('A' for Active; 'I' for Inactive)
REMARK    1  A    between atoms: C_1  and  N_2
REMARK    2  A    between atoms: N_2  and  C_3
REMARK    3  A    between atoms: C_3  and  C_4
REMARK    4  A    between atoms: C_7  and  C_8
REMARK    5  A    between atoms: C_8  and  N_9
REMARK    6  A    between atoms: C_10  and  C_12
REMARK    7  A    between atoms: C_24  and  C_26
REMARK                            x       y       z     vdW  Elec       q    Type
REMARK                         _______ _______ _______ _____ _____    ______ ____
ROOT
ATOM      1  C   UNL     1      51.422   3.812  17.662  0.00  0.00    +0.000 A 
ATOM      2  C   UNL     1      50.861   2.555  17.388  0.00  0.00    +0.000 A 
ATOM      3  C   UNL     1      49.500   2.431  17.106  0.00  0.00    +0.000 A 
ATOM      4  C   UNL     1      48.677   3.563  17.071  0.00  0.00    +0.000 A 
ATOM      5  C   UNL     1      49.238   4.818  17.345  0.00  0.00    +0.000 A 
ATOM      6  C   UNL     1      50.600   4.944  17.632  0.00  0.00    +0.000 A 
ENDROOT
BRANCH   1   7
ATOM      7  C   UNL     1      52.883   3.927  18.012  0.00  0.00    +0.000 C 
BRANCH   7   9
ATOM      8  C   UNL     1      53.169   4.031  20.530  0.00  0.00    +0.000 C 
ATOM      9  N   UNL     1      53.353   3.333  19.262  0.00  0.00    +0.000 N 
ATOM     10  C   UNL     1      54.132   2.154  19.321  0.00  0.00    +0.000 C 
ATOM     11  O   UNL     1      54.535   1.757  20.419  0.00  0.00    +0.000 OA
BRANCH  10  12
ATOM     12  C   UNL     1      54.439   1.405  18.106  0.00  0.00    +0.000 A 
ATOM     13  C   UNL     1      53.831   0.338  17.466  0.00  0.00    +0.000 A 
ATOM     14  N   UNL     1      54.428  -0.106  16.299  0.00  0.00    +0.000 NA
ATOM     15  C   UNL     1      55.450   0.669  16.020  0.00  0.00    +0.000 A 
ATOM     16  S   UNL     1      55.764   1.931  17.129  0.00  0.00    +0.000 S 
ENDBRANCH  10  12
ENDBRANCH   7   9
ENDBRANCH   1   7
BRANCH   4  17
ATOM     17  C   UNL     1      47.201   3.433  16.810  0.00  0.00    +0.000 C 
BRANCH  17  18
ATOM     18  N   UNL     1      46.766   4.408  15.842  0.00  0.00    +0.000 N 
ATOM     19  C   UNL     1      46.813   4.142  14.500  0.00  0.00    +0.000 C 
ATOM     20  O   UNL     1      47.188   3.054  14.067  0.00  0.00    +0.000 OA
ATOM     21  H   UNL     1      46.662   5.366  16.162  0.00  0.00    +0.000 HD
BRANCH  19  22
ATOM     22  C   UNL     1      46.336   5.200  13.602  0.00  0.00    +0.000 A 
ATOM     23  C   UNL     1      47.149   6.297  13.346  0.00  0.00    +0.000 A 
ATOM     24  S   UNL     1      46.475   7.407  12.242  0.00  0.00    +0.000 S 
ATOM     25  C   UNL     1      45.048   6.488  12.106  0.00  0.00    +0.000 A 
ATOM     26  N   UNL     1      44.027   6.904  11.311  0.00  0.00    +0.000 NA
ATOM     27  C   UNL     1      42.992   6.130  11.326  0.00  0.00    +0.000 A 
ATOM     28  N   UNL     1      42.893   4.974  12.058  0.00  0.00    +0.000 N 
ATOM     29  C   UNL     1      43.911   4.498  12.850  0.00  0.00    +0.000 A 
ATOM     30  O   UNL     1      43.806   3.437  13.455  0.00  0.00    +0.000 OA
ATOM     31  C   UNL     1      45.093   5.339  12.878  0.00  0.00    +0.000 A 
ATOM     32  H   UNL     1      42.056   4.411  12.018  0.00  0.00    +0.000 HD
ENDBRANCH  19  22
ENDBRANCH  17  18
ENDBRANCH   4  17
TORSDOF 6
ENDMDL
MODEL 3
REMARK VINA RESULT:    -6.979      2.806      8.857
REMARK INTER + INTRA:         -10.487
REMARK INTER:                  -9.324
REMARK INTRA:                  -1.163
REMARK UNBOUND:                -1.060
REMARK  Name = 
REMARK  7 active torsions:
REMARK  status: ('A' for Active; 'I' for Inactive)
REMARK    1  A    between atoms: C_1  and  N_2
REMARK    2  A    between atoms: N_2  and  C_3
REMARK    3  A    between atoms: C_3  and  C_4
REMARK    4  A    between atoms: C_7  and  C_8
REMARK    5  A    between atoms: C_8  and  N_9
REMARK    6  A    between atoms: C_10  and  C_12
REMARK    7  A    between atoms: C_24  and  C_26
REMARK                            x       y       z     vdW  Elec       q    Type
REMARK                         _______ _______ _______ _____ _____    ______ ____
ROOT
ATOM      1  C   UNL     1      48.821   7.745  16.086  0.00  0.00    +0.000 A 
ATOM      2  C   UNL     1      48.988   6.632  15.246  0.00  0.00    +0.000 A 
ATOM      3  C   UNL     1      48.514   6.655  13.934  0.00  0.00    +0.000 A 
ATOM      4  C   UNL     1      47.882   7.798  13.428  0.00  0.00    +0.000 A 
ATOM      5  C   UNL     1      47.715   8.908  14.267  0.00  0.00    +0.000 A 
ATOM      6  C   UNL     1      48.186   8.886  15.582  0.00  0.00    +0.000 A 
ENDROOT
BRANCH   1   7
ATOM      7  C   UNL     1      49.295   7.691  17.515  0.00  0.00    +0.000 C 
BRANCH   7   9
ATOM      8  C   UNL     1      47.794   8.491  19.396  0.00  0.00    +0.000 C 
ATOM      9  N   UNL     1      48.319   7.412  18.566  0.00  0.00    +0.000 N 
ATOM     10  C   UNL     1      47.940   6.106  18.952  0.00  0.00    +0.000 C 
ATOM     11  O   UNL     1      47.152   5.964  19.892  0.00  0.00    +0.000 OA
BRANCH  10  12
ATOM     12  C   UNL     1      48.456   4.941  18.238  0.00  0.00    +0.000 A 
ATOM     13  C   UNL     1      49.701   4.338  18.172  0.00  0.00    +0.000 A 
ATOM     14  N   UNL     1      49.804   3.215  17.370  0.00  0.00    +0.000 NA
ATOM     15  C   UNL     1      48.620   2.928  16.882  0.00  0.00    +0.000 A 
ATOM     16  S   UNL     1      47.347   3.980  17.324  0.00  0.00    +0.000 S 
ENDBRANCH  10  12
ENDBRANCH   7   9
ENDBRANCH   1   7
BRANCH   4  17
ATOM     17  C   UNL     1      47.329   7.815  12.029  0.00  0.00    +0.000 C 
BRANCH  17  18
ATOM     18  N   UNL     1      46.702   6.557  11.712  0.00  0.00    +0.000 N 
ATOM     19  C   UNL     1      45.356   6.376  11.879  0.00  0.00    +0.000 C 
ATOM     20  O   UNL     1      44.622   7.283  12.265  0.00  0.00    +0.000 OA
ATOM     21  H   UNL     1      47.309   5.750  11.603  0.00  0.00    +0.000 HD
BRANCH  19  22
ATOM     22  C   UNL     1      44.819   5.059  11.516  0.00  0.00    +0.000 A 
ATOM     23  C   UNL     1      44.085   4.339  12.450  0.00  0.00    +0.000 A 
ATOM     24  S   UNL     1      43.485   2.858  11.857  0.00  0.00    +0.000 S 
ATOM     25  C   UNL     1      44.229   3.101  10.344  0.00  0.00    +0.000 A 
ATOM     26  N   UNL     1      44.121   2.170   9.360  0.00  0.00    +0.000 NA
ATOM     27  C   UNL     1      44.761   2.465   8.276  0.00  0.00    +0.000 A 
ATOM     28  N   UNL     1      45.490   3.612   8.089  0.00  0.00    +0.000 N 
ATOM     29  C   UNL     1      45.601   4.595   9.044  0.00  0.00    +0.000 A 
ATOM     30  O   UNL     1      46.224   5.628   8.826  0.00  0.00    +0.000 OA
ATOM     31  C   UNL     1      44.911   4.305  10.286  0.00  0.00    +0.000 A 
ATOM     32  H   UNL     1      45.961   3.783   7.213  0.00  0.00    +0.000 HD
ENDBRANCH  19  22
ENDBRANCH  17  18
ENDBRANCH   4  17
TORSDOF 6
ENDMDL
MODEL 4
REMARK VINA RESULT:    -6.951      2.749      3.310
REMARK INTER + INTRA:         -10.449
REMARK INTER:                  -9.854
REMARK INTRA:                  -0.595
REMARK UNBOUND:                -1.060
REMARK  Name = 
REMARK  7 active torsions:
REMARK  status: ('A' for Active; 'I' for Inactive)
REMARK    1  A    between atoms: C_1  and  N_2
REMARK    2  A    between atoms: N_2  and  C_3
REMARK    3  A    between atoms: C_3  and  C_4
REMARK    4  A    between atoms: C_7  and  C_8
REMARK    5  A    between atoms: C_8  and  N_9
REMARK    6  A    between atoms: C_10  and  C_12
REMARK    7  A    between atoms: C_24  and  C_26
REMARK                            x       y       z     vdW  Elec       q    Type
REMARK                         _______ _______ _______ _____ _____    ______ ____
ROOT
ATOM      1  C   UNL     1      45.425   6.778  11.834  0.00  0.00    +0.000 A 
ATOM      2  C   UNL     1      46.586   6.014  12.029  0.00  0.00    +0.000 A 
ATOM      3  C   UNL     1      47.667   6.533  12.744  0.00  0.00    +0.000 A 
ATOM      4  C   UNL     1      47.600   7.817  13.296  0.00  0.00    +0.000 A 
ATOM      5  C   UNL     1      46.440   8.581  13.100  0.00  0.00    +0.000 A 
ATOM      6  C   UNL     1      45.359   8.064  12.381  0.00  0.00    +0.000 A 
ENDROOT
BRANCH   1   7
ATOM      7  C   UNL     1      44.284   6.224  11.020  0.00  0.00    +0.000 C 
BRANCH   7   9
ATOM      8  C   UNL     1      42.877   4.940  12.696  0.00  0.00    +0.000 C 
ATOM      9  N   UNL     1      43.650   4.982  11.459  0.00  0.00    +0.000 N 
ATOM     10  C   UNL     1      43.858   3.735  10.826  0.00  0.00    +0.000 C 
ATOM     11  O   UNL     1      43.327   2.726  11.302  0.00  0.00    +0.000 OA
BRANCH  10  12
ATOM     12  C   UNL     1      44.671   3.642   9.617  0.00  0.00    +0.000 A 
ATOM     13  C   UNL     1      45.315   4.580   8.827  0.00  0.00    +0.000 A 
ATOM     14  N   UNL     1      46.013   4.096   7.734  0.00  0.00    +0.000 NA
ATOM     15  C   UNL     1      45.952   2.785   7.735  0.00  0.00    +0.000 A 
ATOM     16  S   UNL     1      45.053   2.072   9.003  0.00  0.00    +0.000 S 
ENDBRANCH  10  12
ENDBRANCH   7   9
ENDBRANCH   1   7
BRANCH   4  17
ATOM     17  C   UNL     1      48.776   8.401  14.031  0.00  0.00    +0.000 C 
BRANCH  17  18
ATOM     18  N   UNL     1      48.985   7.718  15.282  0.00  0.00    +0.000 N 
ATOM     19  C   UNL     1      48.531   8.245  16.461  0.00  0.00    +0.000 C 
ATOM     20  O   UNL     1      47.893   9.296  16.499  0.00  0.00    +0.000 OA
ATOM     21  H   UNL     1      49.681   6.978  15.296  0.00  0.00    +0.000 HD
BRANCH  19  22
ATOM     22  C   UNL     1      48.788   7.461  17.675  0.00  0.00    +0.000 A 
ATOM     23  C   UNL     1      49.188   8.112  18.835  0.00  0.00    +0.000 A 
ATOM     24  S   UNL     1      49.391   7.071  20.169  0.00  0.00    +0.000 S 
ATOM     25  C   UNL     1      49.003   5.704  19.230  0.00  0.00    +0.000 A 
ATOM     26  N   UNL     1      49.012   4.460  19.778  0.00  0.00    +0.000 NA
ATOM     27  C   UNL     1      48.732   3.511  18.946  0.00  0.00    +0.000 A 
ATOM     28  N   UNL     1      48.435   3.698  17.620  0.00  0.00    +0.000 N 
ATOM     29  C   UNL     1      48.383   4.940  17.031  0.00  0.00    +0.000 A 
ATOM     30  O   UNL     1      48.070   5.074  15.854  0.00  0.00    +0.000 OA
ATOM     31  C   UNL     1      48.704   6.040  17.921  0.00  0.00    +0.000 A 
ATOM     32  H   UNL     1      48.217   2.912  17.026  0.00  0.00    +0.000 HD
ENDBRANCH  19  22
ENDBRANCH  17  18
ENDBRANCH   4  17
TORSDOF 6
ENDMDL
MODEL 5
REMARK VINA RESULT:    -6.533      5.967      9.188
REMARK INTER + INTRA:          -9.884
REMARK INTER:                  -8.834
REMARK INTRA:                  -1.051
REMARK UNBOUND:                -1.060
REMARK  Name = 
REMARK  7 active torsions:
REMARK  status: ('A' for Active; 'I' for Inactive)
REMARK    1  A    between atoms: C_1  and  N_2
REMARK    2  A    between atoms: N_2  and  C_3
REMARK    3  A    between atoms: C_3  and  C_4
REMARK    4  A    between atoms: C_7  and  C_8
REMARK    5  A    between atoms: C_8  and  N_9
REMARK    6  A    between atoms: C_10  and  C_12
REMARK    7  A    between atoms: C_24  and  C_26
REMARK                            x       y       z     vdW  Elec       q    Type
REMARK                         _______ _______ _______ _____ _____    ______ ____
ROOT
ATOM      1  C   UNL     1      50.840   8.912  11.176  0.00  0.00    +0.000 A 
ATOM      2  C   UNL     1      50.325   7.625  11.398  0.00  0.00    +0.000 A 
ATOM      3  C   UNL     1      48.981   7.446  11.729  0.00  0.00    +0.000 A 
ATOM      4  C   UNL     1      48.122   8.546  11.825  0.00  0.00    +0.000 A 
ATOM      5  C   UNL     1      48.637   9.831  11.604  0.00  0.00    +0.000 A 
ATOM      6  C   UNL     1      49.983  10.013  11.275  0.00  0.00    +0.000 A 
ENDROOT
BRANCH   1   7
ATOM      7  C   UNL     1      52.303   9.096  10.865  0.00  0.00    +0.000 C 
BRANCH   7   9
ATOM      8  C   UNL     1      53.754   8.027  12.651  0.00  0.00    +0.000 C 
ATOM      9  N   UNL     1      53.244   8.058  11.284  0.00  0.00    +0.000 N 
ATOM     10  C   UNL     1      53.833   7.133  10.391  0.00  0.00    +0.000 C 
ATOM     11  O   UNL     1      54.663   6.329  10.824  0.00  0.00    +0.000 OA
BRANCH  10  12
ATOM     12  C   UNL     1      53.451   7.114   8.982  0.00  0.00    +0.000 A 
ATOM     13  C   UNL     1      52.374   6.581   8.294  0.00  0.00    +0.000 A 
ATOM     14  N   UNL     1      52.355   6.778   6.924  0.00  0.00    +0.000 NA
ATOM     15  C   UNL     1      53.383   7.519   6.584  0.00  0.00    +0.000 A 
ATOM     16  S   UNL     1      54.425   7.991   7.855  0.00  0.00    +0.000 S 
ENDBRANCH  10  12
ENDBRANCH   7   9
ENDBRANCH   1   7
BRANCH   4  17
ATOM     17  C   UNL     1      46.682   8.366  12.224  0.00  0.00    +0.000 C 
BRANCH  17  18
ATOM     18  N   UNL     1      46.256   7.008  11.996  0.00  0.00    +0.000 N 
ATOM     19  C   UNL     1      44.966   6.722  11.639  0.00  0.00    +0.000 C 
ATOM     20  O   UNL     1      44.131   7.606  11.459  0.00  0.00    +0.000 OA
ATOM     21  H   UNL     1      46.859   6.268  12.343  0.00  0.00    +0.000 HD
BRANCH  19  22
ATOM     22  C   UNL     1      44.643   5.307  11.420  0.00  0.00    +0.000 A 
ATOM     23  C   UNL     1      43.934   4.611  12.391  0.00  0.00    +0.000 A 
ATOM     24  S   UNL     1      43.589   2.998  11.963  0.00  0.00    +0.000 S 
ATOM     25  C   UNL     1      44.422   3.155  10.486  0.00  0.00    +0.000 A 
ATOM     26  N   UNL     1      44.524   2.103   9.631  0.00  0.00    +0.000 NA
ATOM     27  C   UNL     1      45.210   2.350   8.564  0.00  0.00    +0.000 A 
ATOM     28  N   UNL     1      45.794   3.557   8.273  0.00  0.00    +0.000 N 
ATOM     29  C   UNL     1      45.690   4.657   9.092  0.00  0.00    +0.000 A 
ATOM     30  O   UNL     1      46.186   5.733   8.781  0.00  0.00    +0.000 OA
ATOM     31  C   UNL     1      44.940   4.427  10.313  0.00  0.00    +0.000 A 
ATOM     32  H   UNL     1      46.311   3.685   7.416  0.00  0.00    +0.000 HD
ENDBRANCH  19  22
ENDBRANCH  17  18
ENDBRANCH   4  17
TORSDOF 6
ENDMDL
MODEL 6
REMARK VINA RESULT:    -6.311      1.657      2.032
REMARK INTER + INTRA:          -9.584
REMARK INTER:                  -8.616
REMARK INTRA:                  -0.968
REMARK UNBOUND:                -1.060
REMARK  Name = 
REMARK  7 active torsions:
REMARK  status: ('A' for Active; 'I' for Inactive)
REMARK    1  A    between atoms: C_1  and  N_2
REMARK    2  A    between atoms: N_2  and  C_3
REMARK    3  A    between atoms: C_3  and  C_4
REMARK    4  A    between atoms: C_7  and  C_8
REMARK    5  A    between atoms: C_8  and  N_9
REMARK    6  A    between atoms: C_10  and  C_12
REMARK    7  A    between atoms: C_24  and  C_26
REMARK                            x       y       z     vdW  Elec       q    Type
REMARK                         _______ _______ _______ _____ _____    ______ ____
ROOT
ATOM      1  C   UNL     1      46.844   5.406  12.986  0.00  0.00    +0.000 A 
ATOM      2  C   UNL     1      47.258   5.296  14.324  0.00  0.00    +0.000 A 
ATOM      3  C   UNL     1      48.250   6.136  14.831  0.00  0.00    +0.000 A 
ATOM      4  C   UNL     1      48.833   7.115  14.019  0.00  0.00    +0.000 A 
ATOM      5  C   UNL     1      48.421   7.224  12.684  0.00  0.00    +0.000 A 
ATOM      6  C   UNL     1      47.430   6.381  12.173  0.00  0.00    +0.000 A 
ENDROOT
BRANCH   1   7
ATOM      7  C   UNL     1      45.805   4.462  12.438  0.00  0.00    +0.000 C 
BRANCH   7   9
ATOM      8  C   UNL     1      43.740   5.859  12.904  0.00  0.00    +0.000 C 
ATOM      9  N   UNL     1      44.519   5.008  12.011  0.00  0.00    +0.000 N 
ATOM     10  C   UNL     1      43.878   4.641  10.805  0.00  0.00    +0.000 C 
ATOM     11  O   UNL     1      42.763   5.109  10.554  0.00  0.00    +0.000 OA
BRANCH  10  12
ATOM     12  C   UNL     1      44.531   3.740   9.861  0.00  0.00    +0.000 A 
ATOM     13  C   UNL     1      44.491   2.368   9.669  0.00  0.00    +0.000 A 
ATOM     14  N   UNL     1      45.264   1.864   8.639  0.00  0.00    +0.000 NA
ATOM     15  C   UNL     1      45.837   2.861   8.007  0.00  0.00    +0.000 A 
ATOM     16  S   UNL     1      45.512   4.426   8.614  0.00  0.00    +0.000 S 
ENDBRANCH  10  12
ENDBRANCH   7   9
ENDBRANCH   1   7
BRANCH   4  17
ATOM     17  C   UNL     1      49.934   7.996  14.546  0.00  0.00    +0.000 C 
BRANCH  17  18
ATOM     18  N   UNL     1      50.984   7.203  15.133  0.00  0.00    +0.000 N 
ATOM     19  C   UNL     1      51.124   7.108  16.491  0.00  0.00    +0.000 C 
ATOM     20  O   UNL     1      50.342   7.657  17.264  0.00  0.00    +0.000 OA
ATOM     21  H   UNL     1      51.751   6.926  14.527  0.00  0.00    +0.000 HD
BRANCH  19  22
ATOM     22  C   UNL     1      52.220   6.264  16.983  0.00  0.00    +0.000 A 
ATOM     23  C   UNL     1      53.504   6.789  17.059  0.00  0.00    +0.000 A 
ATOM     24  S   UNL     1      54.651   5.705  17.701  0.00  0.00    +0.000 S 
ATOM     25  C   UNL     1      53.483   4.475  17.851  0.00  0.00    +0.000 A 
ATOM     26  N   UNL     1      53.823   3.249  18.331  0.00  0.00    +0.000 NA
ATOM     27  C   UNL     1      52.849   2.401  18.361  0.00  0.00    +0.000 A 
ATOM     28  N   UNL     1      51.565   2.673  17.962  0.00  0.00    +0.000 N 
ATOM     29  C   UNL     1      51.168   3.906  17.501  0.00  0.00    +0.000 A 
ATOM     30  O   UNL     1      50.002   4.128  17.195  0.00  0.00    +0.000 OA
ATOM     31  C   UNL     1      52.230   4.892  17.435  0.00  0.00    +0.000 A 
ATOM     32  H   UNL     1      50.848   1.964  18.019  0.00  0.00    +0.000 HD
ENDBRANCH  19  22
ENDBRANCH  17  18
ENDBRANCH   4  17
TORSDOF 6
ENDMDL
MODEL 7
REMARK VINA RESULT:    -5.866      5.761      8.812
REMARK INTER + INTRA:          -8.984
REMARK INTER:                  -7.921
REMARK INTRA:                  -1.063
REMARK UNBOUND:                -1.060
REMARK  Name = 
REMARK  7 active torsions:
REMARK  status: ('A' for Active; 'I' for Inactive)
REMARK    1  A    between atoms: C_1  and  N_2
REMARK    2  A    between atoms: N_2  and  C_3
REMARK    3  A    between atoms: C_3  and  C_4
REMARK    4  A    between atoms: C_7  and  C_8
REMARK    5  A    between atoms: C_8  and  N_9
REMARK    6  A    between atoms: C_10  and  C_12
REMARK    7  A    between atoms: C_24  and  C_26
REMARK                            x       y       z     vdW  Elec       q    Type
REMARK                         _______ _______ _______ _____ _____    ______ ____
ROOT
ATOM      1  C   UNL     1      52.479   8.167  11.252  0.00  0.00    +0.000 A 
ATOM      2  C   UNL     1      51.252   7.704  10.751  0.00  0.00    +0.000 A 
ATOM      3  C   UNL     1      50.113   7.697  11.557  0.00  0.00    +0.000 A 
ATOM      4  C   UNL     1      50.173   8.171  12.873  0.00  0.00    +0.000 A 
ATOM      5  C   UNL     1      51.398   8.632  13.373  0.00  0.00    +0.000 A 
ATOM      6  C   UNL     1      52.541   8.636  12.569  0.00  0.00    +0.000 A 
ENDROOT
BRANCH   1   7
ATOM      7  C   UNL     1      53.712   8.126  10.387  0.00  0.00    +0.000 C 
BRANCH   7   9
ATOM      8  C   UNL     1      54.009  10.545   9.683  0.00  0.00    +0.000 C 
ATOM      9  N   UNL     1      53.866   9.134   9.340  0.00  0.00    +0.000 N 
ATOM     10  C   UNL     1      53.736   8.851   7.960  0.00  0.00    +0.000 C 
ATOM     11  O   UNL     1      53.823   9.778   7.149  0.00  0.00    +0.000 OA
BRANCH  10  12
ATOM     12  C   UNL     1      53.521   7.483   7.499  0.00  0.00    +0.000 A 
ATOM     13  C   UNL     1      52.388   6.742   7.209  0.00  0.00    +0.000 A 
ATOM     14  N   UNL     1      52.590   5.442   6.780  0.00  0.00    +0.000 NA
ATOM     15  C   UNL     1      53.880   5.220   6.681  0.00  0.00    +0.000 A 
ATOM     16  S   UNL     1      54.904   6.520   7.113  0.00  0.00    +0.000 S 
ENDBRANCH  10  12
ENDBRANCH   7   9
ENDBRANCH   1   7
BRANCH   4  17
ATOM     17  C   UNL     1      48.960   8.126  13.762  0.00  0.00    +0.000 C 
BRANCH  17  18
ATOM     18  N   UNL     1      47.954   7.255  13.209  0.00  0.00    +0.000 N 
ATOM     19  C   UNL     1      47.595   6.096  13.842  0.00  0.00    +0.000 C 
ATOM     20  O   UNL     1      48.082   5.768  14.922  0.00  0.00    +0.000 OA
ATOM     21  H   UNL     1      47.703   7.395  12.235  0.00  0.00    +0.000 HD
BRANCH  19  22
ATOM     22  C   UNL     1      46.552   5.289  13.197  0.00  0.00    +0.000 A 
ATOM     23  C   UNL     1      46.652   3.904  13.212  0.00  0.00    +0.000 A 
ATOM     24  S   UNL     1      45.337   3.112  12.473  0.00  0.00    +0.000 S 
ATOM     25  C   UNL     1      44.609   4.595  12.057  0.00  0.00    +0.000 A 
ATOM     26  N   UNL     1      43.436   4.626  11.372  0.00  0.00    +0.000 NA
ATOM     27  C   UNL     1      43.013   5.815  11.093  0.00  0.00    +0.000 A 
ATOM     28  N   UNL     1      43.655   6.974  11.447  0.00  0.00    +0.000 N 
ATOM     29  C   UNL     1      44.827   6.993  12.167  0.00  0.00    +0.000 A 
ATOM     30  O   UNL     1      45.350   8.048  12.506  0.00  0.00    +0.000 OA
ATOM     31  C   UNL     1      45.351   5.680  12.494  0.00  0.00    +0.000 A 
ATOM     32  H   UNL     1      43.265   7.872  11.203  0.00  0.00    +0.000 HD
ENDBRANCH  19  22
ENDBRANCH  17  18
ENDBRANCH   4  17
TORSDOF 6
ENDMDL
MODEL 8
REMARK VINA RESULT:    -5.713      1.775      2.606
REMARK INTER + INTRA:          -8.777
REMARK INTER:                  -8.009
REMARK INTRA:                  -0.768
REMARK UNBOUND:                -1.060
REMARK  Name = 
REMARK  7 active torsions:
REMARK  status: ('A' for Active; 'I' for Inactive)
REMARK    1  A    between atoms: C_1  and  N_2
REMARK    2  A    between atoms: N_2  and  C_3
REMARK    3  A    between atoms: C_3  and  C_4
REMARK    4  A    between atoms: C_7  and  C_8
REMARK    5  A    between atoms: C_8  and  N_9
REMARK    6  A    between atoms: C_10  and  C_12
REMARK    7  A    between atoms: C_24  and  C_26
REMARK                            x       y       z     vdW  Elec       q    Type
REMARK                         _______ _______ _______ _____ _____    ______ ____
ROOT
ATOM      1  C   UNL     1      46.521   4.703  13.400  0.00  0.00    +0.000 A 
ATOM      2  C   UNL     1      47.147   5.826  12.837  0.00  0.00    +0.000 A 
ATOM      3  C   UNL     1      48.055   6.581  13.581  0.00  0.00    +0.000 A 
ATOM      4  C   UNL     1      48.369   6.217  14.896  0.00  0.00    +0.000 A 
ATOM      5  C   UNL     1      47.743   5.096  15.458  0.00  0.00    +0.000 A 
ATOM      6  C   UNL     1      46.832   4.341  14.716  0.00  0.00    +0.000 A 
ENDROOT
BRANCH   1   7
ATOM      7  C   UNL     1      45.508   3.924  12.602  0.00  0.00    +0.000 C 
BRANCH   7   9
ATOM      8  C   UNL     1      43.502   5.445  12.914  0.00  0.00    +0.000 C 
ATOM      9  N   UNL     1      44.354   4.633  12.052  0.00  0.00    +0.000 N 
ATOM     10  C   UNL     1      43.899   4.468  10.723  0.00  0.00    +0.000 C 
ATOM     11  O   UNL     1      42.879   5.064  10.361  0.00  0.00    +0.000 OA
BRANCH  10  12
ATOM     12  C   UNL     1      44.634   3.624   9.785  0.00  0.00    +0.000 A 
ATOM     13  C   UNL     1      44.698   2.255   9.585  0.00  0.00    +0.000 A 
ATOM     14  N   UNL     1      45.525   1.816   8.566  0.00  0.00    +0.000 NA
ATOM     15  C   UNL     1      46.033   2.857   7.950  0.00  0.00    +0.000 A 
ATOM     16  S   UNL     1      45.582   4.390   8.560  0.00  0.00    +0.000 S 
ENDBRANCH  10  12
ENDBRANCH   7   9
ENDBRANCH   1   7
BRANCH   4  17
ATOM     17  C   UNL     1      49.313   7.051  15.720  0.00  0.00    +0.000 C 
BRANCH  17  18
ATOM     18  N   UNL     1      50.359   6.233  16.280  0.00  0.00    +0.000 N 
ATOM     19  C   UNL     1      50.382   5.928  17.614  0.00  0.00    +0.000 C 
ATOM     20  O   UNL     1      49.496   6.302  18.380  0.00  0.00    +0.000 OA
ATOM     21  H   UNL     1      51.195   6.101  15.718  0.00  0.00    +0.000 HD
BRANCH  19  22
ATOM     22  C   UNL     1      51.487   5.079  18.076  0.00  0.00    +0.000 A 
ATOM     23  C   UNL     1      51.500   3.732  17.737  0.00  0.00    +0.000 A 
ATOM     24  S   UNL     1      52.875   2.897  18.301  0.00  0.00    +0.000 S 
ATOM     25  C   UNL     1      53.477   4.295  19.065  0.00  0.00    +0.000 A 
ATOM     26  N   UNL     1      54.643   4.258  19.763  0.00  0.00    +0.000 NA
ATOM     27  C   UNL     1      54.965   5.379  20.319  0.00  0.00    +0.000 A 
ATOM     28  N   UNL     1      54.231   6.534  20.230  0.00  0.00    +0.000 N 
ATOM     29  C   UNL     1      53.064   6.627  19.509  0.00  0.00    +0.000 A 
ATOM     30  O   UNL     1      52.456   7.687  19.413  0.00  0.00    +0.000 OA
ATOM     31  C   UNL     1      52.650   5.390  18.876  0.00  0.00    +0.000 A 
ATOM     32  H   UNL     1      54.545   7.379  20.684  0.00  0.00    +0.000 HD
ENDBRANCH  19  22
ENDBRANCH  17  18
ENDBRANCH   4  17
TORSDOF 6
ENDMDL
MODEL 9
REMARK VINA RESULT:    -5.668      6.031      7.886
REMARK INTER + INTRA:          -8.716
REMARK INTER:                  -7.610
REMARK INTRA:                  -1.106
REMARK UNBOUND:                -1.060
REMARK  Name = 
REMARK  7 active torsions:
REMARK  status: ('A' for Active; 'I' for Inactive)
REMARK    1  A    between atoms: C_1  and  N_2
REMARK    2  A    between atoms: N_2  and  C_3
REMARK    3  A    between atoms: C_3  and  C_4
REMARK    4  A    between atoms: C_7  and  C_8
REMARK    5  A    between atoms: C_8  and  N_9
REMARK    6  A    between atoms: C_10  and  C_12
REMARK    7  A    between atoms: C_24  and  C_26
REMARK                            x       y       z     vdW  Elec       q    Type
REMARK                         _______ _______ _______ _____ _____    ______ ____
ROOT
ATOM      1  C   UNL     1      47.672   7.811  12.902  0.00  0.00    +0.000 A 
ATOM      2  C   UNL     1      48.167   7.380  11.662  0.00  0.00    +0.000 A 
ATOM      3  C   UNL     1      49.496   7.615  11.306  0.00  0.00    +0.000 A 
ATOM      4  C   UNL     1      50.362   8.267  12.192  0.00  0.00    +0.000 A 
ATOM      5  C   UNL     1      49.867   8.699  13.430  0.00  0.00    +0.000 A 
ATOM      6  C   UNL     1      48.535   8.468  13.786  0.00  0.00    +0.000 A 
ENDROOT
BRANCH   1   7
ATOM      7  C   UNL     1      46.224   7.593  13.254  0.00  0.00    +0.000 C 
BRANCH   7   9
ATOM      8  C   UNL     1      45.051   9.435  11.963  0.00  0.00    +0.000 C 
ATOM      9  N   UNL     1      45.199   8.024  12.305  0.00  0.00    +0.000 N 
ATOM     10  C   UNL     1      44.208   7.162  11.782  0.00  0.00    +0.000 C 
ATOM     11  O   UNL     1      43.346   7.627  11.031  0.00  0.00    +0.000 OA
BRANCH  10  12
ATOM     12  C   UNL     1      44.214   5.739  12.109  0.00  0.00    +0.000 A 
ATOM     13  C   UNL     1      43.548   4.975  13.052  0.00  0.00    +0.000 A 
ATOM     14  N   UNL     1      43.815   3.618  13.052  0.00  0.00    +0.000 NA
ATOM     15  C   UNL     1      44.634   3.344  12.063  0.00  0.00    +0.000 A 
ATOM     16  S   UNL     1      45.140   4.672  11.113  0.00  0.00    +0.000 S 
ENDBRANCH  10  12
ENDBRANCH   7   9
ENDBRANCH   1   7
BRANCH   4  17
ATOM     17  C   UNL     1      51.784   8.563  11.800  0.00  0.00    +0.000 C 
BRANCH  17  18
ATOM     18  N   UNL     1      52.046   8.115  10.455  0.00  0.00    +0.000 N 
ATOM     19  C   UNL     1      53.051   8.667   9.708  0.00  0.00    +0.000 C 
ATOM     20  O   UNL     1      53.794   9.536  10.161  0.00  0.00    +0.000 OA
ATOM     21  H   UNL     1      51.323   7.566  10.000  0.00  0.00    +0.000 HD
BRANCH  19  22
ATOM     22  C   UNL     1      53.238   8.128   8.356  0.00  0.00    +0.000 A 
ATOM     23  C   UNL     1      53.157   8.981   7.263  0.00  0.00    +0.000 A 
ATOM     24  S   UNL     1      53.453   8.214   5.770  0.00  0.00    +0.000 S 
ATOM     25  C   UNL     1      53.649   6.701   6.526  0.00  0.00    +0.000 A 
ATOM     26  N   UNL     1      53.908   5.586   5.793  0.00  0.00    +0.000 NA
ATOM     27  C   UNL     1      54.001   4.501   6.488  0.00  0.00    +0.000 A 
ATOM     28  N   UNL     1      53.866   4.434   7.852  0.00  0.00    +0.000 N 
ATOM     29  C   UNL     1      53.635   5.539   8.637  0.00  0.00    +0.000 A 
ATOM     30  O   UNL     1      53.565   5.450   9.858  0.00  0.00    +0.000 OA
ATOM     31  C   UNL     1      53.509   6.783   7.902  0.00  0.00    +0.000 A 
ATOM     32  H   UNL     1      53.957   3.553   8.335  0.00  0.00    +0.000 HD
ENDBRANCH  19  22
ENDBRANCH  17  18
ENDBRANCH   4  17
TORSDOF 6
ENDMDL
