MODEL 1
REMARK VINA RESULT:    -8.178      0.000      0.000
REMARK INTER + INTRA:         -11.462
REMARK INTER:                 -10.568
REMARK INTRA:                  -0.894
REMARK UNBOUND:                -0.894
REMARK  Name = 
REMARK  6 active torsions:
REMARK  status: ('A' for Active; 'I' for Inactive)
REMARK    1  A    between atoms: C_1  and  C_2
REMARK    2  A    between atoms: C_2  and  N_3
REMARK    3  A    between atoms: C_2  and  C_16
REMARK    4  A    between atoms: C_4  and  C_6
REMARK    5  A    between atoms: C_19  and  C_20
REMARK    6  A    between atoms: C_20  and  C_21
REMARK                            x       y       z     vdW  Elec       q    Type
REMARK                         _______ _______ _______ _____ _____    ______ ____
ROOT
ATOM      1  C   UNL     1      43.074   5.076  13.608  0.00  0.00    +0.000 C 
ATOM      2  C   UNL     1      44.394   4.429  13.177  0.00  0.00    +0.000 C 
ENDROOT
BRANCH   2   3
ATOM      3  C   UNL     1      44.509   4.154  11.684  0.00  0.00    +0.000 A 
ATOM      4  C   UNL     1      45.073   5.142  10.862  0.00  0.00    +0.000 A 
ATOM      5  C   UNL     1      45.163   4.969   9.477  0.00  0.00    +0.000 A 
ATOM      6  C   UNL     1      44.690   3.798   8.872  0.00  0.00    +0.000 A 
ATOM      7  C   UNL     1      44.134   2.804   9.690  0.00  0.00    +0.000 A 
ATOM      8  C   UNL     1      44.029   2.985  11.074  0.00  0.00    +0.000 A 
BRANCH   6   9
ATOM      9  C   UNL     1      44.804   3.597   7.377  0.00  0.00    +0.000 C 
BRANCH   9  10
ATOM     10  C   UNL     1      46.080   2.903   6.963  0.00  0.00    +0.000 A 
ATOM     11  C   UNL     1      46.765   3.290   5.807  0.00  0.00    +0.000 A 
ATOM     12  C   UNL     1      47.872   2.556   5.411  0.00  0.00    +0.000 A 
ATOM     13  N   UNL     1      48.351   1.492   6.088  0.00  0.00    +0.000 NA
ATOM     14  C   UNL     1      47.691   1.146   7.214  0.00  0.00    +0.000 A 
ATOM     15  C   UNL     1      46.570   1.811   7.687  0.00  0.00    +0.000 A 
ENDBRANCH   9  10
ENDBRANCH   6   9
ENDBRANCH   2   3
BRANCH   2  16
ATOM     16  N   UNL     1      45.529   5.226  13.605  0.00  0.00    +0.000 N 
ATOM     17  C   UNL     1      46.711   4.667  14.023  0.00  0.00    +0.000 C 
ATOM     18  O   UNL     1      46.911   3.454  13.999  0.00  0.00    +0.000 OA
ATOM     19  H   UNL     1      45.362   6.214  13.761  0.00  0.00    +0.000 HD
BRANCH  17  20
ATOM     20  C   UNL     1      47.753   5.603  14.454  0.00  0.00    +0.000 A 
ATOM     21  C   UNL     1      48.340   6.459  13.533  0.00  0.00    +0.000 A 
ATOM     22  S   UNL     1      49.539   7.468  14.209  0.00  0.00    +0.000 S 
ATOM     23  C   UNL     1      49.353   6.754  15.743  0.00  0.00    +0.000 A 
ATOM     24  N   UNL     1      50.130   7.133  16.792  0.00  0.00    +0.000 NA
ATOM     25  C   UNL     1      49.906   6.480  17.884  0.00  0.00    +0.000 A 
ATOM     26  N   UNL     1      48.964   5.493  18.026  0.00  0.00    +0.000 N 
ATOM     27  C   UNL     1      48.115   5.123  17.014  0.00  0.00    +0.000 A 
ATOM     28  O   UNL     1      47.209   4.315  17.204  0.00  0.00    +0.000 OA
ATOM     29  C   UNL     1      48.357   5.793  15.747  0.00  0.00    +0.000 A 
ATOM     30  H   UNL     1      48.821   5.044  18.917  0.00  0.00    +0.000 HD
ENDBRANCH  17  20
ENDBRANCH   2  16
TORSDOF 5
ENDMDL
MODEL 2
REMARK VINA RESULT:    -7.940      1.746      2.566
REMARK INTER + INTRA:         -11.154
REMARK INTER:                 -11.116
REMARK INTRA:                  -0.038
REMARK UNBOUND:                -0.894
REMARK  Name = 
REMARK  6 active torsions:
REMARK  status: ('A' for Active; 'I' for Inactive)
REMARK    1  A    between atoms: C_1  and  C_2
REMARK    2  A    between atoms: C_2  and  N_3
REMARK    3  A    between atoms: C_2  and  C_16
REMARK    4  A    between atoms: C_4  and  C_6
REMARK    5  A    between atoms: C_19  and  C_20
REMARK    6  A    between atoms: C_20  and  C_21
REMARK                            x       y       z     vdW  Elec       q    Type
REMARK                         _______ _______ _______ _____ _____    ______ ____
ROOT
ATOM      1  C   UNL     1      47.086   8.475  12.014  0.00  0.00    +0.000 C 
ATOM      2  C   UNL     1      46.213   7.461  12.760  0.00  0.00    +0.000 C 
ENDROOT
BRANCH   2   3
ATOM      3  C   UNL     1      45.818   6.239  11.942  0.00  0.00    +0.000 A 
ATOM      4  C   UNL     1      46.026   6.265  10.553  0.00  0.00    +0.000 A 
ATOM      5  C   UNL     1      45.641   5.194   9.741  0.00  0.00    +0.000 A 
ATOM      6  C   UNL     1      45.036   4.060  10.296  0.00  0.00    +0.000 A 
ATOM      7  C   UNL     1      44.834   4.024  11.684  0.00  0.00    +0.000 A 
ATOM      8  C   UNL     1      45.204   5.104  12.493  0.00  0.00    +0.000 A 
BRANCH   6   9
ATOM      9  C   UNL     1      44.636   2.890   9.425  0.00  0.00    +0.000 C 
BRANCH   9  10
ATOM     10  C   UNL     1      45.650   2.571   8.352  0.00  0.00    +0.000 A 
ATOM     11  C   UNL     1      45.914   3.479   7.321  0.00  0.00    +0.000 A 
ATOM     12  C   UNL     1      46.774   3.100   6.302  0.00  0.00    +0.000 A 
ATOM     13  N   UNL     1      47.399   1.905   6.250  0.00  0.00    +0.000 NA
ATOM     14  C   UNL     1      47.150   1.050   7.265  0.00  0.00    +0.000 A 
ATOM     15  C   UNL     1      46.300   1.333   8.324  0.00  0.00    +0.000 A 
ENDBRANCH   9  10
ENDBRANCH   6   9
ENDBRANCH   2   3
BRANCH   2  16
ATOM     16  N   UNL     1      46.852   7.026  13.988  0.00  0.00    +0.000 N 
ATOM     17  C   UNL     1      48.150   6.582  14.031  0.00  0.00    +0.000 C 
ATOM     18  O   UNL     1      48.881   6.586  13.042  0.00  0.00    +0.000 OA
ATOM     19  H   UNL     1      46.250   6.887  14.793  0.00  0.00    +0.000 HD
BRANCH  17  20
ATOM     20  C   UNL     1      48.643   6.149  15.341  0.00  0.00    +0.000 A 
ATOM     21  C   UNL     1      49.697   6.820  15.943  0.00  0.00    +0.000 A 
ATOM     22  S   UNL     1      50.144   6.172  17.457  0.00  0.00    +0.000 S 
ATOM     23  C   UNL     1      48.980   4.936  17.332  0.00  0.00    +0.000 A 
ATOM     24  N   UNL     1      48.862   3.984  18.296  0.00  0.00    +0.000 NA
ATOM     25  C   UNL     1      47.965   3.087  18.050  0.00  0.00    +0.000 A 
ATOM     26  N   UNL     1      47.164   3.065  16.936  0.00  0.00    +0.000 N 
ATOM     27  C   UNL     1      47.205   4.040  15.971  0.00  0.00    +0.000 A 
ATOM     28  O   UNL     1      46.400   4.051  15.043  0.00  0.00    +0.000 OA
ATOM     29  C   UNL     1      48.232   5.047  16.173  0.00  0.00    +0.000 A 
ATOM     30  H   UNL     1      46.462   2.351  16.822  0.00  0.00    +0.000 HD
ENDBRANCH  17  20
ENDBRANCH   2  16
TORSDOF 5
ENDMDL
MODEL 3
REMARK VINA RESULT:    -7.902      1.506      2.685
REMARK INTER + INTRA:         -11.106
REMARK INTER:                 -10.287
REMARK INTRA:                  -0.820
REMARK UNBOUND:                -0.894
REMARK  Name = 
REMARK  6 active torsions:
REMARK  status: ('A' for Active; 'I' for Inactive)
REMARK    1  A    between atoms: C_1  and  C_2
REMARK    2  A    between atoms: C_2  and  N_3
REMARK    3  A    between atoms: C_2  and  C_16
REMARK    4  A    between atoms: C_4  and  C_6
REMARK    5  A    between atoms: C_19  and  C_20
REMARK    6  A    between atoms: C_20  and  C_21
REMARK                            x       y       z     vdW  Elec       q    Type
REMARK                         _______ _______ _______ _____ _____    ______ ____
ROOT
ATOM      1  C   UNL     1      43.114   4.663  13.677  0.00  0.00    +0.000 C 
ATOM      2  C   UNL     1      44.478   4.221  13.140  0.00  0.00    +0.000 C 
ENDROOT
BRANCH   2   3
ATOM      3  C   UNL     1      44.564   4.127  11.624  0.00  0.00    +0.000 A 
ATOM      4  C   UNL     1      44.062   2.978  10.993  0.00  0.00    +0.000 A 
ATOM      5  C   UNL     1      44.154   2.811   9.607  0.00  0.00    +0.000 A 
ATOM      6  C   UNL     1      44.751   3.793   8.809  0.00  0.00    +0.000 A 
ATOM      7  C   UNL     1      45.246   4.948   9.432  0.00  0.00    +0.000 A 
ATOM      8  C   UNL     1      45.169   5.106  10.821  0.00  0.00    +0.000 A 
BRANCH   6   9
ATOM      9  C   UNL     1      44.835   3.627   7.308  0.00  0.00    +0.000 C 
BRANCH   9  10
ATOM     10  C   UNL     1      46.044   2.840   6.860  0.00  0.00    +0.000 A 
ATOM     11  C   UNL     1      46.572   1.821   7.659  0.00  0.00    +0.000 A 
ATOM     12  C   UNL     1      47.744   1.198   7.257  0.00  0.00    +0.000 A 
ATOM     13  N   UNL     1      48.403   1.498   6.118  0.00  0.00    +0.000 NA
ATOM     14  C   UNL     1      47.865   2.468   5.348  0.00  0.00    +0.000 A 
ATOM     15  C   UNL     1      46.704   3.156   5.669  0.00  0.00    +0.000 A 
ENDBRANCH   9  10
ENDBRANCH   6   9
ENDBRANCH   2   3
BRANCH   2  16
ATOM     16  N   UNL     1      45.535   5.089  13.625  0.00  0.00    +0.000 N 
ATOM     17  C   UNL     1      46.738   4.610  14.080  0.00  0.00    +0.000 C 
ATOM     18  O   UNL     1      47.027   3.415  14.044  0.00  0.00    +0.000 OA
ATOM     19  H   UNL     1      45.291   6.060  13.790  0.00  0.00    +0.000 HD
BRANCH  17  20
ATOM     20  C   UNL     1      47.693   5.610  14.566  0.00  0.00    +0.000 A 
ATOM     21  C   UNL     1      48.147   5.557  15.876  0.00  0.00    +0.000 A 
ATOM     22  S   UNL     1      49.242   6.805  16.268  0.00  0.00    +0.000 S 
ATOM     23  C   UNL     1      49.102   7.491  14.716  0.00  0.00    +0.000 A 
ATOM     24  N   UNL     1      49.760   8.636  14.393  0.00  0.00    +0.000 NA
ATOM     25  C   UNL     1      49.530   9.062  13.196  0.00  0.00    +0.000 A 
ATOM     26  N   UNL     1      48.714   8.438  12.286  0.00  0.00    +0.000 N 
ATOM     27  C   UNL     1      48.082   7.248  12.547  0.00  0.00    +0.000 A 
ATOM     28  O   UNL     1      47.448   6.659  11.675  0.00  0.00    +0.000 OA
ATOM     29  C   UNL     1      48.267   6.750  13.898  0.00  0.00    +0.000 A 
ATOM     30  H   UNL     1      48.603   8.811  11.356  0.00  0.00    +0.000 HD
ENDBRANCH  17  20
ENDBRANCH   2  16
TORSDOF 5
ENDMDL
MODEL 4
REMARK VINA RESULT:    -7.779      1.818      2.675
REMARK INTER + INTRA:         -10.947
REMARK INTER:                 -10.836
REMARK INTRA:                  -0.111
REMARK UNBOUND:                -0.894
REMARK  Name = 
REMARK  6 active torsions:
REMARK  status: ('A' for Active; 'I' for Inactive)
REMARK    1  A    between atoms: C_1  and  C_2
REMARK    2  A    between atoms: C_2  and  N_3
REMARK    3  A    between atoms: C_2  and  C_16
REMARK    4  A    between atoms: C_4  and  C_6
REMARK    5  A    between atoms: C_19  and  C_20
REMARK    6  A    between atoms: C_20  and  C_21
REMARK                            x       y       z     vdW  Elec       q    Type
REMARK                         _______ _______ _______ _____ _____    ______ ____
ROOT
ATOM      1  C   UNL     1      47.158   7.992  12.132  0.00  0.00    +0.000 C 
ATOM      2  C   UNL     1      46.040   7.040  12.566  0.00  0.00    +0.000 C 
ENDROOT
BRANCH   2   3
ATOM      3  C   UNL     1      45.652   5.999  11.524  0.00  0.00    +0.000 A 
ATOM      4  C   UNL     1      44.939   4.864  11.942  0.00  0.00    +0.000 A 
ATOM      5  C   UNL     1      44.596   3.851  11.042  0.00  0.00    +0.000 A 
ATOM      6  C   UNL     1      44.956   3.943   9.692  0.00  0.00    +0.000 A 
ATOM      7  C   UNL     1      45.661   5.079   9.267  0.00  0.00    +0.000 A 
ATOM      8  C   UNL     1      46.018   6.085  10.172  0.00  0.00    +0.000 A 
BRANCH   6   9
ATOM      9  C   UNL     1      44.569   2.859   8.711  0.00  0.00    +0.000 C 
BRANCH   9  10
ATOM     10  C   UNL     1      45.710   2.422   7.823  0.00  0.00    +0.000 A 
ATOM     11  C   UNL     1      46.408   1.239   8.083  0.00  0.00    +0.000 A 
ATOM     12  C   UNL     1      47.514   0.932   7.305  0.00  0.00    +0.000 A 
ATOM     13  N   UNL     1      47.953   1.699   6.285  0.00  0.00    +0.000 NA
ATOM     14  C   UNL     1      47.253   2.826   6.034  0.00  0.00    +0.000 A 
ATOM     15  C   UNL     1      46.140   3.223   6.761  0.00  0.00    +0.000 A 
ENDBRANCH   9  10
ENDBRANCH   6   9
ENDBRANCH   2   3
BRANCH   2  16
ATOM     16  N   UNL     1      46.378   6.370  13.808  0.00  0.00    +0.000 N 
ATOM     17  C   UNL     1      47.618   5.830  14.044  0.00  0.00    +0.000 C 
ATOM     18  O   UNL     1      48.547   5.938  13.246  0.00  0.00    +0.000 OA
ATOM     19  H   UNL     1      45.611   6.148  14.433  0.00  0.00    +0.000 HD
BRANCH  17  20
ATOM     20  C   UNL     1      47.797   5.159  15.335  0.00  0.00    +0.000 A 
ATOM     21  C   UNL     1      47.154   3.955  15.586  0.00  0.00    +0.000 A 
ATOM     22  S   UNL     1      47.469   3.326  17.140  0.00  0.00    +0.000 S 
ATOM     23  C   UNL     1      48.430   4.670  17.550  0.00  0.00    +0.000 A 
ATOM     24  N   UNL     1      48.983   4.786  18.787  0.00  0.00    +0.000 NA
ATOM     25  C   UNL     1      49.653   5.875  18.970  0.00  0.00    +0.000 A 
ATOM     26  N   UNL     1      49.835   6.851  18.022  0.00  0.00    +0.000 N 
ATOM     27  C   UNL     1      49.351   6.745  16.743  0.00  0.00    +0.000 A 
ATOM     28  O   UNL     1      49.624   7.583  15.887  0.00  0.00    +0.000 OA
ATOM     29  C   UNL     1      48.545   5.561  16.498  0.00  0.00    +0.000 A 
ATOM     30  H   UNL     1      50.397   7.663  18.223  0.00  0.00    +0.000 HD
ENDBRANCH  17  20
ENDBRANCH   2  16
TORSDOF 5
ENDMDL
MODEL 5
REMARK VINA RESULT:    -7.581      2.170      3.767
REMARK INTER + INTRA:         -10.691
REMARK INTER:                  -9.309
REMARK INTRA:                  -1.382
REMARK UNBOUND:                -0.894
REMARK  Name = 
REMARK  6 active torsions:
REMARK  status: ('A' for Active; 'I' for Inactive)
REMARK    1  A    between atoms: C_1  and  C_2
REMARK    2  A    between atoms: C_2  and  N_3
REMARK    3  A    between atoms: C_2  and  C_16
REMARK    4  A    between atoms: C_4  and  C_6
REMARK    5  A    between atoms: C_19  and  C_20
REMARK    6  A    between atoms: C_20  and  C_21
REMARK                            x       y       z     vdW  Elec       q    Type
REMARK                         _______ _______ _______ _____ _____    ______ ____
ROOT
ATOM      1  C   UNL     1      48.291   9.069  12.967  0.00  0.00    +0.000 C 
ATOM      2  C   UNL     1      47.453   8.073  13.774  0.00  0.00    +0.000 C 
ENDROOT
BRANCH   2   3
ATOM      3  C   UNL     1      46.491   7.234  12.945  0.00  0.00    +0.000 A 
ATOM      4  C   UNL     1      46.646   5.839  12.943  0.00  0.00    +0.000 A 
ATOM      5  C   UNL     1      45.825   5.017  12.165  0.00  0.00    +0.000 A 
ATOM      6  C   UNL     1      44.819   5.569  11.363  0.00  0.00    +0.000 A 
ATOM      7  C   UNL     1      44.652   6.962  11.368  0.00  0.00    +0.000 A 
ATOM      8  C   UNL     1      45.486   7.784  12.134  0.00  0.00    +0.000 A 
BRANCH   6   9
ATOM      9  C   UNL     1      43.913   4.684  10.536  0.00  0.00    +0.000 C 
BRANCH   9  10
ATOM     10  C   UNL     1      44.659   3.847   9.523  0.00  0.00    +0.000 A 
ATOM     11  C   UNL     1      44.674   2.452   9.616  0.00  0.00    +0.000 A 
ATOM     12  C   UNL     1      45.457   1.732   8.727  0.00  0.00    +0.000 A 
ATOM     13  N   UNL     1      46.198   2.296   7.751  0.00  0.00    +0.000 NA
ATOM     14  C   UNL     1      46.155   3.643   7.662  0.00  0.00    +0.000 A 
ATOM     15  C   UNL     1      45.410   4.450   8.508  0.00  0.00    +0.000 A 
ENDBRANCH   9  10
ENDBRANCH   6   9
ENDBRANCH   2   3
BRANCH   2  16
ATOM     16  N   UNL     1      48.300   7.193  14.558  0.00  0.00    +0.000 N 
ATOM     17  C   UNL     1      48.739   7.516  15.817  0.00  0.00    +0.000 C 
ATOM     18  O   UNL     1      48.388   8.543  16.395  0.00  0.00    +0.000 OA
ATOM     19  H   UNL     1      48.713   6.403  14.073  0.00  0.00    +0.000 HD
BRANCH  17  20
ATOM     20  C   UNL     1      49.614   6.537  16.469  0.00  0.00    +0.000 A 
ATOM     21  C   UNL     1      50.909   6.889  16.820  0.00  0.00    +0.000 A 
ATOM     22  S   UNL     1      51.784   5.623  17.557  0.00  0.00    +0.000 S 
ATOM     23  C   UNL     1      50.478   4.545  17.380  0.00  0.00    +0.000 A 
ATOM     24  N   UNL     1      50.582   3.247  17.774  0.00  0.00    +0.000 NA
ATOM     25  C   UNL     1      49.528   2.536  17.543  0.00  0.00    +0.000 A 
ATOM     26  N   UNL     1      48.375   3.008  16.970  0.00  0.00    +0.000 N 
ATOM     27  C   UNL     1      48.203   4.323  16.618  0.00  0.00    +0.000 A 
ATOM     28  O   UNL     1      47.121   4.738  16.209  0.00  0.00    +0.000 OA
ATOM     29  C   UNL     1      49.376   5.158  16.810  0.00  0.00    +0.000 A 
ATOM     30  H   UNL     1      47.578   2.403  16.847  0.00  0.00    +0.000 HD
ENDBRANCH  17  20
ENDBRANCH   2  16
TORSDOF 5
ENDMDL
MODEL 6
REMARK VINA RESULT:    -7.387      2.521      3.039
REMARK INTER + INTRA:         -10.440
REMARK INTER:                  -9.534
REMARK INTRA:                  -0.906
REMARK UNBOUND:                -0.894
REMARK  Name = 
REMARK  6 active torsions:
REMARK  status: ('A' for Active; 'I' for Inactive)
REMARK    1  A    between atoms: C_1  and  C_2
REMARK    2  A    between atoms: C_2  and  N_3
REMARK    3  A    between atoms: C_2  and  C_16
REMARK    4  A    between atoms: C_4  and  C_6
REMARK    5  A    between atoms: C_19  and  C_20
REMARK    6  A    between atoms: C_20  and  C_21
REMARK                            x       y       z     vdW  Elec       q    Type
REMARK                         _______ _______ _______ _____ _____    ______ ____
ROOT
ATOM      1  C   UNL     1      44.908   8.212  12.575  0.00  0.00    +0.000 C 
ATOM      2  C   UNL     1      45.897   7.045  12.516  0.00  0.00    +0.000 C 
ENDROOT
BRANCH   2   3
ATOM      3  C   UNL     1      45.566   5.983  11.477  0.00  0.00    +0.000 A 
ATOM      4  C   UNL     1      46.054   6.146  10.171  0.00  0.00    +0.000 A 
ATOM      5  C   UNL     1      45.744   5.230   9.161  0.00  0.00    +0.000 A 
ATOM      6  C   UNL     1      44.936   4.119   9.428  0.00  0.00    +0.000 A 
ATOM      7  C   UNL     1      44.453   3.946  10.734  0.00  0.00    +0.000 A 
ATOM      8  C   UNL     1      44.749   4.872  11.740  0.00  0.00    +0.000 A 
BRANCH   6   9
ATOM      9  C   UNL     1      44.616   3.114   8.344  0.00  0.00    +0.000 C 
BRANCH   9  10
ATOM     10  C   UNL     1      45.841   2.596   7.629  0.00  0.00    +0.000 A 
ATOM     11  C   UNL     1      46.364   3.271   6.522  0.00  0.00    +0.000 A 
ATOM     12  C   UNL     1      47.426   2.703   5.834  0.00  0.00    +0.000 A 
ATOM     13  N   UNL     1      48.009   1.537   6.181  0.00  0.00    +0.000 NA
ATOM     14  C   UNL     1      47.505   0.910   7.267  0.00  0.00    +0.000 A 
ATOM     15  C   UNL     1      46.442   1.393   8.014  0.00  0.00    +0.000 A 
ENDBRANCH   9  10
ENDBRANCH   6   9
ENDBRANCH   2   3
BRANCH   2  16
ATOM     16  N   UNL     1      47.251   7.519  12.299  0.00  0.00    +0.000 N 
ATOM     17  C   UNL     1      48.347   6.919  12.868  0.00  0.00    +0.000 C 
ATOM     18  O   UNL     1      48.261   5.897  13.546  0.00  0.00    +0.000 OA
ATOM     19  H   UNL     1      47.353   8.426  11.856  0.00  0.00    +0.000 HD
BRANCH  17  20
ATOM     20  C   UNL     1      49.645   7.534  12.578  0.00  0.00    +0.000 A 
ATOM     21  C   UNL     1      50.155   7.505  11.288  0.00  0.00    +0.000 A 
ATOM     22  S   UNL     1      51.679   8.258  11.140  0.00  0.00    +0.000 S 
ATOM     23  C   UNL     1      51.734   8.598  12.807  0.00  0.00    +0.000 A 
ATOM     24  N   UNL     1      52.816   9.205  13.364  0.00  0.00    +0.000 NA
ATOM     25  C   UNL     1      52.737   9.364  14.643  0.00  0.00    +0.000 A 
ATOM     26  N   UNL     1      51.666   8.987  15.414  0.00  0.00    +0.000 N 
ATOM     27  C   UNL     1      50.528   8.432  14.887  0.00  0.00    +0.000 A 
ATOM     28  O   UNL     1      49.544   8.207  15.588  0.00  0.00    +0.000 OA
ATOM     29  C   UNL     1      50.584   8.184  13.457  0.00  0.00    +0.000 A 
ATOM     30  H   UNL     1      51.658   9.170  16.406  0.00  0.00    +0.000 HD
ENDBRANCH  17  20
ENDBRANCH   2  16
TORSDOF 5
ENDMDL
MODEL 7
REMARK VINA RESULT:    -7.141      2.548      3.606
REMARK INTER + INTRA:         -10.123
REMARK INTER:                  -9.003
REMARK INTRA:                  -1.120
REMARK UNBOUND:                -0.894
REMARK  Name = 
REMARK  6 active torsions:
REMARK  status: ('A' for Active; 'I' for Inactive)
REMARK    1  A    between atoms: C_1  and  C_2
REMARK    2  A    between atoms: C_2  and  N_3
REMARK    3  A    between atoms: C_2  and  C_16
REMARK    4  A    between atoms: C_4  and  C_6
REMARK    5  A    between atoms: C_19  and  C_20
REMARK    6  A    between atoms: C_20  and  C_21
REMARK                            x       y       z     vdW  Elec       q    Type
REMARK                         _______ _______ _______ _____ _____    ______ ____
ROOT
ATOM      1  C   UNL     1      47.224   4.144  16.428  0.00  0.00    +0.000 C 
ATOM      2  C   UNL     1      47.721   4.879  15.179  0.00  0.00    +0.000 C 
ENDROOT
BRANCH   2   3
ATOM      3  C   UNL     1      46.885   4.645  13.929  0.00  0.00    +0.000 A 
ATOM      4  C   UNL     1      46.537   5.751  13.137  0.00  0.00    +0.000 A 
ATOM      5  C   UNL     1      45.730   5.607  12.004  0.00  0.00    +0.000 A 
ATOM      6  C   UNL     1      45.248   4.349  11.626  0.00  0.00    +0.000 A 
ATOM      7  C   UNL     1      45.600   3.238  12.409  0.00  0.00    +0.000 A 
ATOM      8  C   UNL     1      46.393   3.386  13.552  0.00  0.00    +0.000 A 
BRANCH   6   9
ATOM      9  C   UNL     1      44.393   4.185  10.389  0.00  0.00    +0.000 C 
BRANCH   9  10
ATOM     10  C   UNL     1      45.114   3.502   9.251  0.00  0.00    +0.000 A 
ATOM     11  C   UNL     1      45.215   2.108   9.201  0.00  0.00    +0.000 A 
ATOM     12  C   UNL     1      45.976   1.530   8.194  0.00  0.00    +0.000 A 
ATOM     13  N   UNL     1      46.613   2.234   7.236  0.00  0.00    +0.000 NA
ATOM     14  C   UNL     1      46.485   3.577   7.288  0.00  0.00    +0.000 A 
ATOM     15  C   UNL     1      45.755   4.248   8.258  0.00  0.00    +0.000 A 
ENDBRANCH   9  10
ENDBRANCH   6   9
ENDBRANCH   2   3
BRANCH   2  16
ATOM     16  N   UNL     1      47.828   6.306  15.422  0.00  0.00    +0.000 N 
ATOM     17  C   UNL     1      49.016   6.916  15.738  0.00  0.00    +0.000 C 
ATOM     18  O   UNL     1      50.083   6.306  15.770  0.00  0.00    +0.000 OA
ATOM     19  H   UNL     1      46.960   6.818  15.531  0.00  0.00    +0.000 HD
BRANCH  17  20
ATOM     20  C   UNL     1      48.957   8.360  15.985  0.00  0.00    +0.000 A 
ATOM     21  C   UNL     1      49.484   9.245  15.056  0.00  0.00    +0.000 A 
ATOM     22  S   UNL     1      49.336  10.882  15.514  0.00  0.00    +0.000 S 
ATOM     23  C   UNL     1      48.614  10.459  16.996  0.00  0.00    +0.000 A 
ATOM     24  N   UNL     1      48.273  11.410  17.907  0.00  0.00    +0.000 NA
ATOM     25  C   UNL     1      47.771  10.942  19.002  0.00  0.00    +0.000 A 
ATOM     26  N   UNL     1      47.565   9.611  19.262  0.00  0.00    +0.000 N 
ATOM     27  C   UNL     1      47.833   8.623  18.348  0.00  0.00    +0.000 A 
ATOM     28  O   UNL     1      47.534   7.452  18.568  0.00  0.00    +0.000 OA
ATOM     29  C   UNL     1      48.447   9.090  17.117  0.00  0.00    +0.000 A 
ATOM     30  H   UNL     1      47.140   9.316  20.127  0.00  0.00    +0.000 HD
ENDBRANCH  17  20
ENDBRANCH   2  16
TORSDOF 5
ENDMDL
MODEL 8
REMARK VINA RESULT:    -7.139      2.429      4.118
REMARK INTER + INTRA:         -10.120
REMARK INTER:                  -9.020
REMARK INTRA:                  -1.101
REMARK UNBOUND:                -0.894
REMARK  Name = 
REMARK  6 active torsions:
REMARK  status: ('A' for Active; 'I' for Inactive)
REMARK    1  A    between atoms: C_1  and  C_2
REMARK    2  A    between atoms: C_2  and  N_3
REMARK    3  A    between atoms: C_2  and  C_16
REMARK    4  A    between atoms: C_4  and  C_6
REMARK    5  A    between atoms: C_19  and  C_20
REMARK    6  A    between atoms: C_20  and  C_21
REMARK                            x       y       z     vdW  Elec       q    Type
REMARK                         _______ _______ _______ _____ _____    ______ ____
ROOT
ATOM      1  C   UNL     1      49.486   7.677  13.242  0.00  0.00    +0.000 C 
ATOM      2  C   UNL     1      48.053   7.910  13.729  0.00  0.00    +0.000 C 
ENDROOT
BRANCH   2   3
ATOM      3  C   UNL     1      46.987   7.147  12.955  0.00  0.00    +0.000 A 
ATOM      4  C   UNL     1      46.949   5.748  13.066  0.00  0.00    +0.000 A 
ATOM      5  C   UNL     1      46.025   4.988  12.343  0.00  0.00    +0.000 A 
ATOM      6  C   UNL     1      45.107   5.606  11.486  0.00  0.00    +0.000 A 
ATOM      7  C   UNL     1      45.133   7.005  11.379  0.00  0.00    +0.000 A 
ATOM      8  C   UNL     1      46.070   7.763  12.090  0.00  0.00    +0.000 A 
BRANCH   6   9
ATOM      9  C   UNL     1      44.091   4.790  10.718  0.00  0.00    +0.000 C 
BRANCH   9  10
ATOM     10  C   UNL     1      44.710   3.909   9.659  0.00  0.00    +0.000 A 
ATOM     11  C   UNL     1      44.607   2.516   9.734  0.00  0.00    +0.000 A 
ATOM     12  C   UNL     1      45.280   1.746   8.797  0.00  0.00    +0.000 A 
ATOM     13  N   UNL     1      46.019   2.260   7.792  0.00  0.00    +0.000 NA
ATOM     14  C   UNL     1      46.088   3.607   7.722  0.00  0.00    +0.000 A 
ATOM     15  C   UNL     1      45.459   4.461   8.615  0.00  0.00    +0.000 A 
ENDBRANCH   9  10
ENDBRANCH   6   9
ENDBRANCH   2   3
BRANCH   2  16
ATOM     16  N   UNL     1      47.927   7.604  15.143  0.00  0.00    +0.000 N 
ATOM     17  C   UNL     1      48.486   8.387  16.122  0.00  0.00    +0.000 C 
ATOM     18  O   UNL     1      49.072   9.438  15.871  0.00  0.00    +0.000 OA
ATOM     19  H   UNL     1      47.566   6.688  15.382  0.00  0.00    +0.000 HD
BRANCH  17  20
ATOM     20  C   UNL     1      48.297   7.930  17.502  0.00  0.00    +0.000 A 
ATOM     21  C   UNL     1      47.948   8.837  18.492  0.00  0.00    +0.000 A 
ATOM     22  S   UNL     1      47.783   8.131  20.036  0.00  0.00    +0.000 S 
ATOM     23  C   UNL     1      48.228   6.599  19.443  0.00  0.00    +0.000 A 
ATOM     24  N   UNL     1      48.333   5.528  20.275  0.00  0.00    +0.000 NA
ATOM     25  C   UNL     1      48.718   4.440  19.695  0.00  0.00    +0.000 A 
ATOM     26  N   UNL     1      48.991   4.321  18.356  0.00  0.00    +0.000 N 
ATOM     27  C   UNL     1      48.837   5.357  17.470  0.00  0.00    +0.000 A 
ATOM     28  O   UNL     1      48.983   5.190  16.262  0.00  0.00    +0.000 OA
ATOM     29  C   UNL     1      48.454   6.619  18.078  0.00  0.00    +0.000 A 
ATOM     30  H   UNL     1      49.259   3.431  17.963  0.00  0.00    +0.000 HD
ENDBRANCH  17  20
ENDBRANCH   2  16
TORSDOF 5
ENDMDL
MODEL 9
REMARK VINA RESULT:    -6.942      2.551      4.147
REMARK INTER + INTRA:          -9.866
REMARK INTER:                  -8.632
REMARK INTRA:                  -1.234
REMARK UNBOUND:                -0.894
REMARK  Name = 
REMARK  6 active torsions:
REMARK  status: ('A' for Active; 'I' for Inactive)
REMARK    1  A    between atoms: C_1  and  C_2
REMARK    2  A    between atoms: C_2  and  N_3
REMARK    3  A    between atoms: C_2  and  C_16
REMARK    4  A    between atoms: C_4  and  C_6
REMARK    5  A    between atoms: C_19  and  C_20
REMARK    6  A    between atoms: C_20  and  C_21
REMARK                            x       y       z     vdW  Elec       q    Type
REMARK                         _______ _______ _______ _____ _____    ______ ____
ROOT
ATOM      1  C   UNL     1      49.085   8.425  13.115  0.00  0.00    +0.000 C 
ATOM      2  C   UNL     1      47.912   7.836  13.904  0.00  0.00    +0.000 C 
ENDROOT
BRANCH   2   3
ATOM      3  C   UNL     1      46.880   7.104  13.057  0.00  0.00    +0.000 A 
ATOM      4  C   UNL     1      46.772   5.710  13.187  0.00  0.00    +0.000 A 
ATOM      5  C   UNL     1      45.877   4.975  12.403  0.00  0.00    +0.000 A 
ATOM      6  C   UNL     1      45.061   5.615  11.463  0.00  0.00    +0.000 A 
ATOM      7  C   UNL     1      45.158   7.009  11.335  0.00  0.00    +0.000 A 
ATOM      8  C   UNL     1      46.065   7.741  12.109  0.00  0.00    +0.000 A 
BRANCH   6   9
ATOM      9  C   UNL     1      44.076   4.827  10.627  0.00  0.00    +0.000 C 
BRANCH   9  10
ATOM     10  C   UNL     1      44.740   3.935   9.605  0.00  0.00    +0.000 A 
ATOM     11  C   UNL     1      44.667   2.543   9.713  0.00  0.00    +0.000 A 
ATOM     12  C   UNL     1      45.379   1.766   8.811  0.00  0.00    +0.000 A 
ATOM     13  N   UNL     1      46.130   2.272   7.811  0.00  0.00    +0.000 NA
ATOM     14  C   UNL     1      46.171   3.618   7.709  0.00  0.00    +0.000 A 
ATOM     15  C   UNL     1      45.501   4.479   8.565  0.00  0.00    +0.000 A 
ENDBRANCH   9  10
ENDBRANCH   6   9
ENDBRANCH   2   3
BRANCH   2  16
ATOM     16  N   UNL     1      48.381   6.952  14.955  0.00  0.00    +0.000 N 
ATOM     17  C   UNL     1      48.563   7.372  16.249  0.00  0.00    +0.000 C 
ATOM     18  O   UNL     1      48.275   8.507  16.620  0.00  0.00    +0.000 OA
ATOM     19  H   UNL     1      48.749   6.052  14.665  0.00  0.00    +0.000 HD
BRANCH  17  20
ATOM     20  C   UNL     1      49.073   6.369  17.189  0.00  0.00    +0.000 A 
ATOM     21  C   UNL     1      48.220   5.792  18.118  0.00  0.00    +0.000 A 
ATOM     22  S   UNL     1      48.986   4.656  19.135  0.00  0.00    +0.000 S 
ATOM     23  C   UNL     1      50.497   4.940  18.404  0.00  0.00    +0.000 A 
ATOM     24  N   UNL     1      51.618   4.309  18.843  0.00  0.00    +0.000 NA
ATOM     25  C   UNL     1      52.699   4.650  18.222  0.00  0.00    +0.000 A 
ATOM     26  N   UNL     1      52.757   5.553  17.191  0.00  0.00    +0.000 N 
ATOM     27  C   UNL     1      51.643   6.164  16.673  0.00  0.00    +0.000 A 
ATOM     28  O   UNL     1      51.714   6.882  15.679  0.00  0.00    +0.000 OA
ATOM     29  C   UNL     1      50.406   5.854  17.368  0.00  0.00    +0.000 A 
ATOM     30  H   UNL     1      53.631   5.750  16.730  0.00  0.00    +0.000 HD
ENDBRANCH  17  20
ENDBRANCH   2  16
TORSDOF 5
ENDMDL
