MODEL 1
REMARK VINA RESULT:    -8.489      0.000      0.000
REMARK INTER + INTRA:         -13.251
REMARK INTER:                 -12.212
REMARK INTRA:                  -1.039
REMARK UNBOUND:                -1.039
REMARK  Name = 
REMARK  8 active torsions:
REMARK  status: ('A' for Active; 'I' for Inactive)
REMARK    1  A    between atoms: C_2  and  C_21
REMARK    2  A    between atoms: N_3  and  C_4
REMARK    3  A    between atoms: C_4  and  C_5
REMARK    4  A    between atoms: C_8  and  C_9
REMARK    5  A    between atoms: C_9  and  C_10
REMARK    6  A    between atoms: C_10  and  C_11
REMARK    7  A    between atoms: C_11  and  O_12
REMARK    8  A    between atoms: C_11  and  C_13
REMARK                            x       y       z     vdW  Elec       q    Type
REMARK                         _______ _______ _______ _____ _____    ______ ____
ROOT
ATOM      1  C   UNL     1      46.360   7.403  12.792  0.00  0.00    +0.000 A 
ATOM      2  C   UNL     1      46.579   6.021  12.738  0.00  0.00    +0.000 A 
ATOM      3  C   UNL     1      45.696   5.186  12.052  0.00  0.00    +0.000 A 
ATOM      4  C   UNL     1      44.583   5.713  11.385  0.00  0.00    +0.000 A 
ATOM      5  C   UNL     1      44.384   7.101  11.404  0.00  0.00    +0.000 A 
ATOM      6  C   UNL     1      45.269   7.939  12.095  0.00  0.00    +0.000 A 
ENDROOT
BRANCH   1   7
ATOM      7  C   UNL     1      47.314   8.282  13.555  0.00  0.00    +0.000 C 
BRANCH   7  10
ATOM      8  O   UNL     1      49.742   6.924  14.134  0.00  0.00    +0.000 OA
ATOM      9  C   UNL     1      48.916   7.099  15.026  0.00  0.00    +0.000 C 
ATOM     10  N   UNL     1      47.702   7.693  14.808  0.00  0.00    +0.000 N 
ATOM     11  H   UNL     1      47.148   7.983  15.606  0.00  0.00    +0.000 HD
BRANCH   9  12
ATOM     12  C   UNL     1      49.151   6.626  16.397  0.00  0.00    +0.000 A 
ATOM     13  C   UNL     1      49.823   7.427  17.312  0.00  0.00    +0.000 A 
ATOM     14  S   UNL     1      49.995   6.697  18.850  0.00  0.00    +0.000 S 
ATOM     15  C   UNL     1      49.153   5.309  18.353  0.00  0.00    +0.000 A 
ATOM     16  N   UNL     1      48.922   4.276  19.209  0.00  0.00    +0.000 NA
ATOM     17  C   UNL     1      48.235   3.305  18.707  0.00  0.00    +0.000 A 
ATOM     18  N   UNL     1      47.768   3.269  17.419  0.00  0.00    +0.000 N 
ATOM     19  C   UNL     1      48.057   4.234  16.497  0.00  0.00    +0.000 A 
ATOM     20  O   UNL     1      47.770   4.076  15.312  0.00  0.00    +0.000 OA
ATOM     21  C   UNL     1      48.770   5.380  17.022  0.00  0.00    +0.000 A 
ATOM     22  H   UNL     1      47.284   2.453  17.070  0.00  0.00    +0.000 HD
ENDBRANCH   9  12
ENDBRANCH   7  10
ENDBRANCH   1   7
BRANCH   4  23
ATOM     23  C   UNL     1      43.639   4.808  10.625  0.00  0.00    +0.000 C 
BRANCH  23  24
ATOM     24  C   UNL     1      44.241   4.276   9.317  0.00  0.00    +0.000 C 
BRANCH  24  25
ATOM     25  C   UNL     1      44.440   2.754   9.341  0.00  0.00    +0.000 C 
BRANCH  25  26
ATOM     26  C   UNL     1      45.571   2.339   8.411  0.00  0.00    +0.000 A 
ATOM     27  C   UNL     1      46.227   3.285   7.621  0.00  0.00    +0.000 A 
ATOM     28  C   UNL     1      47.264   2.868   6.788  0.00  0.00    +0.000 A 
ATOM     29  C   UNL     1      47.623   1.527   6.765  0.00  0.00    +0.000 A 
ATOM     30  C   UNL     1      46.926   0.652   7.580  0.00  0.00    +0.000 A 
ATOM     31  N   UNL     1      45.909   1.021   8.392  0.00  0.00    +0.000 NA
ENDBRANCH  25  26
BRANCH  25  32
ATOM     32  O   UNL     1      44.742   2.344  10.678  0.00  0.00    +0.000 OA
ATOM     33  H   UNL     1      43.964   2.607  11.206  0.00  0.00    +0.000 HD
ENDBRANCH  25  32
ENDBRANCH  24  25
ENDBRANCH  23  24
ENDBRANCH   4  23
TORSDOF 8
ENDMDL
MODEL 2
REMARK VINA RESULT:    -8.276      1.944      2.547
REMARK INTER + INTRA:         -12.943
REMARK INTER:                 -11.775
REMARK INTRA:                  -1.168
REMARK UNBOUND:                -1.039
REMARK  Name = 
REMARK  8 active torsions:
REMARK  status: ('A' for Active; 'I' for Inactive)
REMARK    1  A    between atoms: C_2  and  C_21
REMARK    2  A    between atoms: N_3  and  C_4
REMARK    3  A    between atoms: C_4  and  C_5
REMARK    4  A    between atoms: C_8  and  C_9
REMARK    5  A    between atoms: C_9  and  C_10
REMARK    6  A    between atoms: C_10  and  C_11
REMARK    7  A    between atoms: C_11  and  O_12
REMARK    8  A    between atoms: C_11  and  C_13
REMARK                            x       y       z     vdW  Elec       q    Type
REMARK                         _______ _______ _______ _____ _____    ______ ____
ROOT
ATOM      1  C   UNL     1      47.275   6.155  13.135  0.00  0.00    +0.000 A 
ATOM      2  C   UNL     1      46.545   5.052  13.595  0.00  0.00    +0.000 A 
ATOM      3  C   UNL     1      45.445   4.577  12.879  0.00  0.00    +0.000 A 
ATOM      4  C   UNL     1      45.060   5.179  11.674  0.00  0.00    +0.000 A 
ATOM      5  C   UNL     1      45.814   6.258  11.192  0.00  0.00    +0.000 A 
ATOM      6  C   UNL     1      46.916   6.737  11.912  0.00  0.00    +0.000 A 
ENDROOT
BRANCH   1   7
ATOM      7  C   UNL     1      48.444   6.664  13.934  0.00  0.00    +0.000 C 
BRANCH   7  10
ATOM      8  O   UNL     1      50.447   6.294  15.917  0.00  0.00    +0.000 OA
ATOM      9  C   UNL     1      49.267   6.369  16.251  0.00  0.00    +0.000 C 
ATOM     10  N   UNL     1      48.245   6.489  15.348  0.00  0.00    +0.000 N 
ATOM     11  H   UNL     1      47.321   6.740  15.683  0.00  0.00    +0.000 HD
BRANCH   9  12
ATOM     12  C   UNL     1      48.858   6.278  17.659  0.00  0.00    +0.000 A 
ATOM     13  C   UNL     1      49.032   5.097  18.368  0.00  0.00    +0.000 A 
ATOM     14  S   UNL     1      48.491   5.194  19.988  0.00  0.00    +0.000 S 
ATOM     15  C   UNL     1      48.038   6.820  19.803  0.00  0.00    +0.000 A 
ATOM     16  N   UNL     1      47.512   7.531  20.837  0.00  0.00    +0.000 NA
ATOM     17  C   UNL     1      47.252   8.765  20.564  0.00  0.00    +0.000 A 
ATOM     18  N   UNL     1      47.461   9.352  19.343  0.00  0.00    +0.000 N 
ATOM     19  C   UNL     1      47.896   8.656  18.251  0.00  0.00    +0.000 A 
ATOM     20  O   UNL     1      47.900   9.176  17.137  0.00  0.00    +0.000 OA
ATOM     21  C   UNL     1      48.264   7.281  18.515  0.00  0.00    +0.000 A 
ATOM     22  H   UNL     1      47.184  10.309  19.178  0.00  0.00    +0.000 HD
ENDBRANCH   9  12
ENDBRANCH   7  10
ENDBRANCH   1   7
BRANCH   4  23
ATOM     23  C   UNL     1      43.880   4.649  10.889  0.00  0.00    +0.000 C 
BRANCH  23  24
ATOM     24  C   UNL     1      44.238   4.287   9.442  0.00  0.00    +0.000 C 
BRANCH  24  25
ATOM     25  C   UNL     1      44.368   2.772   9.231  0.00  0.00    +0.000 C 
BRANCH  25  26
ATOM     26  C   UNL     1      45.559   2.446   8.342  0.00  0.00    +0.000 A 
ATOM     27  C   UNL     1      46.166   3.440   7.573  0.00  0.00    +0.000 A 
ATOM     28  C   UNL     1      47.261   3.106   6.777  0.00  0.00    +0.000 A 
ATOM     29  C   UNL     1      47.723   1.797   6.769  0.00  0.00    +0.000 A 
ATOM     30  C   UNL     1      47.068   0.870   7.562  0.00  0.00    +0.000 A 
ATOM     31  N   UNL     1      45.998   1.159   8.338  0.00  0.00    +0.000 NA
ENDBRANCH  25  26
BRANCH  25  32
ATOM     32  O   UNL     1      44.529   2.136  10.503  0.00  0.00    +0.000 OA
ATOM     33  H   UNL     1      45.268   2.610  10.931  0.00  0.00    +0.000 HD
ENDBRANCH  25  32
ENDBRANCH  24  25
ENDBRANCH  23  24
ENDBRANCH   4  23
TORSDOF 8
ENDMDL
MODEL 3
REMARK VINA RESULT:    -7.839      2.689      3.480
REMARK INTER + INTRA:         -12.315
REMARK INTER:                 -11.139
REMARK INTRA:                  -1.176
REMARK UNBOUND:                -1.039
REMARK  Name = 
REMARK  8 active torsions:
REMARK  status: ('A' for Active; 'I' for Inactive)
REMARK    1  A    between atoms: C_2  and  C_21
REMARK    2  A    between atoms: N_3  and  C_4
REMARK    3  A    between atoms: C_4  and  C_5
REMARK    4  A    between atoms: C_8  and  C_9
REMARK    5  A    between atoms: C_9  and  C_10
REMARK    6  A    between atoms: C_10  and  C_11
REMARK    7  A    between atoms: C_11  and  O_12
REMARK    8  A    between atoms: C_11  and  C_13
REMARK                            x       y       z     vdW  Elec       q    Type
REMARK                         _______ _______ _______ _____ _____    ______ ____
ROOT
ATOM      1  C   UNL     1      48.186   5.918  15.246  0.00  0.00    +0.000 A 
ATOM      2  C   UNL     1      47.993   6.361  13.932  0.00  0.00    +0.000 A 
ATOM      3  C   UNL     1      47.172   5.652  13.055  0.00  0.00    +0.000 A 
ATOM      4  C   UNL     1      46.505   4.494  13.474  0.00  0.00    +0.000 A 
ATOM      5  C   UNL     1      46.665   4.072  14.801  0.00  0.00    +0.000 A 
ATOM      6  C   UNL     1      47.491   4.781  15.682  0.00  0.00    +0.000 A 
ENDROOT
BRANCH   1   7
ATOM      7  C   UNL     1      49.093   6.686  16.169  0.00  0.00    +0.000 C 
BRANCH   7  10
ATOM      8  O   UNL     1      49.530   5.913  18.869  0.00  0.00    +0.000 OA
ATOM      9  C   UNL     1      50.275   5.492  17.989  0.00  0.00    +0.000 C 
ATOM     10  N   UNL     1      50.161   5.866  16.676  0.00  0.00    +0.000 N 
ATOM     11  H   UNL     1      50.671   5.345  15.972  0.00  0.00    +0.000 HD
BRANCH   9  12
ATOM     12  C   UNL     1      51.392   4.588  18.292  0.00  0.00    +0.000 A 
ATOM     13  C   UNL     1      52.489   5.041  19.013  0.00  0.00    +0.000 A 
ATOM     14  S   UNL     1      53.681   3.839  19.260  0.00  0.00    +0.000 S 
ATOM     15  C   UNL     1      52.759   2.671  18.441  0.00  0.00    +0.000 A 
ATOM     16  N   UNL     1      53.198   1.390  18.305  0.00  0.00    +0.000 NA
ATOM     17  C   UNL     1      52.376   0.603  17.697  0.00  0.00    +0.000 A 
ATOM     18  N   UNL     1      51.157   0.984  17.201  0.00  0.00    +0.000 N 
ATOM     19  C   UNL     1      50.717   2.277  17.227  0.00  0.00    +0.000 A 
ATOM     20  O   UNL     1      49.703   2.608  16.616  0.00  0.00    +0.000 OA
ATOM     21  C   UNL     1      51.570   3.193  17.955  0.00  0.00    +0.000 A 
ATOM     22  H   UNL     1      50.584   0.332  16.684  0.00  0.00    +0.000 HD
ENDBRANCH   9  12
ENDBRANCH   7  10
ENDBRANCH   1   7
BRANCH   4  23
ATOM     23  C   UNL     1      45.598   3.739  12.527  0.00  0.00    +0.000 C 
BRANCH  23  24
ATOM     24  C   UNL     1      44.474   4.611  11.952  0.00  0.00    +0.000 C 
BRANCH  24  25
ATOM     25  C   UNL     1      43.675   3.889  10.856  0.00  0.00    +0.000 C 
BRANCH  25  26
ATOM     26  C   UNL     1      44.587   3.452   9.718  0.00  0.00    +0.000 A 
ATOM     27  C   UNL     1      45.219   4.396   8.909  0.00  0.00    +0.000 A 
ATOM     28  C   UNL     1      46.054   3.958   7.882  0.00  0.00    +0.000 A 
ATOM     29  C   UNL     1      46.239   2.595   7.690  0.00  0.00    +0.000 A 
ATOM     30  C   UNL     1      45.578   1.722   8.536  0.00  0.00    +0.000 A 
ATOM     31  N   UNL     1      44.755   2.114   9.536  0.00  0.00    +0.000 NA
ENDBRANCH  25  26
BRANCH  25  32
ATOM     32  O   UNL     1      43.033   2.745  11.425  0.00  0.00    +0.000 OA
ATOM     33  H   UNL     1      42.097   2.819  11.155  0.00  0.00    +0.000 HD
ENDBRANCH  25  32
ENDBRANCH  24  25
ENDBRANCH  23  24
ENDBRANCH   4  23
TORSDOF 8
ENDMDL
MODEL 4
REMARK VINA RESULT:    -7.531      2.109      2.599
REMARK INTER + INTRA:         -11.872
REMARK INTER:                 -10.767
REMARK INTRA:                  -1.104
REMARK UNBOUND:                -1.039
REMARK  Name = 
REMARK  8 active torsions:
REMARK  status: ('A' for Active; 'I' for Inactive)
REMARK    1  A    between atoms: C_2  and  C_21
REMARK    2  A    between atoms: N_3  and  C_4
REMARK    3  A    between atoms: C_4  and  C_5
REMARK    4  A    between atoms: C_8  and  C_9
REMARK    5  A    between atoms: C_9  and  C_10
REMARK    6  A    between atoms: C_10  and  C_11
REMARK    7  A    between atoms: C_11  and  O_12
REMARK    8  A    between atoms: C_11  and  C_13
REMARK                            x       y       z     vdW  Elec       q    Type
REMARK                         _______ _______ _______ _____ _____    ______ ____
ROOT
ATOM      1  C   UNL     1      46.805   7.602  13.055  0.00  0.00    +0.000 A 
ATOM      2  C   UNL     1      45.966   7.666  11.936  0.00  0.00    +0.000 A 
ATOM      3  C   UNL     1      45.425   6.504  11.383  0.00  0.00    +0.000 A 
ATOM      4  C   UNL     1      45.692   5.250  11.947  0.00  0.00    +0.000 A 
ATOM      5  C   UNL     1      46.499   5.188  13.092  0.00  0.00    +0.000 A 
ATOM      6  C   UNL     1      47.044   6.353  13.646  0.00  0.00    +0.000 A 
ENDROOT
BRANCH   1   7
ATOM      7  C   UNL     1      47.394   8.865  13.623  0.00  0.00    +0.000 C 
BRANCH   7  10
ATOM      8  O   UNL     1      49.379   9.907  15.370  0.00  0.00    +0.000 OA
ATOM      9  C   UNL     1      48.343   9.441  15.836  0.00  0.00    +0.000 C 
ATOM     10  N   UNL     1      47.370   8.869  15.061  0.00  0.00    +0.000 N 
ATOM     11  H   UNL     1      46.463   8.680  15.473  0.00  0.00    +0.000 HD
BRANCH   9  12
ATOM     12  C   UNL     1      48.096   9.410  17.284  0.00  0.00    +0.000 A 
ATOM     13  C   UNL     1      47.827  10.583  17.977  0.00  0.00    +0.000 A 
ATOM     14  S   UNL     1      47.569  10.335  19.651  0.00  0.00    +0.000 S 
ATOM     15  C   UNL     1      47.775   8.656  19.496  0.00  0.00    +0.000 A 
ATOM     16  N   UNL     1      47.661   7.827  20.569  0.00  0.00    +0.000 NA
ATOM     17  C   UNL     1      47.803   6.573  20.296  0.00  0.00    +0.000 A 
ATOM     18  N   UNL     1      48.061   6.074  19.046  0.00  0.00    +0.000 N 
ATOM     19  C   UNL     1      48.280   6.872  17.959  0.00  0.00    +0.000 A 
ATOM     20  O   UNL     1      48.682   6.394  16.901  0.00  0.00    +0.000 OA
ATOM     21  C   UNL     1      48.070   8.286  18.193  0.00  0.00    +0.000 A 
ATOM     22  H   UNL     1      48.217   5.085  18.909  0.00  0.00    +0.000 HD
ENDBRANCH   9  12
ENDBRANCH   7  10
ENDBRANCH   1   7
BRANCH   4  23
ATOM     23  C   UNL     1      45.088   3.995  11.359  0.00  0.00    +0.000 C 
BRANCH  23  24
ATOM     24  C   UNL     1      44.453   4.224   9.981  0.00  0.00    +0.000 C 
BRANCH  24  25
ATOM     25  C   UNL     1      44.322   2.925   9.172  0.00  0.00    +0.000 C 
BRANCH  25  26
ATOM     26  C   UNL     1      45.518   2.735   8.251  0.00  0.00    +0.000 A 
ATOM     27  C   UNL     1      46.171   1.505   8.176  0.00  0.00    +0.000 A 
ATOM     28  C   UNL     1      47.258   1.366   7.313  0.00  0.00    +0.000 A 
ATOM     29  C   UNL     1      47.662   2.452   6.548  0.00  0.00    +0.000 A 
ATOM     30  C   UNL     1      46.961   3.638   6.678  0.00  0.00    +0.000 A 
ATOM     31  N   UNL     1      45.909   3.808   7.511  0.00  0.00    +0.000 NA
ENDBRANCH  25  26
BRANCH  25  32
ATOM     32  O   UNL     1      44.231   1.820  10.076  0.00  0.00    +0.000 OA
ATOM     33  H   UNL     1      45.083   1.350   9.990  0.00  0.00    +0.000 HD
ENDBRANCH  25  32
ENDBRANCH  24  25
ENDBRANCH  23  24
ENDBRANCH   4  23
TORSDOF 8
ENDMDL
MODEL 5
REMARK VINA RESULT:    -7.238      3.336      8.128
REMARK INTER + INTRA:         -11.450
REMARK INTER:                  -9.800
REMARK INTRA:                  -1.650
REMARK UNBOUND:                -1.039
REMARK  Name = 
REMARK  8 active torsions:
REMARK  status: ('A' for Active; 'I' for Inactive)
REMARK    1  A    between atoms: C_2  and  C_21
REMARK    2  A    between atoms: N_3  and  C_4
REMARK    3  A    between atoms: C_4  and  C_5
REMARK    4  A    between atoms: C_8  and  C_9
REMARK    5  A    between atoms: C_9  and  C_10
REMARK    6  A    between atoms: C_10  and  C_11
REMARK    7  A    between atoms: C_11  and  O_12
REMARK    8  A    between atoms: C_11  and  C_13
REMARK                            x       y       z     vdW  Elec       q    Type
REMARK                         _______ _______ _______ _____ _____    ______ ____
ROOT
ATOM      1  C   UNL     1      48.344   8.010  13.754  0.00  0.00    +0.000 A 
ATOM      2  C   UNL     1      48.223   9.123  14.596  0.00  0.00    +0.000 A 
ATOM      3  C   UNL     1      48.411   8.999  15.973  0.00  0.00    +0.000 A 
ATOM      4  C   UNL     1      48.744   7.764  16.543  0.00  0.00    +0.000 A 
ATOM      5  C   UNL     1      48.905   6.657  15.697  0.00  0.00    +0.000 A 
ATOM      6  C   UNL     1      48.715   6.780  14.315  0.00  0.00    +0.000 A 
ENDROOT
BRANCH   1   7
ATOM      7  C   UNL     1      48.117   8.163  12.275  0.00  0.00    +0.000 C 
BRANCH   7  10
ATOM      8  O   UNL     1      45.327   7.969  11.769  0.00  0.00    +0.000 OA
ATOM      9  C   UNL     1      46.067   7.040  11.457  0.00  0.00    +0.000 C 
ATOM     10  N   UNL     1      47.410   7.038  11.722  0.00  0.00    +0.000 N 
ATOM     11  H   UNL     1      47.997   6.343  11.275  0.00  0.00    +0.000 HD
BRANCH   9  12
ATOM     12  C   UNL     1      45.548   5.823  10.820  0.00  0.00    +0.000 A 
ATOM     13  C   UNL     1      45.830   5.550   9.487  0.00  0.00    +0.000 A 
ATOM     14  S   UNL     1      45.135   4.089   8.933  0.00  0.00    +0.000 S 
ATOM     15  C   UNL     1      44.465   3.759  10.459  0.00  0.00    +0.000 A 
ATOM     16  N   UNL     1      43.746   2.626  10.687  0.00  0.00    +0.000 NA
ATOM     17  C   UNL     1      43.332   2.488  11.902  0.00  0.00    +0.000 A 
ATOM     18  N   UNL     1      43.563   3.388  12.909  0.00  0.00    +0.000 N 
ATOM     19  C   UNL     1      44.194   4.582  12.706  0.00  0.00    +0.000 A 
ATOM     20  O   UNL     1      44.223   5.435  13.591  0.00  0.00    +0.000 OA
ATOM     21  C   UNL     1      44.737   4.763  11.375  0.00  0.00    +0.000 A 
ATOM     22  H   UNL     1      43.163   3.248  13.826  0.00  0.00    +0.000 HD
ENDBRANCH   9  12
ENDBRANCH   7  10
ENDBRANCH   1   7
BRANCH   4  23
ATOM     23  C   UNL     1      48.968   7.636  18.033  0.00  0.00    +0.000 C 
BRANCH  23  24
ATOM     24  C   UNL     1      47.710   7.191  18.791  0.00  0.00    +0.000 C 
BRANCH  24  25
ATOM     25  C   UNL     1      47.911   5.858  19.527  0.00  0.00    +0.000 C 
BRANCH  25  26
ATOM     26  C   UNL     1      48.107   4.716  18.540  0.00  0.00    +0.000 A 
ATOM     27  C   UNL     1      49.329   4.049  18.457  0.00  0.00    +0.000 A 
ATOM     28  C   UNL     1      49.468   3.001  17.547  0.00  0.00    +0.000 A 
ATOM     29  C   UNL     1      48.389   2.644  16.749  0.00  0.00    +0.000 A 
ATOM     30  C   UNL     1      47.210   3.354  16.894  0.00  0.00    +0.000 A 
ATOM     31  N   UNL     1      47.044   4.380  17.759  0.00  0.00    +0.000 NA
ENDBRANCH  25  26
BRANCH  25  32
ATOM     32  O   UNL     1      49.057   5.962  20.377  0.00  0.00    +0.000 OA
ATOM     33  H   UNL     1      49.647   6.599  19.930  0.00  0.00    +0.000 HD
ENDBRANCH  25  32
ENDBRANCH  24  25
ENDBRANCH  23  24
ENDBRANCH   4  23
TORSDOF 8
ENDMDL
MODEL 6
REMARK VINA RESULT:    -7.174      2.991      8.560
REMARK INTER + INTRA:         -11.358
REMARK INTER:                  -9.622
REMARK INTRA:                  -1.735
REMARK UNBOUND:                -1.039
REMARK  Name = 
REMARK  8 active torsions:
REMARK  status: ('A' for Active; 'I' for Inactive)
REMARK    1  A    between atoms: C_2  and  C_21
REMARK    2  A    between atoms: N_3  and  C_4
REMARK    3  A    between atoms: C_4  and  C_5
REMARK    4  A    between atoms: C_8  and  C_9
REMARK    5  A    between atoms: C_9  and  C_10
REMARK    6  A    between atoms: C_10  and  C_11
REMARK    7  A    between atoms: C_11  and  O_12
REMARK    8  A    between atoms: C_11  and  C_13
REMARK                            x       y       z     vdW  Elec       q    Type
REMARK                         _______ _______ _______ _____ _____    ______ ____
ROOT
ATOM      1  C   UNL     1      47.923   7.770  13.526  0.00  0.00    +0.000 A 
ATOM      2  C   UNL     1      48.456   6.640  14.157  0.00  0.00    +0.000 A 
ATOM      3  C   UNL     1      48.918   6.710  15.471  0.00  0.00    +0.000 A 
ATOM      4  C   UNL     1      48.841   7.905  16.197  0.00  0.00    +0.000 A 
ATOM      5  C   UNL     1      48.271   9.028  15.580  0.00  0.00    +0.000 A 
ATOM      6  C   UNL     1      47.808   8.959  14.259  0.00  0.00    +0.000 A 
ENDROOT
BRANCH   1   7
ATOM      7  C   UNL     1      47.449   7.678  12.100  0.00  0.00    +0.000 C 
BRANCH   7  10
ATOM      8  O   UNL     1      44.628   7.397  11.894  0.00  0.00    +0.000 OA
ATOM      9  C   UNL     1      45.351   6.420  11.718  0.00  0.00    +0.000 C 
ATOM     10  N   UNL     1      46.712   6.466  11.857  0.00  0.00    +0.000 N 
ATOM     11  H   UNL     1      47.268   5.691  11.514  0.00  0.00    +0.000 HD
BRANCH   9  12
ATOM     12  C   UNL     1      44.795   5.099  11.395  0.00  0.00    +0.000 A 
ATOM     13  C   UNL     1      44.028   4.411  12.327  0.00  0.00    +0.000 A 
ATOM     14  S   UNL     1      43.476   2.894  11.761  0.00  0.00    +0.000 S 
ATOM     15  C   UNL     1      44.215   3.121  10.248  0.00  0.00    +0.000 A 
ATOM     16  N   UNL     1      44.113   2.188   9.263  0.00  0.00    +0.000 NA
ATOM     17  C   UNL     1      44.690   2.512   8.155  0.00  0.00    +0.000 A 
ATOM     18  N   UNL     1      45.371   3.682   7.946  0.00  0.00    +0.000 N 
ATOM     19  C   UNL     1      45.582   4.604   8.932  0.00  0.00    +0.000 A 
ATOM     20  O   UNL     1      46.346   5.550   8.754  0.00  0.00    +0.000 OA
ATOM     21  C   UNL     1      44.903   4.323  10.180  0.00  0.00    +0.000 A 
ATOM     22  H   UNL     1      45.849   3.851   7.072  0.00  0.00    +0.000 HD
ENDBRANCH   9  12
ENDBRANCH   7  10
ENDBRANCH   1   7
BRANCH   4  23
ATOM     23  C   UNL     1      49.324   7.973  17.628  0.00  0.00    +0.000 C 
BRANCH  23  24
ATOM     24  C   UNL     1      48.212   7.698  18.649  0.00  0.00    +0.000 C 
BRANCH  24  25
ATOM     25  C   UNL     1      48.487   6.442  19.490  0.00  0.00    +0.000 C 
BRANCH  25  26
ATOM     26  C   UNL     1      48.411   5.187  18.634  0.00  0.00    +0.000 A 
ATOM     27  C   UNL     1      47.220   4.825  18.003  0.00  0.00    +0.000 A 
ATOM     28  C   UNL     1      47.192   3.673  17.219  0.00  0.00    +0.000 A 
ATOM     29  C   UNL     1      48.347   2.915  17.080  0.00  0.00    +0.000 A 
ATOM     30  C   UNL     1      49.489   3.342  17.735  0.00  0.00    +0.000 A 
ATOM     31  N   UNL     1      49.548   4.449  18.511  0.00  0.00    +0.000 NA
ENDBRANCH  25  26
BRANCH  25  32
ATOM     32  O   UNL     1      49.787   6.548  20.076  0.00  0.00    +0.000 OA
ATOM     33  H   UNL     1      50.145   7.396  19.748  0.00  0.00    +0.000 HD
ENDBRANCH  25  32
ENDBRANCH  24  25
ENDBRANCH  23  24
ENDBRANCH   4  23
TORSDOF 8
ENDMDL
MODEL 7
REMARK VINA RESULT:    -7.057      5.094      9.396
REMARK INTER + INTRA:         -11.190
REMARK INTER:                 -10.133
REMARK INTRA:                  -1.058
REMARK UNBOUND:                -1.039
REMARK  Name = 
REMARK  8 active torsions:
REMARK  status: ('A' for Active; 'I' for Inactive)
REMARK    1  A    between atoms: C_2  and  C_21
REMARK    2  A    between atoms: N_3  and  C_4
REMARK    3  A    between atoms: C_4  and  C_5
REMARK    4  A    between atoms: C_8  and  C_9
REMARK    5  A    between atoms: C_9  and  C_10
REMARK    6  A    between atoms: C_10  and  C_11
REMARK    7  A    between atoms: C_11  and  O_12
REMARK    8  A    between atoms: C_11  and  C_13
REMARK                            x       y       z     vdW  Elec       q    Type
REMARK                         _______ _______ _______ _____ _____    ______ ____
ROOT
ATOM      1  C   UNL     1      49.636   4.610  17.384  0.00  0.00    +0.000 A 
ATOM      2  C   UNL     1      49.009   3.364  17.252  0.00  0.00    +0.000 A 
ATOM      3  C   UNL     1      49.756   2.187  17.252  0.00  0.00    +0.000 A 
ATOM      4  C   UNL     1      51.148   2.221  17.406  0.00  0.00    +0.000 A 
ATOM      5  C   UNL     1      51.774   3.463  17.578  0.00  0.00    +0.000 A 
ATOM      6  C   UNL     1      51.024   4.647  17.575  0.00  0.00    +0.000 A 
ENDROOT
BRANCH   1   7
ATOM      7  C   UNL     1      48.812   5.869  17.359  0.00  0.00    +0.000 C 
BRANCH   7  10
ATOM      8  O   UNL     1      49.597   6.660  14.745  0.00  0.00    +0.000 OA
ATOM      9  C   UNL     1      48.446   6.284  14.946  0.00  0.00    +0.000 C 
ATOM     10  N   UNL     1      47.981   5.944  16.188  0.00  0.00    +0.000 N 
ATOM     11  H   UNL     1      47.092   5.461  16.264  0.00  0.00    +0.000 HD
BRANCH   9  12
ATOM     12  C   UNL     1      47.454   6.226  13.863  0.00  0.00    +0.000 A 
ATOM     13  C   UNL     1      47.091   7.379  13.179  0.00  0.00    +0.000 A 
ATOM     14  S   UNL     1      45.924   7.102  11.958  0.00  0.00    +0.000 S 
ATOM     15  C   UNL     1      45.892   5.435  12.284  0.00  0.00    +0.000 A 
ATOM     16  N   UNL     1      45.101   4.589  11.569  0.00  0.00    +0.000 NA
ATOM     17  C   UNL     1      45.208   3.346  11.898  0.00  0.00    +0.000 A 
ATOM     18  N   UNL     1      46.028   2.872  12.889  0.00  0.00    +0.000 N 
ATOM     19  C   UNL     1      46.766   3.691  13.696  0.00  0.00    +0.000 A 
ATOM     20  O   UNL     1      47.346   3.243  14.682  0.00  0.00    +0.000 OA
ATOM     21  C   UNL     1      46.734   5.092  13.331  0.00  0.00    +0.000 A 
ATOM     22  H   UNL     1      46.024   1.893  13.136  0.00  0.00    +0.000 HD
ENDBRANCH   9  12
ENDBRANCH   7  10
ENDBRANCH   1   7
BRANCH   4  23
ATOM     23  C   UNL     1      51.954   0.941  17.427  0.00  0.00    +0.000 C 
BRANCH  23  24
ATOM     24  C   UNL     1      53.443   1.175  17.717  0.00  0.00    +0.000 C 
BRANCH  24  25
ATOM     25  C   UNL     1      54.340   0.102  17.084  0.00  0.00    +0.000 C 
BRANCH  25  26
ATOM     26  C   UNL     1      54.662  -0.998  18.086  0.00  0.00    +0.000 A 
ATOM     27  C   UNL     1      55.015  -2.276  17.651  0.00  0.00    +0.000 A 
ATOM     28  C   UNL     1      55.313  -3.255  18.599  0.00  0.00    +0.000 A 
ATOM     29  C   UNL     1      55.255  -2.936  19.949  0.00  0.00    +0.000 A 
ATOM     30  C   UNL     1      54.898  -1.645  20.298  0.00  0.00    +0.000 A 
ATOM     31  N   UNL     1      54.594  -0.675  19.406  0.00  0.00    +0.000 NA
ENDBRANCH  25  26
BRANCH  25  32
ATOM     32  O   UNL     1      53.668  -0.460  15.953  0.00  0.00    +0.000 OA
ATOM     33  H   UNL     1      54.378  -0.696  15.326  0.00  0.00    +0.000 HD
ENDBRANCH  25  32
ENDBRANCH  24  25
ENDBRANCH  23  24
ENDBRANCH   4  23
TORSDOF 8
ENDMDL
MODEL 8
REMARK VINA RESULT:    -7.056      2.075      2.628
REMARK INTER + INTRA:         -11.189
REMARK INTER:                 -10.174
REMARK INTRA:                  -1.014
REMARK UNBOUND:                -1.039
REMARK  Name = 
REMARK  8 active torsions:
REMARK  status: ('A' for Active; 'I' for Inactive)
REMARK    1  A    between atoms: C_2  and  C_21
REMARK    2  A    between atoms: N_3  and  C_4
REMARK    3  A    between atoms: C_4  and  C_5
REMARK    4  A    between atoms: C_8  and  C_9
REMARK    5  A    between atoms: C_9  and  C_10
REMARK    6  A    between atoms: C_10  and  C_11
REMARK    7  A    between atoms: C_11  and  O_12
REMARK    8  A    between atoms: C_11  and  C_13
REMARK                            x       y       z     vdW  Elec       q    Type
REMARK                         _______ _______ _______ _____ _____    ______ ____
ROOT
ATOM      1  C   UNL     1      46.537   8.026  12.469  0.00  0.00    +0.000 A 
ATOM      2  C   UNL     1      45.215   8.297  12.095  0.00  0.00    +0.000 A 
ATOM      3  C   UNL     1      44.393   7.284  11.600  0.00  0.00    +0.000 A 
ATOM      4  C   UNL     1      44.864   5.970  11.485  0.00  0.00    +0.000 A 
ATOM      5  C   UNL     1      46.174   5.689  11.896  0.00  0.00    +0.000 A 
ATOM      6  C   UNL     1      47.001   6.705  12.391  0.00  0.00    +0.000 A 
ENDROOT
BRANCH   1   7
ATOM      7  C   UNL     1      47.413   9.137  12.981  0.00  0.00    +0.000 C 
BRANCH   7  10
ATOM      8  O   UNL     1      48.761   9.918  15.358  0.00  0.00    +0.000 OA
ATOM      9  C   UNL     1      49.238   9.034  14.652  0.00  0.00    +0.000 C 
ATOM     10  N   UNL     1      48.675   8.646  13.465  0.00  0.00    +0.000 N 
ATOM     11  H   UNL     1      48.997   7.791  13.026  0.00  0.00    +0.000 HD
BRANCH   9  12
ATOM     12  C   UNL     1      50.493   8.358  15.005  0.00  0.00    +0.000 A 
ATOM     13  C   UNL     1      51.706   8.823  14.514  0.00  0.00    +0.000 A 
ATOM     14  S   UNL     1      53.048   7.901  15.039  0.00  0.00    +0.000 S 
ATOM     15  C   UNL     1      52.057   6.874  15.961  0.00  0.00    +0.000 A 
ATOM     16  N   UNL     1      52.582   5.856  16.696  0.00  0.00    +0.000 NA
ATOM     17  C   UNL     1      51.717   5.184  17.378  0.00  0.00    +0.000 A 
ATOM     18  N   UNL     1      50.369   5.431  17.382  0.00  0.00    +0.000 N 
ATOM     19  C   UNL     1      49.786   6.377  16.588  0.00  0.00    +0.000 A 
ATOM     20  O   UNL     1      48.563   6.445  16.488  0.00  0.00    +0.000 OA
ATOM     21  C   UNL     1      50.716   7.205  15.849  0.00  0.00    +0.000 A 
ATOM     22  H   UNL     1      49.737   4.831  17.894  0.00  0.00    +0.000 HD
ENDBRANCH   9  12
ENDBRANCH   7  10
ENDBRANCH   1   7
BRANCH   4  23
ATOM     23  C   UNL     1      43.964   4.870  10.967  0.00  0.00    +0.000 C 
BRANCH  23  24
ATOM     24  C   UNL     1      44.283   4.465   9.522  0.00  0.00    +0.000 C 
BRANCH  24  25
ATOM     25  C   UNL     1      44.602   2.968   9.390  0.00  0.00    +0.000 C 
BRANCH  25  26
ATOM     26  C   UNL     1      45.617   2.725   8.282  0.00  0.00    +0.000 A 
ATOM     27  C   UNL     1      46.269   1.496   8.172  0.00  0.00    +0.000 A 
ATOM     28  C   UNL     1      47.186   1.307   7.139  0.00  0.00    +0.000 A 
ATOM     29  C   UNL     1      47.427   2.341   6.244  0.00  0.00    +0.000 A 
ATOM     30  C   UNL     1      46.739   3.528   6.420  0.00  0.00    +0.000 A 
ATOM     31  N   UNL     1      45.850   3.748   7.416  0.00  0.00    +0.000 NA
ENDBRANCH  25  26
BRANCH  25  32
ATOM     32  O   UNL     1      45.121   2.490  10.633  0.00  0.00    +0.000 OA
ATOM     33  H   UNL     1      44.510   1.780  10.908  0.00  0.00    +0.000 HD
ENDBRANCH  25  32
ENDBRANCH  24  25
ENDBRANCH  23  24
ENDBRANCH   4  23
TORSDOF 8
ENDMDL
MODEL 9
REMARK VINA RESULT:    -7.055      4.684      9.486
REMARK INTER + INTRA:         -11.188
REMARK INTER:                 -10.107
REMARK INTRA:                  -1.080
REMARK UNBOUND:                -1.039
REMARK  Name = 
REMARK  8 active torsions:
REMARK  status: ('A' for Active; 'I' for Inactive)
REMARK    1  A    between atoms: C_2  and  C_21
REMARK    2  A    between atoms: N_3  and  C_4
REMARK    3  A    between atoms: C_4  and  C_5
REMARK    4  A    between atoms: C_8  and  C_9
REMARK    5  A    between atoms: C_9  and  C_10
REMARK    6  A    between atoms: C_10  and  C_11
REMARK    7  A    between atoms: C_11  and  O_12
REMARK    8  A    between atoms: C_11  and  C_13
REMARK                            x       y       z     vdW  Elec       q    Type
REMARK                         _______ _______ _______ _____ _____    ______ ____
ROOT
ATOM      1  C   UNL     1      48.636   3.654  17.110  0.00  0.00    +0.000 A 
ATOM      2  C   UNL     1      49.452   2.517  17.129  0.00  0.00    +0.000 A 
ATOM      3  C   UNL     1      50.816   2.623  17.406  0.00  0.00    +0.000 A 
ATOM      4  C   UNL     1      51.395   3.865  17.692  0.00  0.00    +0.000 A 
ATOM      5  C   UNL     1      50.572   5.000  17.713  0.00  0.00    +0.000 A 
ATOM      6  C   UNL     1      49.204   4.895  17.432  0.00  0.00    +0.000 A 
ENDROOT
BRANCH   1   7
ATOM      7  C   UNL     1      47.172   3.520  16.788  0.00  0.00    +0.000 C 
BRANCH   7  10
ATOM      8  O   UNL     1      47.249   3.123  13.975  0.00  0.00    +0.000 OA
ATOM      9  C   UNL     1      46.777   4.162  14.429  0.00  0.00    +0.000 C 
ATOM     10  N   UNL     1      46.760   4.447  15.768  0.00  0.00    +0.000 N 
ATOM     11  H   UNL     1      46.191   5.219  16.098  0.00  0.00    +0.000 HD
BRANCH   9  12
ATOM     12  C   UNL     1      46.242   5.213  13.554  0.00  0.00    +0.000 A 
ATOM     13  C   UNL     1      47.001   6.339  13.260  0.00  0.00    +0.000 A 
ATOM     14  S   UNL     1      46.201   7.444  12.227  0.00  0.00    +0.000 S 
ATOM     15  C   UNL     1      44.834   6.441  12.114  0.00  0.00    +0.000 A 
ATOM     16  N   UNL     1      43.762   6.789  11.351  0.00  0.00    +0.000 NA
ATOM     17  C   UNL     1      42.814   5.914  11.327  0.00  0.00    +0.000 A 
ATOM     18  N   UNL     1      42.836   4.724  12.008  0.00  0.00    +0.000 N 
ATOM     19  C   UNL     1      43.845   4.376  12.860  0.00  0.00    +0.000 A 
ATOM     20  O   UNL     1      43.741   3.389  13.584  0.00  0.00    +0.000 OA
ATOM     21  C   UNL     1      44.966   5.292  12.878  0.00  0.00    +0.000 A 
ATOM     22  H   UNL     1      42.036   4.107  11.992  0.00  0.00    +0.000 HD
ENDBRANCH   9  12
ENDBRANCH   7  10
ENDBRANCH   1   7
BRANCH   4  23
ATOM     23  C   UNL     1      52.869   3.975  18.012  0.00  0.00    +0.000 C 
BRANCH  23  24
ATOM     24  C   UNL     1      53.295   3.086  19.188  0.00  0.00    +0.000 C 
BRANCH  24  25
ATOM     25  C   UNL     1      54.719   2.536  19.022  0.00  0.00    +0.000 C 
BRANCH  25  26
ATOM     26  C   UNL     1      54.694   1.120  18.465  0.00  0.00    +0.000 A 
ATOM     27  C   UNL     1      54.721   0.896  17.088  0.00  0.00    +0.000 A 
ATOM     28  C   UNL     1      54.706  -0.415  16.615  0.00  0.00    +0.000 A 
ATOM     29  C   UNL     1      54.668  -1.466  17.522  0.00  0.00    +0.000 A 
ATOM     30  C   UNL     1      54.646  -1.161  18.871  0.00  0.00    +0.000 A 
ATOM     31  N   UNL     1      54.650   0.099  19.363  0.00  0.00    +0.000 NA
ENDBRANCH  25  26
BRANCH  25  32
ATOM     32  O   UNL     1      55.448   3.390  18.136  0.00  0.00    +0.000 OA
ATOM     33  H   UNL     1      55.854   2.789  17.481  0.00  0.00    +0.000 HD
ENDBRANCH  25  32
ENDBRANCH  24  25
ENDBRANCH  23  24
ENDBRANCH   4  23
TORSDOF 8
ENDMDL
