MODEL 1
REMARK VINA RESULT:    -7.514      0.000      0.000
REMARK INTER + INTRA:         -11.573
REMARK INTER:                 -10.588
REMARK INTRA:                  -0.985
REMARK UNBOUND:                -0.985
REMARK  Name = 
REMARK  8 active torsions:
REMARK  status: ('A' for Active; 'I' for Inactive)
REMARK    1  A    between atoms: C_1  and  C_2
REMARK    2  A    between atoms: C_2  and  C_3
REMARK    3  A    between atoms: C_2  and  C_5
REMARK    4  A    between atoms: C_2  and  C_16
REMARK    5  A    between atoms: C_5  and  O_6
REMARK    6  A    between atoms: O_6  and  C_7
REMARK    7  A    between atoms: C_10  and  C_11
REMARK    8  A    between atoms: C_20  and  C_21
REMARK                            x       y       z     vdW  Elec       q    Type
REMARK                         _______ _______ _______ _____ _____    ______ ____
ROOT
ATOM      1  C   UNL     1      42.823   5.034  13.281  0.00  0.00    +0.000 C 
ATOM      2  C   UNL     1      43.830   5.307  12.138  0.00  0.00    +0.000 C 
ENDROOT
BRANCH   2   3
ATOM      3  C   UNL     1      45.283   5.475  12.618  0.00  0.00    +0.000 A 
ATOM      4  C   UNL     1      46.218   6.283  11.947  0.00  0.00    +0.000 A 
ATOM      5  C   UNL     1      47.531   6.400  12.408  0.00  0.00    +0.000 A 
ATOM      6  C   UNL     1      47.936   5.734  13.561  0.00  0.00    +0.000 A 
ATOM      7  C   UNL     1      47.030   4.937  14.268  0.00  0.00    +0.000 A 
ATOM      8  C   UNL     1      45.720   4.799  13.776  0.00  0.00    +0.000 A 
BRANCH   7   9
ATOM      9  C   UNL     1      47.425   4.260  15.558  0.00  0.00    +0.000 C 
ATOM     10  F   UNL     1      47.796   2.959  15.398  0.00  0.00    +0.000 F 
ATOM     11  F   UNL     1      48.481   4.877  16.157  0.00  0.00    +0.000 F 
ATOM     12  F   UNL     1      46.423   4.256  16.480  0.00  0.00    +0.000 F 
ENDBRANCH   7   9
ENDBRANCH   2   3
BRANCH   2  13
ATOM     13  C   UNL     1      43.373   6.586  11.455  0.00  0.00    +0.000 C 
ATOM     14  N   UNL     1      42.993   7.647  10.889  0.00  0.00    +0.000 NA
ENDBRANCH   2  13
BRANCH   2  15
ATOM     15  C   UNL     1      43.734   4.144  11.113  0.00  0.00    +0.000 C 
BRANCH  15  16
ATOM     16  O   UNL     1      43.839   4.623   9.756  0.00  0.00    +0.000 OA
BRANCH  16  17
ATOM     17  C   UNL     1      44.831   3.986   9.046  0.00  0.00    +0.000 A 
ATOM     18  C   UNL     1      44.957   2.601   9.142  0.00  0.00    +0.000 A 
ATOM     19  N   UNL     1      45.897   1.888   8.462  0.00  0.00    +0.000 NA
ATOM     20  C   UNL     1      46.709   2.638   7.664  0.00  0.00    +0.000 A 
ATOM     21  C   UNL     1      46.586   4.021   7.571  0.00  0.00    +0.000 A 
ATOM     22  N   UNL     1      45.652   4.721   8.264  0.00  0.00    +0.000 NA
BRANCH  20  23
ATOM     23  C   UNL     1      47.755   1.949   6.854  0.00  0.00    +0.000 C 
ATOM     24  N   UNL     1      48.642   2.743   6.179  0.00  0.00    +0.000 N 
ATOM     25  O   UNL     1      47.825   0.728   6.795  0.00  0.00    +0.000 OA
ATOM     26  H   UNL     1      48.595   3.755   6.234  0.00  0.00    +0.000 HD
ATOM     27  H   UNL     1      49.366   2.302   5.633  0.00  0.00    +0.000 HD
ENDBRANCH  20  23
ENDBRANCH  16  17
ENDBRANCH  15  16
ENDBRANCH   2  15
TORSDOF 7
ENDMDL
MODEL 2
REMARK VINA RESULT:    -7.121      1.874      2.438
REMARK INTER + INTRA:         -11.019
REMARK INTER:                 -10.019
REMARK INTRA:                  -1.000
REMARK UNBOUND:                -0.985
REMARK  Name = 
REMARK  8 active torsions:
REMARK  status: ('A' for Active; 'I' for Inactive)
REMARK    1  A    between atoms: C_1  and  C_2
REMARK    2  A    between atoms: C_2  and  C_3
REMARK    3  A    between atoms: C_2  and  C_5
REMARK    4  A    between atoms: C_2  and  C_16
REMARK    5  A    between atoms: C_5  and  O_6
REMARK    6  A    between atoms: O_6  and  C_7
REMARK    7  A    between atoms: C_10  and  C_11
REMARK    8  A    between atoms: C_20  and  C_21
REMARK                            x       y       z     vdW  Elec       q    Type
REMARK                         _______ _______ _______ _____ _____    ______ ____
ROOT
ATOM      1  C   UNL     1      42.683   5.196  13.058  0.00  0.00    +0.000 C 
ATOM      2  C   UNL     1      43.805   5.415  12.015  0.00  0.00    +0.000 C 
ENDROOT
BRANCH   2   3
ATOM      3  C   UNL     1      45.223   5.383  12.613  0.00  0.00    +0.000 A 
ATOM      4  C   UNL     1      45.628   4.427  13.562  0.00  0.00    +0.000 A 
ATOM      5  C   UNL     1      46.921   4.439  14.090  0.00  0.00    +0.000 A 
ATOM      6  C   UNL     1      47.846   5.389  13.668  0.00  0.00    +0.000 A 
ATOM      7  C   UNL     1      47.489   6.343  12.711  0.00  0.00    +0.000 A 
ATOM      8  C   UNL     1      46.174   6.344  12.212  0.00  0.00    +0.000 A 
BRANCH   7   9
ATOM      9  C   UNL     1      48.493   7.340  12.186  0.00  0.00    +0.000 C 
ATOM     10  F   UNL     1      48.432   7.516  10.837  0.00  0.00    +0.000 F 
ATOM     11  F   UNL     1      48.317   8.577  12.731  0.00  0.00    +0.000 F 
ATOM     12  F   UNL     1      49.779   6.989  12.463  0.00  0.00    +0.000 F 
ENDBRANCH   7   9
ENDBRANCH   2   3
BRANCH   2  13
ATOM     13  C   UNL     1      43.551   6.775  11.386  0.00  0.00    +0.000 C 
ATOM     14  N   UNL     1      43.341   7.903  10.864  0.00  0.00    +0.000 NA
ENDBRANCH   2  13
BRANCH   2  15
ATOM     15  C   UNL     1      43.664   4.331  10.911  0.00  0.00    +0.000 C 
BRANCH  15  16
ATOM     16  O   UNL     1      43.958   4.866   9.603  0.00  0.00    +0.000 OA
BRANCH  16  17
ATOM     17  C   UNL     1      44.902   4.124   8.930  0.00  0.00    +0.000 A 
ATOM     18  C   UNL     1      44.941   2.742   9.111  0.00  0.00    +0.000 A 
ATOM     19  N   UNL     1      45.829   1.930   8.473  0.00  0.00    +0.000 NA
ATOM     20  C   UNL     1      46.679   2.576   7.626  0.00  0.00    +0.000 A 
ATOM     21  C   UNL     1      46.644   3.956   7.449  0.00  0.00    +0.000 A 
ATOM     22  N   UNL     1      45.762   4.755   8.101  0.00  0.00    +0.000 NA
BRANCH  20  23
ATOM     23  C   UNL     1      47.673   1.773   6.857  0.00  0.00    +0.000 C 
ATOM     24  N   UNL     1      48.390   2.429   5.892  0.00  0.00    +0.000 N 
ATOM     25  O   UNL     1      47.848   0.581   7.075  0.00  0.00    +0.000 OA
ATOM     26  H   UNL     1      48.256   3.419   5.715  0.00  0.00    +0.000 HD
ATOM     27  H   UNL     1      49.076   1.912   5.365  0.00  0.00    +0.000 HD
ENDBRANCH  20  23
ENDBRANCH  16  17
ENDBRANCH  15  16
ENDBRANCH   2  15
TORSDOF 7
ENDMDL
MODEL 3
REMARK VINA RESULT:    -6.907      4.912      7.449
REMARK INTER + INTRA:         -10.718
REMARK INTER:                  -9.926
REMARK INTRA:                  -0.792
REMARK UNBOUND:                -0.985
REMARK  Name = 
REMARK  8 active torsions:
REMARK  status: ('A' for Active; 'I' for Inactive)
REMARK    1  A    between atoms: C_1  and  C_2
REMARK    2  A    between atoms: C_2  and  C_3
REMARK    3  A    between atoms: C_2  and  C_5
REMARK    4  A    between atoms: C_2  and  C_16
REMARK    5  A    between atoms: C_5  and  O_6
REMARK    6  A    between atoms: O_6  and  C_7
REMARK    7  A    between atoms: C_10  and  C_11
REMARK    8  A    between atoms: C_20  and  C_21
REMARK                            x       y       z     vdW  Elec       q    Type
REMARK                         _______ _______ _______ _____ _____    ______ ____
ROOT
ATOM      1  C   UNL     1      45.436   6.485  10.948  0.00  0.00    +0.000 C 
ATOM      2  C   UNL     1      44.729   5.188  11.410  0.00  0.00    +0.000 C 
ENDROOT
BRANCH   2   3
ATOM      3  C   UNL     1      44.846   4.026  10.407  0.00  0.00    +0.000 A 
ATOM      4  C   UNL     1      44.101   2.840  10.527  0.00  0.00    +0.000 A 
ATOM      5  C   UNL     1      44.244   1.802   9.603  0.00  0.00    +0.000 A 
ATOM      6  C   UNL     1      45.115   1.934   8.525  0.00  0.00    +0.000 A 
ATOM      7  C   UNL     1      45.857   3.107   8.358  0.00  0.00    +0.000 A 
ATOM      8  C   UNL     1      45.732   4.131   9.314  0.00  0.00    +0.000 A 
BRANCH   7   9
ATOM      9  C   UNL     1      46.756   3.302   7.161  0.00  0.00    +0.000 C 
ATOM     10  F   UNL     1      46.141   3.048   5.972  0.00  0.00    +0.000 F 
ATOM     11  F   UNL     1      47.221   4.580   7.075  0.00  0.00    +0.000 F 
ATOM     12  F   UNL     1      47.858   2.504   7.194  0.00  0.00    +0.000 F 
ENDBRANCH   7   9
ENDBRANCH   2   3
BRANCH   2  13
ATOM     13  C   UNL     1      43.264   5.541  11.607  0.00  0.00    +0.000 C 
ATOM     14  N   UNL     1      42.048   5.833  11.770  0.00  0.00    +0.000 NA
ENDBRANCH   2  13
BRANCH   2  15
ATOM     15  C   UNL     1      45.321   4.773  12.785  0.00  0.00    +0.000 C 
BRANCH  15  16
ATOM     16  O   UNL     1      46.642   5.322  12.982  0.00  0.00    +0.000 OA
BRANCH  16  17
ATOM     17  C   UNL     1      47.136   5.069  14.241  0.00  0.00    +0.000 A 
ATOM     18  C   UNL     1      48.117   5.907  14.770  0.00  0.00    +0.000 A 
ATOM     19  N   UNL     1      48.648   5.742  16.013  0.00  0.00    +0.000 NA
ATOM     20  C   UNL     1      48.135   4.691  16.713  0.00  0.00    +0.000 A 
ATOM     21  C   UNL     1      47.160   3.853  16.184  0.00  0.00    +0.000 A 
ATOM     22  N   UNL     1      46.647   4.020  14.939  0.00  0.00    +0.000 NA
BRANCH  20  23
ATOM     23  C   UNL     1      48.631   4.441  18.098  0.00  0.00    +0.000 C 
ATOM     24  N   UNL     1      48.197   3.300  18.717  0.00  0.00    +0.000 N 
ATOM     25  O   UNL     1      49.394   5.215  18.659  0.00  0.00    +0.000 OA
ATOM     26  H   UNL     1      47.574   2.649  18.251  0.00  0.00    +0.000 HD
ATOM     27  H   UNL     1      48.526   3.100  19.649  0.00  0.00    +0.000 HD
ENDBRANCH  20  23
ENDBRANCH  16  17
ENDBRANCH  15  16
ENDBRANCH   2  15
TORSDOF 7
ENDMDL
MODEL 4
REMARK VINA RESULT:    -6.636      5.021      7.451
REMARK INTER + INTRA:         -10.337
REMARK INTER:                  -9.500
REMARK INTRA:                  -0.837
REMARK UNBOUND:                -0.985
REMARK  Name = 
REMARK  8 active torsions:
REMARK  status: ('A' for Active; 'I' for Inactive)
REMARK    1  A    between atoms: C_1  and  C_2
REMARK    2  A    between atoms: C_2  and  C_3
REMARK    3  A    between atoms: C_2  and  C_5
REMARK    4  A    between atoms: C_2  and  C_16
REMARK    5  A    between atoms: C_5  and  O_6
REMARK    6  A    between atoms: O_6  and  C_7
REMARK    7  A    between atoms: C_10  and  C_11
REMARK    8  A    between atoms: C_20  and  C_21
REMARK                            x       y       z     vdW  Elec       q    Type
REMARK                         _______ _______ _______ _____ _____    ______ ____
ROOT
ATOM      1  C   UNL     1      47.666   7.276  11.404  0.00  0.00    +0.000 C 
ATOM      2  C   UNL     1      46.277   7.074  12.057  0.00  0.00    +0.000 C 
ENDROOT
BRANCH   2   3
ATOM      3  C   UNL     1      45.372   6.088  11.297  0.00  0.00    +0.000 A 
ATOM      4  C   UNL     1      44.032   5.855  11.654  0.00  0.00    +0.000 A 
ATOM      5  C   UNL     1      43.245   4.943  10.947  0.00  0.00    +0.000 A 
ATOM      6  C   UNL     1      43.770   4.260   9.853  0.00  0.00    +0.000 A 
ATOM      7  C   UNL     1      45.091   4.480   9.453  0.00  0.00    +0.000 A 
ATOM      8  C   UNL     1      45.884   5.374  10.194  0.00  0.00    +0.000 A 
BRANCH   7   9
ATOM      9  C   UNL     1      45.662   3.804   8.230  0.00  0.00    +0.000 C 
ATOM     10  F   UNL     1      46.155   2.558   8.477  0.00  0.00    +0.000 F 
ATOM     11  F   UNL     1      44.728   3.648   7.250  0.00  0.00    +0.000 F 
ATOM     12  F   UNL     1      46.681   4.508   7.666  0.00  0.00    +0.000 F 
ENDBRANCH   7   9
ENDBRANCH   2   3
BRANCH   2  13
ATOM     13  C   UNL     1      45.615   8.441  12.096  0.00  0.00    +0.000 C 
ATOM     14  N   UNL     1      45.065   9.576  12.129  0.00  0.00    +0.000 NA
ENDBRANCH   2  13
BRANCH   2  15
ATOM     15  C   UNL     1      46.490   6.591  13.518  0.00  0.00    +0.000 C 
BRANCH  15  16
ATOM     16  O   UNL     1      46.900   5.208  13.565  0.00  0.00    +0.000 OA
BRANCH  16  17
ATOM     17  C   UNL     1      47.450   4.862  14.778  0.00  0.00    +0.000 A 
ATOM     18  C   UNL     1      48.174   5.813  15.496  0.00  0.00    +0.000 A 
ATOM     19  N   UNL     1      48.737   5.563  16.710  0.00  0.00    +0.000 NA
ATOM     20  C   UNL     1      48.527   4.301  17.182  0.00  0.00    +0.000 A 
ATOM     21  C   UNL     1      47.809   3.351  16.464  0.00  0.00    +0.000 A 
ATOM     22  N   UNL     1      47.264   3.609  15.249  0.00  0.00    +0.000 NA
BRANCH  20  23
ATOM     23  C   UNL     1      49.079   3.934  18.519  0.00  0.00    +0.000 C 
ATOM     24  N   UNL     1      48.304   3.132  19.312  0.00  0.00    +0.000 N 
ATOM     25  O   UNL     1      50.176   4.326  18.893  0.00  0.00    +0.000 OA
ATOM     26  H   UNL     1      47.399   2.795  19.001  0.00  0.00    +0.000 HD
ATOM     27  H   UNL     1      48.659   2.859  20.216  0.00  0.00    +0.000 HD
ENDBRANCH  20  23
ENDBRANCH  16  17
ENDBRANCH  15  16
ENDBRANCH   2  15
TORSDOF 7
ENDMDL
MODEL 5
REMARK VINA RESULT:    -6.532      4.217      6.471
REMARK INTER + INTRA:         -10.190
REMARK INTER:                  -9.392
REMARK INTRA:                  -0.798
REMARK UNBOUND:                -0.985
REMARK  Name = 
REMARK  8 active torsions:
REMARK  status: ('A' for Active; 'I' for Inactive)
REMARK    1  A    between atoms: C_1  and  C_2
REMARK    2  A    between atoms: C_2  and  C_3
REMARK    3  A    between atoms: C_2  and  C_5
REMARK    4  A    between atoms: C_2  and  C_16
REMARK    5  A    between atoms: C_5  and  O_6
REMARK    6  A    between atoms: O_6  and  C_7
REMARK    7  A    between atoms: C_10  and  C_11
REMARK    8  A    between atoms: C_20  and  C_21
REMARK                            x       y       z     vdW  Elec       q    Type
REMARK                         _______ _______ _______ _____ _____    ______ ____
ROOT
ATOM      1  C   UNL     1      47.272   2.882  17.354  0.00  0.00    +0.000 C 
ATOM      2  C   UNL     1      48.057   4.210  17.226  0.00  0.00    +0.000 C 
ENDROOT
BRANCH   2   3
ATOM      3  C   UNL     1      49.578   4.050  17.396  0.00  0.00    +0.000 A 
ATOM      4  C   UNL     1      50.449   5.146  17.526  0.00  0.00    +0.000 A 
ATOM      5  C   UNL     1      51.826   4.960  17.667  0.00  0.00    +0.000 A 
ATOM      6  C   UNL     1      52.364   3.677  17.705  0.00  0.00    +0.000 A 
ATOM      7  C   UNL     1      51.529   2.560  17.600  0.00  0.00    +0.000 A 
ATOM      8  C   UNL     1      50.148   2.760  17.424  0.00  0.00    +0.000 A 
BRANCH   7   9
ATOM      9  C   UNL     1      52.079   1.159  17.708  0.00  0.00    +0.000 C 
ATOM     10  F   UNL     1      51.177   0.256  18.185  0.00  0.00    +0.000 F 
ATOM     11  F   UNL     1      52.486   0.676  16.501  0.00  0.00    +0.000 F 
ATOM     12  F   UNL     1      53.162   1.079  18.528  0.00  0.00    +0.000 F 
ENDBRANCH   7   9
ENDBRANCH   2   3
BRANCH   2  13
ATOM     13  C   UNL     1      47.522   5.134  18.308  0.00  0.00    +0.000 C 
ATOM     14  N   UNL     1      47.078   5.901  19.205  0.00  0.00    +0.000 NA
ENDBRANCH   2  13
BRANCH   2  15
ATOM     15  C   UNL     1      47.734   4.837  15.843  0.00  0.00    +0.000 C 
BRANCH  15  16
ATOM     16  O   UNL     1      47.664   3.833  14.808  0.00  0.00    +0.000 OA
BRANCH  16  17
ATOM     17  C   UNL     1      46.706   4.117  13.861  0.00  0.00    +0.000 A 
ATOM     18  C   UNL     1      46.390   5.447  13.587  0.00  0.00    +0.000 A 
ATOM     19  N   UNL     1      45.470   5.819  12.655  0.00  0.00    +0.000 NA
ATOM     20  C   UNL     1      44.881   4.782  11.995  0.00  0.00    +0.000 A 
ATOM     21  C   UNL     1      45.193   3.454  12.272  0.00  0.00    +0.000 A 
ATOM     22  N   UNL     1      46.103   3.097  13.212  0.00  0.00    +0.000 NA
BRANCH  20  23
ATOM     23  C   UNL     1      43.878   5.084  10.933  0.00  0.00    +0.000 C 
ATOM     24  N   UNL     1      44.255   4.852   9.638  0.00  0.00    +0.000 N 
ATOM     25  O   UNL     1      42.764   5.515  11.202  0.00  0.00    +0.000 OA
ATOM     26  H   UNL     1      45.173   4.484   9.411  0.00  0.00    +0.000 HD
ATOM     27  H   UNL     1      43.592   5.037   8.901  0.00  0.00    +0.000 HD
ENDBRANCH  20  23
ENDBRANCH  16  17
ENDBRANCH  15  16
ENDBRANCH   2  15
TORSDOF 7
ENDMDL
MODEL 6
REMARK VINA RESULT:    -6.267      4.698      7.052
REMARK INTER + INTRA:          -9.816
REMARK INTER:                  -8.991
REMARK INTRA:                  -0.825
REMARK UNBOUND:                -0.985
REMARK  Name = 
REMARK  8 active torsions:
REMARK  status: ('A' for Active; 'I' for Inactive)
REMARK    1  A    between atoms: C_1  and  C_2
REMARK    2  A    between atoms: C_2  and  C_3
REMARK    3  A    between atoms: C_2  and  C_5
REMARK    4  A    between atoms: C_2  and  C_16
REMARK    5  A    between atoms: C_5  and  O_6
REMARK    6  A    between atoms: O_6  and  C_7
REMARK    7  A    between atoms: C_10  and  C_11
REMARK    8  A    between atoms: C_20  and  C_21
REMARK                            x       y       z     vdW  Elec       q    Type
REMARK                         _______ _______ _______ _____ _____    ______ ____
ROOT
ATOM      1  C   UNL     1      43.277   6.114  11.016  0.00  0.00    +0.000 C 
ATOM      2  C   UNL     1      44.595   5.332  11.229  0.00  0.00    +0.000 C 
ENDROOT
BRANCH   2   3
ATOM      3  C   UNL     1      44.757   4.121  10.293  0.00  0.00    +0.000 A 
ATOM      4  C   UNL     1      44.044   2.921  10.470  0.00  0.00    +0.000 A 
ATOM      5  C   UNL     1      44.227   1.840   9.606  0.00  0.00    +0.000 A 
ATOM      6  C   UNL     1      45.107   1.937   8.531  0.00  0.00    +0.000 A 
ATOM      7  C   UNL     1      45.818   3.120   8.309  0.00  0.00    +0.000 A 
ATOM      8  C   UNL     1      45.652   4.190   9.205  0.00  0.00    +0.000 A 
BRANCH   7   9
ATOM      9  C   UNL     1      46.725   3.275   7.112  0.00  0.00    +0.000 C 
ATOM     10  F   UNL     1      47.194   4.544   6.945  0.00  0.00    +0.000 F 
ATOM     11  F   UNL     1      47.828   2.480   7.201  0.00  0.00    +0.000 F 
ATOM     12  F   UNL     1      46.116   2.940   5.942  0.00  0.00    +0.000 F 
ENDBRANCH   7   9
ENDBRANCH   2   3
BRANCH   2  13
ATOM     13  C   UNL     1      44.587   4.857  12.673  0.00  0.00    +0.000 C 
ATOM     14  N   UNL     1      44.580   4.464  13.871  0.00  0.00    +0.000 NA
ENDBRANCH   2  13
BRANCH   2  15
ATOM     15  C   UNL     1      45.782   6.316  11.044  0.00  0.00    +0.000 C 
BRANCH  15  16
ATOM     16  O   UNL     1      45.722   7.403  11.992  0.00  0.00    +0.000 OA
BRANCH  16  17
ATOM     17  C   UNL     1      46.853   7.486  12.773  0.00  0.00    +0.000 A 
ATOM     18  C   UNL     1      47.868   6.545  12.606  0.00  0.00    +0.000 A 
ATOM     19  N   UNL     1      49.026   6.561  13.322  0.00  0.00    +0.000 NA
ATOM     20  C   UNL     1      49.124   7.585  14.216  0.00  0.00    +0.000 A 
ATOM     21  C   UNL     1      48.110   8.521  14.386  0.00  0.00    +0.000 A 
ATOM     22  N   UNL     1      46.955   8.486  13.675  0.00  0.00    +0.000 NA
BRANCH  20  23
ATOM     23  C   UNL     1      50.368   7.709  15.031  0.00  0.00    +0.000 C 
ATOM     24  N   UNL     1      51.559   7.664  14.358  0.00  0.00    +0.000 N 
ATOM     25  O   UNL     1      50.331   7.849  16.246  0.00  0.00    +0.000 OA
ATOM     26  H   UNL     1      51.594   7.560  13.350  0.00  0.00    +0.000 HD
ATOM     27  H   UNL     1      52.414   7.757  14.884  0.00  0.00    +0.000 HD
ENDBRANCH  20  23
ENDBRANCH  16  17
ENDBRANCH  15  16
ENDBRANCH   2  15
TORSDOF 7
ENDMDL
MODEL 7
REMARK VINA RESULT:    -6.062      3.353      5.403
REMARK INTER + INTRA:          -9.528
REMARK INTER:                  -8.568
REMARK INTRA:                  -0.959
REMARK UNBOUND:                -0.985
REMARK  Name = 
REMARK  8 active torsions:
REMARK  status: ('A' for Active; 'I' for Inactive)
REMARK    1  A    between atoms: C_1  and  C_2
REMARK    2  A    between atoms: C_2  and  C_3
REMARK    3  A    between atoms: C_2  and  C_5
REMARK    4  A    between atoms: C_2  and  C_16
REMARK    5  A    between atoms: C_5  and  O_6
REMARK    6  A    between atoms: O_6  and  C_7
REMARK    7  A    between atoms: C_10  and  C_11
REMARK    8  A    between atoms: C_20  and  C_21
REMARK                            x       y       z     vdW  Elec       q    Type
REMARK                         _______ _______ _______ _____ _____    ______ ____
ROOT
ATOM      1  C   UNL     1      48.230   8.882  15.005  0.00  0.00    +0.000 C 
ATOM      2  C   UNL     1      48.935   7.505  15.045  0.00  0.00    +0.000 C 
ENDROOT
BRANCH   2   3
ATOM      3  C   UNL     1      48.707   6.730  16.355  0.00  0.00    +0.000 A 
ATOM      4  C   UNL     1      48.633   7.360  17.610  0.00  0.00    +0.000 A 
ATOM      5  C   UNL     1      48.437   6.620  18.778  0.00  0.00    +0.000 A 
ATOM      6  C   UNL     1      48.287   5.237  18.719  0.00  0.00    +0.000 A 
ATOM      7  C   UNL     1      48.333   4.575  17.489  0.00  0.00    +0.000 A 
ATOM      8  C   UNL     1      48.566   5.327  16.323  0.00  0.00    +0.000 A 
BRANCH   7   9
ATOM      9  C   UNL     1      48.105   3.087  17.391  0.00  0.00    +0.000 C 
ATOM     10  F   UNL     1      48.877   2.360  18.246  0.00  0.00    +0.000 F 
ATOM     11  F   UNL     1      46.816   2.748  17.674  0.00  0.00    +0.000 F 
ATOM     12  F   UNL     1      48.356   2.595  16.146  0.00  0.00    +0.000 F 
ENDBRANCH   7   9
ENDBRANCH   2   3
BRANCH   2  13
ATOM     13  C   UNL     1      50.421   7.775  14.869  0.00  0.00    +0.000 C 
ATOM     14  N   UNL     1      51.653   7.998  14.722  0.00  0.00    +0.000 NA
ENDBRANCH   2  13
BRANCH   2  15
ATOM     15  C   UNL     1      48.443   6.669  13.833  0.00  0.00    +0.000 C 
BRANCH  15  16
ATOM     16  O   UNL     1      47.159   7.128  13.358  0.00  0.00    +0.000 OA
BRANCH  16  17
ATOM     17  C   UNL     1      46.431   6.127  12.755  0.00  0.00    +0.000 A 
ATOM     18  C   UNL     1      46.196   4.941  13.449  0.00  0.00    +0.000 A 
ATOM     19  N   UNL     1      45.472   3.907  12.938  0.00  0.00    +0.000 NA
ATOM     20  C   UNL     1      44.978   4.126  11.686  0.00  0.00    +0.000 A 
ATOM     21  C   UNL     1      45.216   5.308  10.992  0.00  0.00    +0.000 A 
ATOM     22  N   UNL     1      45.950   6.326  11.508  0.00  0.00    +0.000 NA
BRANCH  20  23
ATOM     23  C   UNL     1      44.147   3.066  11.047  0.00  0.00    +0.000 C 
ATOM     24  N   UNL     1      44.731   2.335  10.048  0.00  0.00    +0.000 N 
ATOM     25  O   UNL     1      42.994   2.851  11.398  0.00  0.00    +0.000 OA
ATOM     26  H   UNL     1      45.690   2.502   9.761  0.00  0.00    +0.000 HD
ATOM     27  H   UNL     1      44.195   1.604   9.606  0.00  0.00    +0.000 HD
ENDBRANCH  20  23
ENDBRANCH  16  17
ENDBRANCH  15  16
ENDBRANCH   2  15
TORSDOF 7
ENDMDL
MODEL 8
REMARK VINA RESULT:    -6.046      4.065      6.466
REMARK INTER + INTRA:          -9.505
REMARK INTER:                  -8.711
REMARK INTRA:                  -0.794
REMARK UNBOUND:                -0.985
REMARK  Name = 
REMARK  8 active torsions:
REMARK  status: ('A' for Active; 'I' for Inactive)
REMARK    1  A    between atoms: C_1  and  C_2
REMARK    2  A    between atoms: C_2  and  C_3
REMARK    3  A    between atoms: C_2  and  C_5
REMARK    4  A    between atoms: C_2  and  C_16
REMARK    5  A    between atoms: C_5  and  O_6
REMARK    6  A    between atoms: O_6  and  C_7
REMARK    7  A    between atoms: C_10  and  C_11
REMARK    8  A    between atoms: C_20  and  C_21
REMARK                            x       y       z     vdW  Elec       q    Type
REMARK                         _______ _______ _______ _____ _____    ______ ____
ROOT
ATOM      1  C   UNL     1      47.225   2.890  17.354  0.00  0.00    +0.000 C 
ATOM      2  C   UNL     1      47.994   4.223  17.185  0.00  0.00    +0.000 C 
ENDROOT
BRANCH   2   3
ATOM      3  C   UNL     1      49.519   4.083  17.337  0.00  0.00    +0.000 A 
ATOM      4  C   UNL     1      50.151   2.847  17.568  0.00  0.00    +0.000 A 
ATOM      5  C   UNL     1      51.537   2.763  17.712  0.00  0.00    +0.000 A 
ATOM      6  C   UNL     1      52.328   3.904  17.608  0.00  0.00    +0.000 A 
ATOM      7  C   UNL     1      51.740   5.147  17.358  0.00  0.00    +0.000 A 
ATOM      8  C   UNL     1      50.340   5.226  17.248  0.00  0.00    +0.000 A 
BRANCH   7   9
ATOM      9  C   UNL     1      52.580   6.387  17.171  0.00  0.00    +0.000 C 
ATOM     10  F   UNL     1      53.644   6.457  18.019  0.00  0.00    +0.000 F 
ATOM     11  F   UNL     1      53.099   6.468  15.914  0.00  0.00    +0.000 F 
ATOM     12  F   UNL     1      51.873   7.536  17.359  0.00  0.00    +0.000 F 
ENDBRANCH   7   9
ENDBRANCH   2   3
BRANCH   2  13
ATOM     13  C   UNL     1      47.463   5.166  18.252  0.00  0.00    +0.000 C 
ATOM     14  N   UNL     1      47.023   5.948  19.138  0.00  0.00    +0.000 NA
ENDBRANCH   2  13
BRANCH   2  15
ATOM     15  C   UNL     1      47.646   4.815  15.792  0.00  0.00    +0.000 C 
BRANCH  15  16
ATOM     16  O   UNL     1      47.506   3.780  14.795  0.00  0.00    +0.000 OA
BRANCH  16  17
ATOM     17  C   UNL     1      46.560   4.088  13.844  0.00  0.00    +0.000 A 
ATOM     18  C   UNL     1      46.192   5.419  13.653  0.00  0.00    +0.000 A 
ATOM     19  N   UNL     1      45.280   5.816  12.723  0.00  0.00    +0.000 NA
ATOM     20  C   UNL     1      44.755   4.803  11.977  0.00  0.00    +0.000 A 
ATOM     21  C   UNL     1      45.119   3.474  12.170  0.00  0.00    +0.000 A 
ATOM     22  N   UNL     1      46.020   3.091  13.109  0.00  0.00    +0.000 NA
BRANCH  20  23
ATOM     23  C   UNL     1      43.766   5.135  10.910  0.00  0.00    +0.000 C 
ATOM     24  N   UNL     1      44.025   4.659   9.653  0.00  0.00    +0.000 N 
ATOM     25  O   UNL     1      42.765   5.799  11.143  0.00  0.00    +0.000 OA
ATOM     26  H   UNL     1      44.847   4.098   9.458  0.00  0.00    +0.000 HD
ATOM     27  H   UNL     1      43.366   4.859   8.916  0.00  0.00    +0.000 HD
ENDBRANCH  20  23
ENDBRANCH  16  17
ENDBRANCH  15  16
ENDBRANCH   2  15
TORSDOF 7
ENDMDL
MODEL 9
REMARK VINA RESULT:    -5.735      4.828      7.363
REMARK INTER + INTRA:          -9.066
REMARK INTER:                  -8.303
REMARK INTRA:                  -0.764
REMARK UNBOUND:                -0.985
REMARK  Name = 
REMARK  8 active torsions:
REMARK  status: ('A' for Active; 'I' for Inactive)
REMARK    1  A    between atoms: C_1  and  C_2
REMARK    2  A    between atoms: C_2  and  C_3
REMARK    3  A    between atoms: C_2  and  C_5
REMARK    4  A    between atoms: C_2  and  C_16
REMARK    5  A    between atoms: C_5  and  O_6
REMARK    6  A    between atoms: O_6  and  C_7
REMARK    7  A    between atoms: C_10  and  C_11
REMARK    8  A    between atoms: C_20  and  C_21
REMARK                            x       y       z     vdW  Elec       q    Type
REMARK                         _______ _______ _______ _____ _____    ______ ____
ROOT
ATOM      1  C   UNL     1      48.529   7.490  11.688  0.00  0.00    +0.000 C 
ATOM      2  C   UNL     1      47.089   7.312  12.227  0.00  0.00    +0.000 C 
ENDROOT
BRANCH   2   3
ATOM      3  C   UNL     1      46.252   6.291  11.436  0.00  0.00    +0.000 A 
ATOM      4  C   UNL     1      46.367   6.128  10.044  0.00  0.00    +0.000 A 
ATOM      5  C   UNL     1      45.582   5.198   9.359  0.00  0.00    +0.000 A 
ATOM      6  C   UNL     1      44.680   4.393  10.050  0.00  0.00    +0.000 A 
ATOM      7  C   UNL     1      44.552   4.509  11.437  0.00  0.00    +0.000 A 
ATOM      8  C   UNL     1      45.323   5.473  12.111  0.00  0.00    +0.000 A 
BRANCH   7   9
ATOM      9  C   UNL     1      43.633   3.601  12.218  0.00  0.00    +0.000 C 
ATOM     10  F   UNL     1      43.021   4.217  13.268  0.00  0.00    +0.000 F 
ATOM     11  F   UNL     1      42.630   3.102  11.443  0.00  0.00    +0.000 F 
ATOM     12  F   UNL     1      44.277   2.520  12.738  0.00  0.00    +0.000 F 
ENDBRANCH   7   9
ENDBRANCH   2   3
BRANCH   2  13
ATOM     13  C   UNL     1      46.426   8.677  12.149  0.00  0.00    +0.000 C 
ATOM     14  N   UNL     1      45.876   9.810  12.084  0.00  0.00    +0.000 NA
ENDBRANCH   2  13
BRANCH   2  15
ATOM     15  C   UNL     1      47.174   6.894  13.721  0.00  0.00    +0.000 C 
BRANCH  15  16
ATOM     16  O   UNL     1      48.072   5.779  13.909  0.00  0.00    +0.000 OA
BRANCH  16  17
ATOM     17  C   UNL     1      48.215   5.435  15.234  0.00  0.00    +0.000 A 
ATOM     18  C   UNL     1      47.334   4.514  15.799  0.00  0.00    +0.000 A 
ATOM     19  N   UNL     1      47.413   4.103  17.096  0.00  0.00    +0.000 NA
ATOM     20  C   UNL     1      48.436   4.659  17.804  0.00  0.00    +0.000 A 
ATOM     21  C   UNL     1      49.313   5.582  17.241  0.00  0.00    +0.000 A 
ATOM     22  N   UNL     1      49.215   5.992  15.952  0.00  0.00    +0.000 NA
BRANCH  20  23
ATOM     23  C   UNL     1      48.627   4.254  19.227  0.00  0.00    +0.000 C 
ATOM     24  N   UNL     1      48.223   2.993  19.574  0.00  0.00    +0.000 N 
ATOM     25  O   UNL     1      49.126   5.008  20.051  0.00  0.00    +0.000 OA
ATOM     26  H   UNL     1      47.819   2.360  18.891  0.00  0.00    +0.000 HD
ATOM     27  H   UNL     1      48.351   2.689  20.527  0.00  0.00    +0.000 HD
ENDBRANCH  20  23
ENDBRANCH  16  17
ENDBRANCH  15  16
ENDBRANCH   2  15
TORSDOF 7
ENDMDL
