MODEL 1
REMARK VINA RESULT:    -9.015      0.000      0.000
REMARK INTER + INTRA:         -13.025
REMARK INTER:                 -12.177
REMARK INTRA:                  -0.848
REMARK UNBOUND:                -0.848
REMARK  Name = 
REMARK  6 active torsions:
REMARK  status: ('A' for Active; 'I' for Inactive)
REMARK    1  A    between atoms: C_2  and  C_4
REMARK    2  A    between atoms: N_8  and  C_9
REMARK    3  A    between atoms: C_9  and  C_10
REMARK    4  A    between atoms: C_10  and  C_11
REMARK    5  A    between atoms: C_15  and  O_16
REMARK    6  A    between atoms: O_16  and  C_17
REMARK                            x       y       z     vdW  Elec       q    Type
REMARK                         _______ _______ _______ _____ _____    ______ ____
ROOT
ATOM      1  C   UNL     1      46.461   2.510   7.695  0.00  0.00    +0.000 A 
ATOM      2  C   UNL     1      45.604   1.867   8.582  0.00  0.00    +0.000 A 
ATOM      3  C   UNL     1      44.678   2.624   9.296  0.00  0.00    +0.000 A 
ATOM      4  C   UNL     1      44.637   4.006   9.135  0.00  0.00    +0.000 A 
ATOM      5  N   UNL     1      43.693   4.812   9.754  0.00  0.00    +0.000 N 
ATOM      6  N   UNL     1      45.486   4.643   8.303  0.00  0.00    +0.000 NA
ATOM      7  C   UNL     1      46.380   3.889   7.606  0.00  0.00    +0.000 A 
ATOM      8  H   UNL     1      43.980   5.774   9.593  0.00  0.00    +0.000 HD
ENDROOT
BRANCH   1  10
ATOM      9  N   UNL     1      48.546   2.474   6.451  0.00  0.00    +0.000 N 
ATOM     10  C   UNL     1      47.439   1.781   6.861  0.00  0.00    +0.000 C 
ATOM     11  O   UNL     1      47.289   0.601   6.579  0.00  0.00    +0.000 OA
ATOM     12  H   UNL     1      49.260   1.937   5.974  0.00  0.00    +0.000 HD
ATOM     13  H   UNL     1      48.824   3.351   6.864  0.00  0.00    +0.000 HD
ENDBRANCH   1  10
BRANCH   5  14
ATOM     14  C   UNL     1      43.284   4.486  11.115  0.00  0.00    +0.000 C 
BRANCH  14  15
ATOM     15  C   UNL     1      43.517   5.676  12.054  0.00  0.00    +0.000 C 
BRANCH  15  16
ATOM     16  C   UNL     1      44.928   5.676  12.594  0.00  0.00    +0.000 A 
ATOM     17  C   UNL     1      45.801   6.732  12.307  0.00  0.00    +0.000 A 
ATOM     18  C   UNL     1      47.089   6.750  12.846  0.00  0.00    +0.000 A 
ATOM     19  C   UNL     1      47.522   5.715  13.678  0.00  0.00    +0.000 A 
ATOM     20  C   UNL     1      46.662   4.660  13.970  0.00  0.00    +0.000 A 
ATOM     21  C   UNL     1      45.370   4.646  13.437  0.00  0.00    +0.000 A 
BRANCH  20  22
ATOM     22  O   UNL     1      46.967   3.613  14.804  0.00  0.00    +0.000 OA
BRANCH  22  23
ATOM     23  C   UNL     1      47.819   3.851  15.946  0.00  0.00    +0.000 C 
ATOM     24  C   UNL     1      48.470   2.614  16.607  0.00  0.00    +0.000 C 
ATOM     25  C   UNL     1      47.993   3.112  17.977  0.00  0.00    +0.000 C 
ATOM     26  C   UNL     1      47.044   4.082  17.266  0.00  0.00    +0.000 C 
ENDBRANCH  22  23
ENDBRANCH  20  22
ENDBRANCH  15  16
ENDBRANCH  14  15
ENDBRANCH   5  14
TORSDOF 6
ENDMDL
MODEL 2
REMARK VINA RESULT:    -8.312      1.888      3.552
REMARK INTER + INTRA:         -12.075
REMARK INTER:                 -11.151
REMARK INTRA:                  -0.924
REMARK UNBOUND:                -0.848
REMARK  Name = 
REMARK  6 active torsions:
REMARK  status: ('A' for Active; 'I' for Inactive)
REMARK    1  A    between atoms: C_2  and  C_4
REMARK    2  A    between atoms: N_8  and  C_9
REMARK    3  A    between atoms: C_9  and  C_10
REMARK    4  A    between atoms: C_10  and  C_11
REMARK    5  A    between atoms: C_15  and  O_16
REMARK    6  A    between atoms: O_16  and  C_17
REMARK                            x       y       z     vdW  Elec       q    Type
REMARK                         _______ _______ _______ _____ _____    ______ ____
ROOT
ATOM      1  C   UNL     1      46.370   2.372   7.813  0.00  0.00    +0.000 A 
ATOM      2  C   UNL     1      45.476   1.789   8.704  0.00  0.00    +0.000 A 
ATOM      3  C   UNL     1      44.565   2.602   9.378  0.00  0.00    +0.000 A 
ATOM      4  C   UNL     1      44.577   3.979   9.171  0.00  0.00    +0.000 A 
ATOM      5  N   UNL     1      43.652   4.837   9.747  0.00  0.00    +0.000 N 
ATOM      6  N   UNL     1      45.462   4.557   8.334  0.00  0.00    +0.000 NA
ATOM      7  C   UNL     1      46.340   3.750   7.678  0.00  0.00    +0.000 A 
ATOM      8  H   UNL     1      43.976   5.783   9.560  0.00  0.00    +0.000 HD
ENDROOT
BRANCH   1  10
ATOM      9  N   UNL     1      48.453   2.232   6.573  0.00  0.00    +0.000 N 
ATOM     10  C   UNL     1      47.335   1.582   7.020  0.00  0.00    +0.000 C 
ATOM     11  O   UNL     1      47.164   0.391   6.804  0.00  0.00    +0.000 OA
ATOM     12  H   UNL     1      49.158   1.658   6.127  0.00  0.00    +0.000 HD
ATOM     13  H   UNL     1      48.746   3.126   6.938  0.00  0.00    +0.000 HD
ENDBRANCH   1  10
BRANCH   5  14
ATOM     14  C   UNL     1      43.209   4.571  11.110  0.00  0.00    +0.000 C 
BRANCH  14  15
ATOM     15  C   UNL     1      43.430   5.797  12.004  0.00  0.00    +0.000 C 
BRANCH  15  16
ATOM     16  C   UNL     1      44.809   5.778  12.623  0.00  0.00    +0.000 A 
ATOM     17  C   UNL     1      45.316   4.607  13.200  0.00  0.00    +0.000 A 
ATOM     18  C   UNL     1      46.608   4.583  13.729  0.00  0.00    +0.000 A 
ATOM     19  C   UNL     1      47.411   5.725  13.689  0.00  0.00    +0.000 A 
ATOM     20  C   UNL     1      46.917   6.894  13.117  0.00  0.00    +0.000 A 
ATOM     21  C   UNL     1      45.627   6.918  12.580  0.00  0.00    +0.000 A 
BRANCH  20  22
ATOM     22  O   UNL     1      47.629   8.061  12.988  0.00  0.00    +0.000 OA
BRANCH  22  23
ATOM     23  C   UNL     1      48.455   8.253  11.819  0.00  0.00    +0.000 C 
ATOM     24  C   UNL     1      49.952   7.893  11.949  0.00  0.00    +0.000 C 
ATOM     25  C   UNL     1      50.318   9.251  11.339  0.00  0.00    +0.000 C 
ATOM     26  C   UNL     1      48.883   9.723  11.591  0.00  0.00    +0.000 C 
ENDBRANCH  22  23
ENDBRANCH  20  22
ENDBRANCH  15  16
ENDBRANCH  14  15
ENDBRANCH   5  14
TORSDOF 6
ENDMDL
MODEL 3
REMARK VINA RESULT:    -7.610      2.304      4.419
REMARK INTER + INTRA:         -11.127
REMARK INTER:                 -10.416
REMARK INTRA:                  -0.711
REMARK UNBOUND:                -0.848
REMARK  Name = 
REMARK  6 active torsions:
REMARK  status: ('A' for Active; 'I' for Inactive)
REMARK    1  A    between atoms: C_2  and  C_4
REMARK    2  A    between atoms: N_8  and  C_9
REMARK    3  A    between atoms: C_9  and  C_10
REMARK    4  A    between atoms: C_10  and  C_11
REMARK    5  A    between atoms: C_15  and  O_16
REMARK    6  A    between atoms: O_16  and  C_17
REMARK                            x       y       z     vdW  Elec       q    Type
REMARK                         _______ _______ _______ _____ _____    ______ ____
ROOT
ATOM      1  C   UNL     1      46.576   2.630   7.408  0.00  0.00    +0.000 A 
ATOM      2  C   UNL     1      46.221   3.897   7.857  0.00  0.00    +0.000 A 
ATOM      3  C   UNL     1      45.447   4.013   9.010  0.00  0.00    +0.000 A 
ATOM      4  C   UNL     1      45.021   2.869   9.680  0.00  0.00    +0.000 A 
ATOM      5  N   UNL     1      44.315   2.911  10.874  0.00  0.00    +0.000 N 
ATOM      6  N   UNL     1      45.332   1.636   9.234  0.00  0.00    +0.000 NA
ATOM      7  C   UNL     1      46.095   1.538   8.111  0.00  0.00    +0.000 A 
ATOM      8  H   UNL     1      44.001   1.962  11.060  0.00  0.00    +0.000 HD
ENDROOT
BRANCH   1  10
ATOM      9  N   UNL     1      47.235   3.241   5.152  0.00  0.00    +0.000 N 
ATOM     10  C   UNL     1      47.435   2.415   6.225  0.00  0.00    +0.000 C 
ATOM     11  O   UNL     1      48.312   1.563   6.215  0.00  0.00    +0.000 OA
ATOM     12  H   UNL     1      47.899   3.158   4.392  0.00  0.00    +0.000 HD
ATOM     13  H   UNL     1      46.708   4.099   5.215  0.00  0.00    +0.000 HD
ENDBRANCH   1  10
BRANCH   5  14
ATOM     14  C   UNL     1      43.319   3.961  11.058  0.00  0.00    +0.000 C 
BRANCH  14  15
ATOM     15  C   UNL     1      43.337   4.482  12.500  0.00  0.00    +0.000 C 
BRANCH  15  16
ATOM     16  C   UNL     1      44.625   5.216  12.798  0.00  0.00    +0.000 A 
ATOM     17  C   UNL     1      45.634   4.606  13.553  0.00  0.00    +0.000 A 
ATOM     18  C   UNL     1      46.840   5.270  13.787  0.00  0.00    +0.000 A 
ATOM     19  C   UNL     1      47.054   6.550  13.271  0.00  0.00    +0.000 A 
ATOM     20  C   UNL     1      46.057   7.165  12.519  0.00  0.00    +0.000 A 
ATOM     21  C   UNL     1      44.853   6.498  12.277  0.00  0.00    +0.000 A 
BRANCH  20  22
ATOM     22  O   UNL     1      46.173   8.400  11.932  0.00  0.00    +0.000 OA
BRANCH  22  23
ATOM     23  C   UNL     1      45.111   9.363  12.106  0.00  0.00    +0.000 C 
ATOM     24  C   UNL     1      44.089   9.501  10.954  0.00  0.00    +0.000 C 
ATOM     25  C   UNL     1      44.273  11.023  10.991  0.00  0.00    +0.000 C 
ATOM     26  C   UNL     1      45.540  10.825  11.829  0.00  0.00    +0.000 C 
ENDBRANCH  22  23
ENDBRANCH  20  22
ENDBRANCH  15  16
ENDBRANCH  14  15
ENDBRANCH   5  14
TORSDOF 6
ENDMDL
MODEL 4
REMARK VINA RESULT:    -7.588      2.621      3.319
REMARK INTER + INTRA:         -11.098
REMARK INTER:                 -10.348
REMARK INTRA:                  -0.750
REMARK UNBOUND:                -0.848
REMARK  Name = 
REMARK  6 active torsions:
REMARK  status: ('A' for Active; 'I' for Inactive)
REMARK    1  A    between atoms: C_2  and  C_4
REMARK    2  A    between atoms: N_8  and  C_9
REMARK    3  A    between atoms: C_9  and  C_10
REMARK    4  A    between atoms: C_10  and  C_11
REMARK    5  A    between atoms: C_15  and  O_16
REMARK    6  A    between atoms: O_16  and  C_17
REMARK                            x       y       z     vdW  Elec       q    Type
REMARK                         _______ _______ _______ _____ _____    ______ ____
ROOT
ATOM      1  C   UNL     1      46.485   2.837   7.343  0.00  0.00    +0.000 A 
ATOM      2  C   UNL     1      46.004   4.016   7.902  0.00  0.00    +0.000 A 
ATOM      3  C   UNL     1      45.273   3.954   9.088  0.00  0.00    +0.000 A 
ATOM      4  C   UNL     1      45.014   2.721   9.681  0.00  0.00    +0.000 A 
ATOM      5  N   UNL     1      44.361   2.590  10.898  0.00  0.00    +0.000 N 
ATOM      6  N   UNL     1      45.447   1.569   9.129  0.00  0.00    +0.000 NA
ATOM      7  C   UNL     1      46.166   1.647   7.976  0.00  0.00    +0.000 A 
ATOM      8  H   UNL     1      44.169   1.599  11.021  0.00  0.00    +0.000 HD
ENDROOT
BRANCH   1  10
ATOM      9  N   UNL     1      48.640   2.533   6.268  0.00  0.00    +0.000 N 
ATOM     10  C   UNL     1      47.309   2.814   6.118  0.00  0.00    +0.000 C 
ATOM     11  O   UNL     1      46.821   2.999   5.012  0.00  0.00    +0.000 OA
ATOM     12  H   UNL     1      49.173   2.411   5.416  0.00  0.00    +0.000 HD
ATOM     13  H   UNL     1      49.021   2.134   7.113  0.00  0.00    +0.000 HD
ENDBRANCH   1  10
BRANCH   5  14
ATOM     14  C   UNL     1      43.259   3.496  11.198  0.00  0.00    +0.000 C 
BRANCH  14  15
ATOM     15  C   UNL     1      43.481   4.197  12.544  0.00  0.00    +0.000 C 
BRANCH  15  16
ATOM     16  C   UNL     1      44.282   5.467  12.371  0.00  0.00    +0.000 A 
ATOM     17  C   UNL     1      43.807   6.504  11.559  0.00  0.00    +0.000 A 
ATOM     18  C   UNL     1      44.528   7.694  11.439  0.00  0.00    +0.000 A 
ATOM     19  C   UNL     1      45.732   7.864  12.127  0.00  0.00    +0.000 A 
ATOM     20  C   UNL     1      46.212   6.839  12.938  0.00  0.00    +0.000 A 
ATOM     21  C   UNL     1      45.487   5.651  13.065  0.00  0.00    +0.000 A 
BRANCH  20  22
ATOM     22  O   UNL     1      47.359   6.911  13.689  0.00  0.00    +0.000 OA
BRANCH  22  23
ATOM     23  C   UNL     1      48.637   6.745  13.037  0.00  0.00    +0.000 C 
ATOM     24  C   UNL     1      49.784   7.677  13.488  0.00  0.00    +0.000 C 
ATOM     25  C   UNL     1      50.076   8.007  12.020  0.00  0.00    +0.000 C 
ATOM     26  C   UNL     1      48.718   7.410  11.641  0.00  0.00    +0.000 C 
ENDBRANCH  22  23
ENDBRANCH  20  22
ENDBRANCH  15  16
ENDBRANCH  14  15
ENDBRANCH   5  14
TORSDOF 6
ENDMDL
MODEL 5
REMARK VINA RESULT:    -7.525      3.141      4.944
REMARK INTER + INTRA:         -11.012
REMARK INTER:                 -10.328
REMARK INTRA:                  -0.684
REMARK UNBOUND:                -0.848
REMARK  Name = 
REMARK  6 active torsions:
REMARK  status: ('A' for Active; 'I' for Inactive)
REMARK    1  A    between atoms: C_2  and  C_4
REMARK    2  A    between atoms: N_8  and  C_9
REMARK    3  A    between atoms: C_9  and  C_10
REMARK    4  A    between atoms: C_10  and  C_11
REMARK    5  A    between atoms: C_15  and  O_16
REMARK    6  A    between atoms: O_16  and  C_17
REMARK                            x       y       z     vdW  Elec       q    Type
REMARK                         _______ _______ _______ _____ _____    ______ ____
ROOT
ATOM      1  C   UNL     1      46.263   2.054   8.006  0.00  0.00    +0.000 A 
ATOM      2  C   UNL     1      45.316   1.716   8.967  0.00  0.00    +0.000 A 
ATOM      3  C   UNL     1      44.568   2.729   9.564  0.00  0.00    +0.000 A 
ATOM      4  C   UNL     1      44.793   4.058   9.215  0.00  0.00    +0.000 A 
ATOM      5  N   UNL     1      44.035   5.109   9.711  0.00  0.00    +0.000 N 
ATOM      6  N   UNL     1      45.732   4.399   8.309  0.00  0.00    +0.000 NA
ATOM      7  C   UNL     1      46.449   3.398   7.728  0.00  0.00    +0.000 A 
ATOM      8  H   UNL     1      44.500   5.966   9.422  0.00  0.00    +0.000 HD
ENDROOT
BRANCH   1  10
ATOM      9  N   UNL     1      46.818  -0.271   7.579  0.00  0.00    +0.000 N 
ATOM     10  C   UNL     1      47.064   1.043   7.286  0.00  0.00    +0.000 C 
ATOM     11  O   UNL     1      47.885   1.360   6.437  0.00  0.00    +0.000 OA
ATOM     12  H   UNL     1      47.292  -0.956   7.004  0.00  0.00    +0.000 HD
ATOM     13  H   UNL     1      45.992  -0.574   8.075  0.00  0.00    +0.000 HD
ENDBRANCH   1  10
BRANCH   5  14
ATOM     14  C   UNL     1      43.599   5.057  11.101  0.00  0.00    +0.000 C 
BRANCH  14  15
ATOM     15  C   UNL     1      44.803   4.992  12.049  0.00  0.00    +0.000 C 
BRANCH  15  16
ATOM     16  C   UNL     1      45.516   6.323  12.115  0.00  0.00    +0.000 A 
ATOM     17  C   UNL     1      46.887   6.411  11.845  0.00  0.00    +0.000 A 
ATOM     18  C   UNL     1      47.533   7.649  11.863  0.00  0.00    +0.000 A 
ATOM     19  C   UNL     1      46.819   8.815  12.149  0.00  0.00    +0.000 A 
ATOM     20  C   UNL     1      45.455   8.739  12.418  0.00  0.00    +0.000 A 
ATOM     21  C   UNL     1      44.807   7.501  12.393  0.00  0.00    +0.000 A 
BRANCH  20  22
ATOM     22  O   UNL     1      44.649   9.820  12.672  0.00  0.00    +0.000 OA
BRANCH  22  23
ATOM     23  C   UNL     1      44.236  10.662  11.573  0.00  0.00    +0.000 C 
ATOM     24  C   UNL     1      42.768  11.144  11.569  0.00  0.00    +0.000 C 
ATOM     25  C   UNL     1      42.637  10.692  10.110  0.00  0.00    +0.000 C 
ATOM     26  C   UNL     1      43.928   9.883  10.271  0.00  0.00    +0.000 C 
ENDBRANCH  22  23
ENDBRANCH  20  22
ENDBRANCH  15  16
ENDBRANCH  14  15
ENDBRANCH   5  14
TORSDOF 6
ENDMDL
MODEL 6
REMARK VINA RESULT:    -7.322      3.413      8.088
REMARK INTER + INTRA:         -10.738
REMARK INTER:                 -10.049
REMARK INTRA:                  -0.688
REMARK UNBOUND:                -0.848
REMARK  Name = 
REMARK  6 active torsions:
REMARK  status: ('A' for Active; 'I' for Inactive)
REMARK    1  A    between atoms: C_2  and  C_4
REMARK    2  A    between atoms: N_8  and  C_9
REMARK    3  A    between atoms: C_9  and  C_10
REMARK    4  A    between atoms: C_10  and  C_11
REMARK    5  A    between atoms: C_15  and  O_16
REMARK    6  A    between atoms: O_16  and  C_17
REMARK                            x       y       z     vdW  Elec       q    Type
REMARK                         _______ _______ _______ _____ _____    ______ ____
ROOT
ATOM      1  C   UNL     1      48.541   4.220  16.961  0.00  0.00    +0.000 A 
ATOM      2  C   UNL     1      47.535   3.684  16.165  0.00  0.00    +0.000 A 
ATOM      3  C   UNL     1      47.095   4.403  15.055  0.00  0.00    +0.000 A 
ATOM      4  C   UNL     1      47.644   5.651  14.773  0.00  0.00    +0.000 A 
ATOM      5  N   UNL     1      47.310   6.386  13.645  0.00  0.00    +0.000 N 
ATOM      6  N   UNL     1      48.597   6.195  15.557  0.00  0.00    +0.000 NA
ATOM      7  C   UNL     1      49.022   5.476  16.633  0.00  0.00    +0.000 A 
ATOM      8  H   UNL     1      47.729   7.305  13.761  0.00  0.00    +0.000 HD
ENDROOT
BRANCH   1  10
ATOM      9  N   UNL     1      48.276   3.317  19.199  0.00  0.00    +0.000 N 
ATOM     10  C   UNL     1      49.103   3.505  18.125  0.00  0.00    +0.000 C 
ATOM     11  O   UNL     1      50.244   3.065  18.119  0.00  0.00    +0.000 OA
ATOM     12  H   UNL     1      48.633   2.733  19.945  0.00  0.00    +0.000 HD
ATOM     13  H   UNL     1      47.276   3.438  19.144  0.00  0.00    +0.000 HD
ENDBRANCH   1  10
BRANCH   5  14
ATOM     14  C   UNL     1      45.925   6.369  13.188  0.00  0.00    +0.000 C 
BRANCH  14  15
ATOM     15  C   UNL     1      45.847   6.617  11.677  0.00  0.00    +0.000 C 
BRANCH  15  16
ATOM     16  C   UNL     1      45.334   5.396  10.950  0.00  0.00    +0.000 A 
ATOM     17  C   UNL     1      44.530   4.459  11.611  0.00  0.00    +0.000 A 
ATOM     18  C   UNL     1      44.020   3.356  10.923  0.00  0.00    +0.000 A 
ATOM     19  C   UNL     1      44.306   3.173   9.568  0.00  0.00    +0.000 A 
ATOM     20  C   UNL     1      45.103   4.099   8.902  0.00  0.00    +0.000 A 
ATOM     21  C   UNL     1      45.607   5.208   9.587  0.00  0.00    +0.000 A 
BRANCH  20  22
ATOM     22  O   UNL     1      45.415   4.042   7.566  0.00  0.00    +0.000 OA
BRANCH  22  23
ATOM     23  C   UNL     1      46.706   3.529   7.167  0.00  0.00    +0.000 C 
ATOM     24  C   UNL     1      46.880   3.142   5.681  0.00  0.00    +0.000 C 
ATOM     25  C   UNL     1      47.468   1.794   6.116  0.00  0.00    +0.000 C 
ATOM     26  C   UNL     1      46.924   2.039   7.527  0.00  0.00    +0.000 C 
ENDBRANCH  22  23
ENDBRANCH  20  22
ENDBRANCH  15  16
ENDBRANCH  14  15
ENDBRANCH   5  14
TORSDOF 6
ENDMDL
MODEL 7
REMARK VINA RESULT:    -6.648      3.981      8.440
REMARK INTER + INTRA:          -9.828
REMARK INTER:                  -9.298
REMARK INTRA:                  -0.530
REMARK UNBOUND:                -0.848
REMARK  Name = 
REMARK  6 active torsions:
REMARK  status: ('A' for Active; 'I' for Inactive)
REMARK    1  A    between atoms: C_2  and  C_4
REMARK    2  A    between atoms: N_8  and  C_9
REMARK    3  A    between atoms: C_9  and  C_10
REMARK    4  A    between atoms: C_10  and  C_11
REMARK    5  A    between atoms: C_15  and  O_16
REMARK    6  A    between atoms: O_16  and  C_17
REMARK                            x       y       z     vdW  Elec       q    Type
REMARK                         _______ _______ _______ _____ _____    ______ ____
ROOT
ATOM      1  C   UNL     1      49.886   5.148  17.613  0.00  0.00    +0.000 A 
ATOM      2  C   UNL     1      49.813   6.269  16.793  0.00  0.00    +0.000 A 
ATOM      3  C   UNL     1      48.845   6.312  15.792  0.00  0.00    +0.000 A 
ATOM      4  C   UNL     1      47.985   5.233  15.609  0.00  0.00    +0.000 A 
ATOM      5  N   UNL     1      46.950   5.239  14.685  0.00  0.00    +0.000 N 
ATOM      6  N   UNL     1      48.068   4.128  16.377  0.00  0.00    +0.000 NA
ATOM      7  C   UNL     1      49.015   4.103  17.356  0.00  0.00    +0.000 A 
ATOM      8  H   UNL     1      46.585   4.291  14.650  0.00  0.00    +0.000 HD
ENDROOT
BRANCH   1  10
ATOM      9  N   UNL     1      51.396   3.806  18.959  0.00  0.00    +0.000 N 
ATOM     10  C   UNL     1      50.847   5.038  18.730  0.00  0.00    +0.000 C 
ATOM     11  O   UNL     1      51.169   6.011  19.397  0.00  0.00    +0.000 OA
ATOM     12  H   UNL     1      52.133   3.765  19.653  0.00  0.00    +0.000 HD
ATOM     13  H   UNL     1      51.351   3.055  18.288  0.00  0.00    +0.000 HD
ENDBRANCH   1  10
BRANCH   5  14
ATOM     14  C   UNL     1      47.169   5.887  13.398  0.00  0.00    +0.000 C 
BRANCH  14  15
ATOM     15  C   UNL     1      45.890   6.577  12.909  0.00  0.00    +0.000 C 
BRANCH  15  16
ATOM     16  C   UNL     1      45.171   5.729  11.885  0.00  0.00    +0.000 A 
ATOM     17  C   UNL     1      43.933   5.148  12.184  0.00  0.00    +0.000 A 
ATOM     18  C   UNL     1      43.251   4.403  11.218  0.00  0.00    +0.000 A 
ATOM     19  C   UNL     1      43.796   4.230   9.944  0.00  0.00    +0.000 A 
ATOM     20  C   UNL     1      45.026   4.804   9.637  0.00  0.00    +0.000 A 
ATOM     21  C   UNL     1      45.705   5.556  10.599  0.00  0.00    +0.000 A 
BRANCH  20  22
ATOM     22  O   UNL     1      45.636   4.732   8.409  0.00  0.00    +0.000 OA
BRANCH  22  23
ATOM     23  C   UNL     1      45.580   3.493   7.669  0.00  0.00    +0.000 C 
ATOM     24  C   UNL     1      46.043   2.214   8.403  0.00  0.00    +0.000 C 
ATOM     25  C   UNL     1      46.929   1.861   7.202  0.00  0.00    +0.000 C 
ATOM     26  C   UNL     1      46.764   3.296   6.690  0.00  0.00    +0.000 C 
ENDBRANCH  22  23
ENDBRANCH  20  22
ENDBRANCH  15  16
ENDBRANCH  14  15
ENDBRANCH   5  14
TORSDOF 6
ENDMDL
MODEL 8
REMARK VINA RESULT:    -6.634      3.818      7.316
REMARK INTER + INTRA:          -9.808
REMARK INTER:                  -9.399
REMARK INTRA:                  -0.410
REMARK UNBOUND:                -0.848
REMARK  Name = 
REMARK  6 active torsions:
REMARK  status: ('A' for Active; 'I' for Inactive)
REMARK    1  A    between atoms: C_2  and  C_4
REMARK    2  A    between atoms: N_8  and  C_9
REMARK    3  A    between atoms: C_9  and  C_10
REMARK    4  A    between atoms: C_10  and  C_11
REMARK    5  A    between atoms: C_15  and  O_16
REMARK    6  A    between atoms: O_16  and  C_17
REMARK                            x       y       z     vdW  Elec       q    Type
REMARK                         _______ _______ _______ _____ _____    ______ ____
ROOT
ATOM      1  C   UNL     1      49.802   8.266  11.909  0.00  0.00    +0.000 A 
ATOM      2  C   UNL     1      48.612   8.976  11.788  0.00  0.00    +0.000 A 
ATOM      3  C   UNL     1      47.432   8.403  12.259  0.00  0.00    +0.000 A 
ATOM      4  C   UNL     1      47.452   7.128  12.817  0.00  0.00    +0.000 A 
ATOM      5  N   UNL     1      46.332   6.529  13.375  0.00  0.00    +0.000 N 
ATOM      6  N   UNL     1      48.594   6.417  12.909  0.00  0.00    +0.000 NA
ATOM      7  C   UNL     1      49.740   6.993  12.452  0.00  0.00    +0.000 A 
ATOM      8  H   UNL     1      46.582   5.562  13.564  0.00  0.00    +0.000 HD
ENDROOT
BRANCH   1  10
ATOM      9  N   UNL     1      52.226   8.144  11.890  0.00  0.00    +0.000 N 
ATOM     10  C   UNL     1      51.105   8.815  11.484  0.00  0.00    +0.000 C 
ATOM     11  O   UNL     1      51.182   9.804  10.768  0.00  0.00    +0.000 OA
ATOM     12  H   UNL     1      53.106   8.464  11.503  0.00  0.00    +0.000 HD
ATOM     13  H   UNL     1      52.196   7.205  12.257  0.00  0.00    +0.000 HD
ENDBRANCH   1  10
BRANCH   5  14
ATOM     14  C   UNL     1      45.038   6.741  12.736  0.00  0.00    +0.000 C 
BRANCH  14  15
ATOM     15  C   UNL     1      45.164   6.662  11.210  0.00  0.00    +0.000 C 
BRANCH  15  16
ATOM     16  C   UNL     1      44.928   5.253  10.716  0.00  0.00    +0.000 A 
ATOM     17  C   UNL     1      44.385   4.282  11.566  0.00  0.00    +0.000 A 
ATOM     18  C   UNL     1      44.125   2.994  11.092  0.00  0.00    +0.000 A 
ATOM     19  C   UNL     1      44.403   2.660   9.764  0.00  0.00    +0.000 A 
ATOM     20  C   UNL     1      44.942   3.618   8.911  0.00  0.00    +0.000 A 
ATOM     21  C   UNL     1      45.195   4.909   9.382  0.00  0.00    +0.000 A 
BRANCH  20  22
ATOM     22  O   UNL     1      45.217   3.413   7.582  0.00  0.00    +0.000 OA
BRANCH  22  23
ATOM     23  C   UNL     1      46.593   3.282   7.162  0.00  0.00    +0.000 C 
ATOM     24  C   UNL     1      46.852   3.102   5.648  0.00  0.00    +0.000 C 
ATOM     25  C   UNL     1      47.762   1.908   5.960  0.00  0.00    +0.000 C 
ATOM     26  C   UNL     1      47.180   1.866   7.376  0.00  0.00    +0.000 C 
ENDBRANCH  22  23
ENDBRANCH  20  22
ENDBRANCH  15  16
ENDBRANCH  14  15
ENDBRANCH   5  14
TORSDOF 6
ENDMDL
