MODEL 1
REMARK VINA RESULT:    -8.245      0.000      0.000
REMARK INTER + INTRA:         -10.530
REMARK INTER:                 -10.173
REMARK INTRA:                  -0.357
REMARK UNBOUND:                -0.357
REMARK  Name = 
REMARK  6 active torsions:
REMARK  status: ('A' for Active; 'I' for Inactive)
REMARK    1  A    between atoms: C_1  and  C_2
REMARK    2  A    between atoms: C_2  and  C_3
REMARK    3  A    between atoms: C_2  and  N_4
REMARK    4  A    between atoms: C_2  and  C_14
REMARK    5  A    between atoms: N_4  and  C_5
REMARK    6  A    between atoms: C_8  and  C_9
REMARK                            x       y       z     vdW  Elec       q    Type
REMARK                         _______ _______ _______ _____ _____    ______ ____
ROOT
ATOM      1  N   UNL     1      43.704   4.577  10.087  0.00  0.00    +0.000 N 
ATOM      2  H   UNL     1      43.459   5.483   9.685  0.00  0.00    +0.000 HD
ENDROOT
BRANCH   1   3
ATOM      3  C   UNL     1      44.622   3.888   9.301  0.00  0.00    +0.000 A 
ATOM      4  C   UNL     1      44.777   2.514   9.237  0.00  0.00    +0.000 A 
ATOM      5  N   UNL     1      45.662   1.842   8.476  0.00  0.00    +0.000 NA
ATOM      6  C   UNL     1      46.421   2.609   7.670  0.00  0.00    +0.000 A 
ATOM      7  N   UNL     1      46.335   3.945   7.555  0.00  0.00    +0.000 NA
ATOM      8  C   UNL     1      45.418   4.538   8.363  0.00  0.00    +0.000 A 
BRANCH   6   9
ATOM      9  C   UNL     1      47.477   1.854   6.900  0.00  0.00    +0.000 C 
ATOM     10  N   UNL     1      48.539   2.627   6.477  0.00  0.00    +0.000 N 
ATOM     11  O   UNL     1      47.422   0.660   6.636  0.00  0.00    +0.000 OA
ATOM     12  H   UNL     1      48.547   3.619   6.690  0.00  0.00    +0.000 HD
ATOM     13  H   UNL     1      49.275   2.213   5.927  0.00  0.00    +0.000 HD
ENDBRANCH   6   9
ENDBRANCH   1   3
BRANCH   1  15
ATOM     14  C   UNL     1      42.599   5.591  12.071  0.00  0.00    +0.000 C 
ATOM     15  C   UNL     1      43.686   4.609  11.572  0.00  0.00    +0.000 C 
ATOM     16  C   UNL     1      43.459   3.188  12.130  0.00  0.00    +0.000 C 
BRANCH  15  17
ATOM     17  C   UNL     1      45.048   5.184  12.050  0.00  0.00    +0.000 A 
ATOM     18  C   UNL     1      45.848   4.527  13.007  0.00  0.00    +0.000 A 
ATOM     19  C   UNL     1      47.053   5.074  13.456  0.00  0.00    +0.000 A 
ATOM     20  C   UNL     1      47.482   6.298  12.961  0.00  0.00    +0.000 A 
ATOM     21 CL   UNL     1      48.966   6.967  13.512  0.00  0.00    +0.000 Cl
ATOM     22  C   UNL     1      46.711   6.981  12.024  0.00  0.00    +0.000 A 
ATOM     23  C   UNL     1      45.509   6.428  11.570  0.00  0.00    +0.000 A 
ENDBRANCH  15  17
ENDBRANCH   1  15
TORSDOF 4
ENDMDL
MODEL 2
REMARK VINA RESULT:    -7.304      1.297      2.012
REMARK INTER + INTRA:          -9.369
REMARK INTER:                  -8.992
REMARK INTRA:                  -0.378
REMARK UNBOUND:                -0.357
REMARK  Name = 
REMARK  6 active torsions:
REMARK  status: ('A' for Active; 'I' for Inactive)
REMARK    1  A    between atoms: C_1  and  C_2
REMARK    2  A    between atoms: C_2  and  C_3
REMARK    3  A    between atoms: C_2  and  N_4
REMARK    4  A    between atoms: C_2  and  C_14
REMARK    5  A    between atoms: N_4  and  C_5
REMARK    6  A    between atoms: C_8  and  C_9
REMARK                            x       y       z     vdW  Elec       q    Type
REMARK                         _______ _______ _______ _____ _____    ______ ____
ROOT
ATOM      1  N   UNL     1      43.917   4.487  10.548  0.00  0.00    +0.000 N 
ATOM      2  H   UNL     1      43.286   5.229  10.241  0.00  0.00    +0.000 HD
ENDROOT
BRANCH   1   3
ATOM      3  C   UNL     1      44.742   4.044   9.519  0.00  0.00    +0.000 A 
ATOM      4  C   UNL     1      45.584   4.829   8.750  0.00  0.00    +0.000 A 
ATOM      5  N   UNL     1      46.387   4.404   7.755  0.00  0.00    +0.000 NA
ATOM      6  C   UNL     1      46.386   3.074   7.548  0.00  0.00    +0.000 A 
ATOM      7  N   UNL     1      45.691   2.173   8.261  0.00  0.00    +0.000 NA
ATOM      8  C   UNL     1      44.905   2.691   9.240  0.00  0.00    +0.000 A 
BRANCH   6   9
ATOM      9  C   UNL     1      47.211   2.625   6.366  0.00  0.00    +0.000 C 
ATOM     10  N   UNL     1      48.329   1.886   6.696  0.00  0.00    +0.000 N 
ATOM     11  O   UNL     1      46.952   2.889   5.199  0.00  0.00    +0.000 OA
ATOM     12  H   UNL     1      48.531   1.702   7.673  0.00  0.00    +0.000 HD
ATOM     13  H   UNL     1      48.956   1.572   5.973  0.00  0.00    +0.000 HD
ENDBRANCH   6   9
ENDBRANCH   1   3
BRANCH   1  15
ATOM     14  C   UNL     1      43.068   4.904  12.848  0.00  0.00    +0.000 C 
ATOM     15  C   UNL     1      44.317   4.657  11.968  0.00  0.00    +0.000 C 
ATOM     16  C   UNL     1      45.107   3.421  12.447  0.00  0.00    +0.000 C 
BRANCH  15  17
ATOM     17  C   UNL     1      45.183   5.943  12.065  0.00  0.00    +0.000 A 
ATOM     18  C   UNL     1      44.647   7.230  11.847  0.00  0.00    +0.000 A 
ATOM     19  C   UNL     1      45.446   8.376  11.901  0.00  0.00    +0.000 A 
ATOM     20  C   UNL     1      46.804   8.258  12.169  0.00  0.00    +0.000 A 
ATOM     21 CL   UNL     1      47.782   9.670  12.239  0.00  0.00    +0.000 Cl
ATOM     22  C   UNL     1      47.368   7.003  12.377  0.00  0.00    +0.000 A 
ATOM     23  C   UNL     1      46.565   5.858  12.331  0.00  0.00    +0.000 A 
ENDBRANCH  15  17
ENDBRANCH   1  15
TORSDOF 4
ENDMDL
MODEL 3
REMARK VINA RESULT:    -7.062      4.311      6.351
REMARK INTER + INTRA:          -9.071
REMARK INTER:                  -8.952
REMARK INTRA:                  -0.119
REMARK UNBOUND:                -0.357
REMARK  Name = 
REMARK  6 active torsions:
REMARK  status: ('A' for Active; 'I' for Inactive)
REMARK    1  A    between atoms: C_1  and  C_2
REMARK    2  A    between atoms: C_2  and  C_3
REMARK    3  A    between atoms: C_2  and  N_4
REMARK    4  A    between atoms: C_2  and  C_14
REMARK    5  A    between atoms: N_4  and  C_5
REMARK    6  A    between atoms: C_8  and  C_9
REMARK                            x       y       z     vdW  Elec       q    Type
REMARK                         _______ _______ _______ _____ _____    ______ ____
ROOT
ATOM      1  N   UNL     1      45.464   5.192  11.937  0.00  0.00    +0.000 N 
ATOM      2  H   UNL     1      45.311   6.201  11.980  0.00  0.00    +0.000 HD
ENDROOT
BRANCH   1   3
ATOM      3  C   UNL     1      46.117   4.715  13.070  0.00  0.00    +0.000 A 
ATOM      4  C   UNL     1      46.651   3.449  13.233  0.00  0.00    +0.000 A 
ATOM      5  N   UNL     1      47.286   2.983  14.326  0.00  0.00    +0.000 NA
ATOM      6  C   UNL     1      47.446   3.878  15.319  0.00  0.00    +0.000 A 
ATOM      7  N   UNL     1      47.060   5.164  15.282  0.00  0.00    +0.000 NA
ATOM      8  C   UNL     1      46.424   5.544  14.144  0.00  0.00    +0.000 A 
BRANCH   6   9
ATOM      9  C   UNL     1      48.067   3.314  16.575  0.00  0.00    +0.000 C 
ATOM     10  N   UNL     1      47.157   2.883  17.518  0.00  0.00    +0.000 N 
ATOM     11  O   UNL     1      49.271   3.246  16.783  0.00  0.00    +0.000 OA
ATOM     12  H   UNL     1      46.165   2.973  17.329  0.00  0.00    +0.000 HD
ATOM     13  H   UNL     1      47.481   2.522  18.402  0.00  0.00    +0.000 HD
ENDBRANCH   6   9
ENDBRANCH   1   3
BRANCH   1  15
ATOM     14  C   UNL     1      43.824   3.327  12.061  0.00  0.00    +0.000 C 
ATOM     15  C   UNL     1      44.370   4.499  11.211  0.00  0.00    +0.000 C 
ATOM     16  C   UNL     1      43.252   5.503  10.855  0.00  0.00    +0.000 C 
BRANCH  15  17
ATOM     17  C   UNL     1      44.978   3.866   9.930  0.00  0.00    +0.000 A 
ATOM     18  C   UNL     1      45.021   2.471   9.727  0.00  0.00    +0.000 A 
ATOM     19  C   UNL     1      45.605   1.913   8.586  0.00  0.00    +0.000 A 
ATOM     20  C   UNL     1      46.168   2.740   7.624  0.00  0.00    +0.000 A 
ATOM     21 CL   UNL     1      46.882   2.051   6.221  0.00  0.00    +0.000 Cl
ATOM     22  C   UNL     1      46.155   4.121   7.797  0.00  0.00    +0.000 A 
ATOM     23  C   UNL     1      45.562   4.679   8.936  0.00  0.00    +0.000 A 
ENDBRANCH  15  17
ENDBRANCH   1  15
TORSDOF 4
ENDMDL
MODEL 4
REMARK VINA RESULT:    -6.785      4.382      6.595
REMARK INTER + INTRA:          -8.728
REMARK INTER:                  -8.433
REMARK INTRA:                  -0.295
REMARK UNBOUND:                -0.357
REMARK  Name = 
REMARK  6 active torsions:
REMARK  status: ('A' for Active; 'I' for Inactive)
REMARK    1  A    between atoms: C_1  and  C_2
REMARK    2  A    between atoms: C_2  and  C_3
REMARK    3  A    between atoms: C_2  and  N_4
REMARK    4  A    between atoms: C_2  and  C_14
REMARK    5  A    between atoms: N_4  and  C_5
REMARK    6  A    between atoms: C_8  and  C_9
REMARK                            x       y       z     vdW  Elec       q    Type
REMARK                         _______ _______ _______ _____ _____    ______ ____
ROOT
ATOM      1  N   UNL     1      44.923   6.140  10.824  0.00  0.00    +0.000 N 
ATOM      2  H   UNL     1      44.148   6.709  10.478  0.00  0.00    +0.000 HD
ENDROOT
BRANCH   1   3
ATOM      3  C   UNL     1      45.737   6.845  11.703  0.00  0.00    +0.000 A 
ATOM      4  C   UNL     1      47.100   6.673  11.875  0.00  0.00    +0.000 A 
ATOM      5  N   UNL     1      47.893   7.355  12.724  0.00  0.00    +0.000 NA
ATOM      6  C   UNL     1      47.279   8.330  13.421  0.00  0.00    +0.000 A 
ATOM      7  N   UNL     1      45.986   8.676  13.308  0.00  0.00    +0.000 NA
ATOM      8  C   UNL     1      45.262   7.932  12.433  0.00  0.00    +0.000 A 
BRANCH   6   9
ATOM      9  C   UNL     1      48.156   9.017  14.440  0.00  0.00    +0.000 C 
ATOM     10  N   UNL     1      47.578   9.162  15.685  0.00  0.00    +0.000 N 
ATOM     11  O   UNL     1      49.281   9.440  14.215  0.00  0.00    +0.000 OA
ATOM     12  H   UNL     1      46.635   8.822  15.838  0.00  0.00    +0.000 HD
ATOM     13  H   UNL     1      48.078   9.638  16.419  0.00  0.00    +0.000 HD
ENDBRANCH   6   9
ENDBRANCH   1   3
BRANCH   1  15
ATOM     14  C   UNL     1      45.196   4.095  12.213  0.00  0.00    +0.000 C 
ATOM     15  C   UNL     1      44.541   4.710  10.953  0.00  0.00    +0.000 C 
ATOM     16  C   UNL     1      43.004   4.574  10.994  0.00  0.00    +0.000 C 
BRANCH  15  17
ATOM     17  C   UNL     1      45.134   3.949   9.735  0.00  0.00    +0.000 A 
ATOM     18  C   UNL     1      45.102   2.543   9.638  0.00  0.00    +0.000 A 
ATOM     19  C   UNL     1      45.673   1.869   8.554  0.00  0.00    +0.000 A 
ATOM     20  C   UNL     1      46.297   2.590   7.545  0.00  0.00    +0.000 A 
ATOM     21 CL   UNL     1      46.995   1.758   6.212  0.00  0.00    +0.000 Cl
ATOM     22  C   UNL     1      46.359   3.978   7.614  0.00  0.00    +0.000 A 
ATOM     23  C   UNL     1      45.779   4.652   8.696  0.00  0.00    +0.000 A 
ENDBRANCH  15  17
ENDBRANCH   1  15
TORSDOF 4
ENDMDL
MODEL 5
REMARK VINA RESULT:    -6.671      4.222      6.358
REMARK INTER + INTRA:          -8.588
REMARK INTER:                  -8.634
REMARK INTRA:                   0.046
REMARK UNBOUND:                -0.357
REMARK  Name = 
REMARK  6 active torsions:
REMARK  status: ('A' for Active; 'I' for Inactive)
REMARK    1  A    between atoms: C_1  and  C_2
REMARK    2  A    between atoms: C_2  and  C_3
REMARK    3  A    between atoms: C_2  and  N_4
REMARK    4  A    between atoms: C_2  and  C_14
REMARK    5  A    between atoms: N_4  and  C_5
REMARK    6  A    between atoms: C_8  and  C_9
REMARK                            x       y       z     vdW  Elec       q    Type
REMARK                         _______ _______ _______ _____ _____    ______ ____
ROOT
ATOM      1  N   UNL     1      45.484   3.333  12.520  0.00  0.00    +0.000 N 
ATOM      2  H   UNL     1      45.982   2.482  12.252  0.00  0.00    +0.000 HD
ENDROOT
BRANCH   1   3
ATOM      3  C   UNL     1      46.323   4.256  13.137  0.00  0.00    +0.000 A 
ATOM      4  C   UNL     1      46.694   5.490  12.632  0.00  0.00    +0.000 A 
ATOM      5  N   UNL     1      47.503   6.388  13.227  0.00  0.00    +0.000 NA
ATOM      6  C   UNL     1      47.933   6.044  14.455  0.00  0.00    +0.000 A 
ATOM      7  N   UNL     1      47.597   4.924  15.116  0.00  0.00    +0.000 NA
ATOM      8  C   UNL     1      46.782   4.075  14.439  0.00  0.00    +0.000 A 
BRANCH   6   9
ATOM      9  C   UNL     1      48.919   7.011  15.066  0.00  0.00    +0.000 C 
ATOM     10  N   UNL     1      48.340   8.048  15.769  0.00  0.00    +0.000 N 
ATOM     11  O   UNL     1      50.134   6.927  14.954  0.00  0.00    +0.000 OA
ATOM     12  H   UNL     1      47.329   8.107  15.827  0.00  0.00    +0.000 HD
ATOM     13  H   UNL     1      48.921   8.761  16.183  0.00  0.00    +0.000 HD
ENDBRANCH   6   9
ENDBRANCH   1   3
BRANCH   1  15
ATOM     14  C   UNL     1      43.251   2.618  11.692  0.00  0.00    +0.000 C 
ATOM     15  C   UNL     1      44.392   3.655  11.567  0.00  0.00    +0.000 C 
ATOM     16  C   UNL     1      43.878   5.089  11.817  0.00  0.00    +0.000 C 
BRANCH  15  17
ATOM     17  C   UNL     1      44.960   3.511  10.129  0.00  0.00    +0.000 A 
ATOM     18  C   UNL     1      45.159   2.254   9.521  0.00  0.00    +0.000 A 
ATOM     19  C   UNL     1      45.706   2.137   8.240  0.00  0.00    +0.000 A 
ATOM     20  C   UNL     1      46.073   3.278   7.539  0.00  0.00    +0.000 A 
ATOM     21 CL   UNL     1      46.742   3.131   5.963  0.00  0.00    +0.000 Cl
ATOM     22  C   UNL     1      45.903   4.535   8.113  0.00  0.00    +0.000 A 
ATOM     23  C   UNL     1      45.347   4.650   9.393  0.00  0.00    +0.000 A 
ENDBRANCH  15  17
ENDBRANCH   1  15
TORSDOF 4
ENDMDL
MODEL 6
REMARK VINA RESULT:    -6.635      4.090      6.266
REMARK INTER + INTRA:          -8.544
REMARK INTER:                  -8.233
REMARK INTRA:                  -0.310
REMARK UNBOUND:                -0.357
REMARK  Name = 
REMARK  6 active torsions:
REMARK  status: ('A' for Active; 'I' for Inactive)
REMARK    1  A    between atoms: C_1  and  C_2
REMARK    2  A    between atoms: C_2  and  C_3
REMARK    3  A    between atoms: C_2  and  N_4
REMARK    4  A    between atoms: C_2  and  C_14
REMARK    5  A    between atoms: N_4  and  C_5
REMARK    6  A    between atoms: C_8  and  C_9
REMARK                            x       y       z     vdW  Elec       q    Type
REMARK                         _______ _______ _______ _____ _____    ______ ____
ROOT
ATOM      1  N   UNL     1      45.224   4.509  11.997  0.00  0.00    +0.000 N 
ATOM      2  H   UNL     1      45.970   3.820  12.100  0.00  0.00    +0.000 HD
ENDROOT
BRANCH   1   3
ATOM      3  C   UNL     1      45.692   5.812  12.141  0.00  0.00    +0.000 A 
ATOM      4  C   UNL     1      45.083   6.825  12.860  0.00  0.00    +0.000 A 
ATOM      5  N   UNL     1      45.534   8.086  13.005  0.00  0.00    +0.000 NA
ATOM      6  C   UNL     1      46.722   8.339  12.425  0.00  0.00    +0.000 A 
ATOM      7  N   UNL     1      47.476   7.444  11.765  0.00  0.00    +0.000 NA
ATOM      8  C   UNL     1      46.941   6.200  11.665  0.00  0.00    +0.000 A 
BRANCH   6   9
ATOM      9  C   UNL     1      47.165   9.780  12.508  0.00  0.00    +0.000 C 
ATOM     10  N   UNL     1      46.191  10.698  12.173  0.00  0.00    +0.000 N 
ATOM     11  O   UNL     1      48.290  10.143  12.825  0.00  0.00    +0.000 OA
ATOM     12  H   UNL     1      45.273  10.368  11.892  0.00  0.00    +0.000 HD
ATOM     13  H   UNL     1      46.407  11.682  12.168  0.00  0.00    +0.000 HD
ENDBRANCH   6   9
ENDBRANCH   1   3
BRANCH   1  15
ATOM     14  C   UNL     1      43.415   2.851  11.596  0.00  0.00    +0.000 C 
ATOM     15  C   UNL     1      44.192   4.062  11.027  0.00  0.00    +0.000 C 
ATOM     16  C   UNL     1      43.242   5.231  10.688  0.00  0.00    +0.000 C 
BRANCH  15  17
ATOM     17  C   UNL     1      44.925   3.554   9.755  0.00  0.00    +0.000 A 
ATOM     18  C   UNL     1      45.145   2.182   9.511  0.00  0.00    +0.000 A 
ATOM     19  C   UNL     1      45.839   1.741   8.380  0.00  0.00    +0.000 A 
ATOM     20  C   UNL     1      46.336   2.665   7.471  0.00  0.00    +0.000 A 
ATOM     21 CL   UNL     1      47.186   2.119   6.080  0.00  0.00    +0.000 Cl
ATOM     22  C   UNL     1      46.148   4.027   7.687  0.00  0.00    +0.000 A 
ATOM     23  C   UNL     1      45.446   4.467   8.815  0.00  0.00    +0.000 A 
ENDBRANCH  15  17
ENDBRANCH   1  15
TORSDOF 4
ENDMDL
MODEL 7
REMARK VINA RESULT:    -5.975      1.525      2.179
REMARK INTER + INTRA:          -7.729
REMARK INTER:                  -7.613
REMARK INTRA:                  -0.116
REMARK UNBOUND:                -0.357
REMARK  Name = 
REMARK  6 active torsions:
REMARK  status: ('A' for Active; 'I' for Inactive)
REMARK    1  A    between atoms: C_1  and  C_2
REMARK    2  A    between atoms: C_2  and  C_3
REMARK    3  A    between atoms: C_2  and  N_4
REMARK    4  A    between atoms: C_2  and  C_14
REMARK    5  A    between atoms: N_4  and  C_5
REMARK    6  A    between atoms: C_8  and  C_9
REMARK                            x       y       z     vdW  Elec       q    Type
REMARK                         _______ _______ _______ _____ _____    ______ ____
ROOT
ATOM      1  N   UNL     1      44.328   5.005  10.201  0.00  0.00    +0.000 N 
ATOM      2  H   UNL     1      43.474   5.313   9.735  0.00  0.00    +0.000 HD
ENDROOT
BRANCH   1   3
ATOM      3  C   UNL     1      44.980   4.003   9.490  0.00  0.00    +0.000 A 
ATOM      4  C   UNL     1      44.918   2.645   9.747  0.00  0.00    +0.000 A 
ATOM      5  N   UNL     1      45.545   1.670   9.059  0.00  0.00    +0.000 NA
ATOM      6  C   UNL     1      46.252   2.088   7.992  0.00  0.00    +0.000 A 
ATOM      7  N   UNL     1      46.343   3.357   7.563  0.00  0.00    +0.000 NA
ATOM      8  C   UNL     1      45.683   4.272   8.319  0.00  0.00    +0.000 A 
BRANCH   6   9
ATOM      9  C   UNL     1      47.030   0.999   7.293  0.00  0.00    +0.000 C 
ATOM     10  N   UNL     1      46.683  -0.283   7.668  0.00  0.00    +0.000 N 
ATOM     11  O   UNL     1      47.915   1.197   6.471  0.00  0.00    +0.000 OA
ATOM     12  H   UNL     1      45.962  -0.417   8.369  0.00  0.00    +0.000 HD
ATOM     13  H   UNL     1      47.174  -1.071   7.277  0.00  0.00    +0.000 HD
ENDBRANCH   6   9
ENDBRANCH   1   3
BRANCH   1  15
ATOM     14  C   UNL     1      46.146   6.699  10.087  0.00  0.00    +0.000 C 
ATOM     15  C   UNL     1      44.987   6.118  10.932  0.00  0.00    +0.000 C 
ATOM     16  C   UNL     1      43.951   7.205  11.287  0.00  0.00    +0.000 C 
BRANCH  15  17
ATOM     17  C   UNL     1      45.633   5.526  12.214  0.00  0.00    +0.000 A 
ATOM     18  C   UNL     1      44.984   4.555  13.005  0.00  0.00    +0.000 A 
ATOM     19  C   UNL     1      45.561   4.058  14.178  0.00  0.00    +0.000 A 
ATOM     20  C   UNL     1      46.801   4.528  14.589  0.00  0.00    +0.000 A 
ATOM     21 CL   UNL     1      47.509   3.913  16.029  0.00  0.00    +0.000 Cl
ATOM     22  C   UNL     1      47.465   5.495  13.840  0.00  0.00    +0.000 A 
ATOM     23  C   UNL     1      46.889   5.986  12.662  0.00  0.00    +0.000 A 
ENDBRANCH  15  17
ENDBRANCH   1  15
TORSDOF 4
ENDMDL
MODEL 8
REMARK VINA RESULT:    -5.749      3.267      5.180
REMARK INTER + INTRA:          -7.450
REMARK INTER:                  -6.968
REMARK INTRA:                  -0.483
REMARK UNBOUND:                -0.357
REMARK  Name = 
REMARK  6 active torsions:
REMARK  status: ('A' for Active; 'I' for Inactive)
REMARK    1  A    between atoms: C_1  and  C_2
REMARK    2  A    between atoms: C_2  and  C_3
REMARK    3  A    between atoms: C_2  and  N_4
REMARK    4  A    between atoms: C_2  and  C_14
REMARK    5  A    between atoms: N_4  and  C_5
REMARK    6  A    between atoms: C_8  and  C_9
REMARK                            x       y       z     vdW  Elec       q    Type
REMARK                         _______ _______ _______ _____ _____    ______ ____
ROOT
ATOM      1  N   UNL     1      46.026   7.608  13.255  0.00  0.00    +0.000 N 
ATOM      2  H   UNL     1      45.380   8.393  13.162  0.00  0.00    +0.000 HD
ENDROOT
BRANCH   1   3
ATOM      3  C   UNL     1      45.485   6.425  12.761  0.00  0.00    +0.000 A 
ATOM      4  C   UNL     1      45.407   5.217  13.433  0.00  0.00    +0.000 A 
ATOM      5  N   UNL     1      44.882   4.070  12.961  0.00  0.00    +0.000 NA
ATOM      6  C   UNL     1      44.341   4.154  11.731  0.00  0.00    +0.000 A 
ATOM      7  N   UNL     1      44.263   5.268  10.985  0.00  0.00    +0.000 NA
ATOM      8  C   UNL     1      44.822   6.375  11.539  0.00  0.00    +0.000 A 
BRANCH   6   9
ATOM      9  C   UNL     1      43.849   2.839  11.174  0.00  0.00    +0.000 C 
ATOM     10  N   UNL     1      44.519   2.410  10.046  0.00  0.00    +0.000 N 
ATOM     11  O   UNL     1      42.924   2.189  11.643  0.00  0.00    +0.000 OA
ATOM     12  H   UNL     1      45.266   2.980   9.665  0.00  0.00    +0.000 HD
ATOM     13  H   UNL     1      44.236   1.558   9.587  0.00  0.00    +0.000 HD
ENDBRANCH   6   9
ENDBRANCH   1   3
BRANCH   1  15
ATOM     14  C   UNL     1      48.192   7.093  12.148  0.00  0.00    +0.000 C 
ATOM     15  C   UNL     1      47.440   8.039  13.113  0.00  0.00    +0.000 C 
ATOM     16  C   UNL     1      47.501   9.503  12.628  0.00  0.00    +0.000 C 
BRANCH  15  17
ATOM     17  C   UNL     1      48.124   7.884  14.500  0.00  0.00    +0.000 A 
ATOM     18  C   UNL     1      48.615   6.646  14.962  0.00  0.00    +0.000 A 
ATOM     19  C   UNL     1      49.195   6.513  16.228  0.00  0.00    +0.000 A 
ATOM     20  C   UNL     1      49.289   7.618  17.063  0.00  0.00    +0.000 A 
ATOM     21 CL   UNL     1      50.005   7.452  18.617  0.00  0.00    +0.000 Cl
ATOM     22  C   UNL     1      48.802   8.853  16.644  0.00  0.00    +0.000 A 
ATOM     23  C   UNL     1      48.230   8.986  15.374  0.00  0.00    +0.000 A 
ENDBRANCH  15  17
ENDBRANCH   1  15
TORSDOF 4
ENDMDL
