MODEL 1
REMARK VINA RESULT:    -9.037      0.000      0.000
REMARK INTER + INTRA:         -11.981
REMARK INTER:                 -11.150
REMARK INTRA:                  -0.830
REMARK UNBOUND:                -0.830
REMARK  Name = 
REMARK  4 active torsions:
REMARK  status: ('A' for Active; 'I' for Inactive)
REMARK    1  A    between atoms: C_2  and  C_4
REMARK    2  A    between atoms: N_8  and  C_9
REMARK    3  A    between atoms: C_9  and  C_10
REMARK    4  A    between atoms: C_14  and  C_15
REMARK                            x       y       z     vdW  Elec       q    Type
REMARK                         _______ _______ _______ _____ _____    ______ ____
ROOT
ATOM      1  C   UNL     1      46.379   2.267   7.688  0.00  0.00    +0.000 A 
ATOM      2  C   UNL     1      45.635   1.806   8.766  0.00  0.00    +0.000 A 
ATOM      3  C   UNL     1      44.781   2.688   9.432  0.00  0.00    +0.000 A 
ATOM      4  C   UNL     1      44.708   4.017   9.028  0.00  0.00    +0.000 A 
ATOM      5  N   UNL     1      43.841   4.934   9.574  0.00  0.00    +0.000 N 
ATOM      6  N   UNL     1      45.439   4.475   7.991  0.00  0.00    +0.000 NA
ATOM      7  C   UNL     1      46.261   3.604   7.351  0.00  0.00    +0.000 A 
ATOM      8  H   UNL     1      44.049   5.845   9.182  0.00  0.00    +0.000 HD
ENDROOT
BRANCH   1  10
ATOM      9  N   UNL     1      48.400   1.985   6.368  0.00  0.00    +0.000 N 
ATOM     10  C   UNL     1      47.285   1.398   6.910  0.00  0.00    +0.000 C 
ATOM     11  O   UNL     1      47.077   0.200   6.785  0.00  0.00    +0.000 OA
ATOM     12  H   UNL     1      49.062   1.363   5.922  0.00  0.00    +0.000 HD
ATOM     13  H   UNL     1      48.729   2.899   6.642  0.00  0.00    +0.000 HD
ENDBRANCH   1  10
BRANCH   5  14
ATOM     14  C   UNL     1      43.432   4.912  10.961  0.00  0.00    +0.000 C 
BRANCH  14  15
ATOM     15  C   UNL     1      44.548   5.259  11.918  0.00  0.00    +0.000 A 
ATOM     16  C   UNL     1      44.976   4.340  12.882  0.00  0.00    +0.000 A 
ATOM     17  C   UNL     1      46.088   4.617  13.673  0.00  0.00    +0.000 A 
ATOM     18  C   UNL     1      46.797   5.808  13.496  0.00  0.00    +0.000 A 
ATOM     19  C   UNL     1      46.413   6.752  12.527  0.00  0.00    +0.000 A 
ATOM     20  C   UNL     1      45.261   6.465  11.768  0.00  0.00    +0.000 A 
BRANCH  19  21
ATOM     21  C   UNL     1      47.233   7.952  12.253  0.00  0.00    +0.000 A 
ATOM     22  C   UNL     1      48.591   7.853  11.906  0.00  0.00    +0.000 A 
ATOM     23  C   UNL     1      49.331   8.989  11.577  0.00  0.00    +0.000 A 
ATOM     24  C   UNL     1      48.693  10.214  11.597  0.00  0.00    +0.000 A 
ATOM     25  N   UNL     1      47.398  10.373  11.935  0.00  0.00    +0.000 NA
ATOM     26  C   UNL     1      46.709   9.247  12.258  0.00  0.00    +0.000 A 
ENDBRANCH  19  21
ENDBRANCH  14  15
ENDBRANCH   5  14
TORSDOF 4
ENDMDL
MODEL 2
REMARK VINA RESULT:    -8.550      2.060      3.545
REMARK INTER + INTRA:         -11.380
REMARK INTER:                 -10.575
REMARK INTRA:                  -0.804
REMARK UNBOUND:                -0.830
REMARK  Name = 
REMARK  4 active torsions:
REMARK  status: ('A' for Active; 'I' for Inactive)
REMARK    1  A    between atoms: C_2  and  C_4
REMARK    2  A    between atoms: N_8  and  C_9
REMARK    3  A    between atoms: C_9  and  C_10
REMARK    4  A    between atoms: C_14  and  C_15
REMARK                            x       y       z     vdW  Elec       q    Type
REMARK                         _______ _______ _______ _____ _____    ______ ____
ROOT
ATOM      1  C   UNL     1      46.339   2.193   7.686  0.00  0.00    +0.000 A 
ATOM      2  C   UNL     1      45.729   1.822   8.878  0.00  0.00    +0.000 A 
ATOM      3  C   UNL     1      44.891   2.731   9.527  0.00  0.00    +0.000 A 
ATOM      4  C   UNL     1      44.700   3.999   8.989  0.00  0.00    +0.000 A 
ATOM      5  N   UNL     1      43.835   4.929   9.517  0.00  0.00    +0.000 N 
ATOM      6  N   UNL     1      45.301   4.373   7.841  0.00  0.00    +0.000 NA
ATOM      7  C   UNL     1      46.110   3.476   7.219  0.00  0.00    +0.000 A 
ATOM      8  H   UNL     1      43.951   5.799   9.010  0.00  0.00    +0.000 HD
ENDROOT
BRANCH   1  10
ATOM      9  N   UNL     1      48.313   1.845   6.312  0.00  0.00    +0.000 N 
ATOM     10  C   UNL     1      47.219   1.287   6.920  0.00  0.00    +0.000 C 
ATOM     11  O   UNL     1      47.006   0.085   6.859  0.00  0.00    +0.000 OA
ATOM     12  H   UNL     1      48.960   1.202   5.874  0.00  0.00    +0.000 HD
ATOM     13  H   UNL     1      48.651   2.771   6.531  0.00  0.00    +0.000 HD
ENDBRANCH   1  10
BRANCH   5  14
ATOM     14  C   UNL     1      43.561   5.046  10.932  0.00  0.00    +0.000 C 
BRANCH  14  15
ATOM     15  C   UNL     1      44.668   5.729  11.701  0.00  0.00    +0.000 A 
ATOM     16  C   UNL     1      44.834   7.117  11.636  0.00  0.00    +0.000 A 
ATOM     17  C   UNL     1      45.773   7.752  12.445  0.00  0.00    +0.000 A 
ATOM     18  C   UNL     1      46.543   7.008  13.343  0.00  0.00    +0.000 A 
ATOM     19  C   UNL     1      46.397   5.614  13.455  0.00  0.00    +0.000 A 
ATOM     20  C   UNL     1      45.469   4.992  12.596  0.00  0.00    +0.000 A 
BRANCH  19  21
ATOM     21  C   UNL     1      47.119   4.844  14.491  0.00  0.00    +0.000 A 
ATOM     22  C   UNL     1      47.652   5.464  15.632  0.00  0.00    +0.000 A 
ATOM     23  C   UNL     1      48.264   4.714  16.637  0.00  0.00    +0.000 A 
ATOM     24  C   UNL     1      48.329   3.343  16.481  0.00  0.00    +0.000 A 
ATOM     25  N   UNL     1      47.850   2.693  15.401  0.00  0.00    +0.000 NA
ATOM     26  C   UNL     1      47.268   3.456  14.439  0.00  0.00    +0.000 A 
ENDBRANCH  19  21
ENDBRANCH  14  15
ENDBRANCH   5  14
TORSDOF 4
ENDMDL
MODEL 3
REMARK VINA RESULT:    -7.785      2.076      2.599
REMARK INTER + INTRA:         -10.435
REMARK INTER:                  -9.735
REMARK INTRA:                  -0.700
REMARK UNBOUND:                -0.830
REMARK  Name = 
REMARK  4 active torsions:
REMARK  status: ('A' for Active; 'I' for Inactive)
REMARK    1  A    between atoms: C_2  and  C_4
REMARK    2  A    between atoms: N_8  and  C_9
REMARK    3  A    between atoms: C_9  and  C_10
REMARK    4  A    between atoms: C_14  and  C_15
REMARK                            x       y       z     vdW  Elec       q    Type
REMARK                         _______ _______ _______ _____ _____    ______ ____
ROOT
ATOM      1  C   UNL     1      46.706   2.526   7.204  0.00  0.00    +0.000 A 
ATOM      2  C   UNL     1      46.395   3.787   7.695  0.00  0.00    +0.000 A 
ATOM      3  C   UNL     1      45.619   3.896   8.851  0.00  0.00    +0.000 A 
ATOM      4  C   UNL     1      45.148   2.748   9.478  0.00  0.00    +0.000 A 
ATOM      5  N   UNL     1      44.445   2.757  10.660  0.00  0.00    +0.000 N 
ATOM      6  N   UNL     1      45.433   1.520   8.998  0.00  0.00    +0.000 NA
ATOM      7  C   UNL     1      46.192   1.430   7.875  0.00  0.00    +0.000 A 
ATOM      8  H   UNL     1      44.131   1.813  10.854  0.00  0.00    +0.000 HD
ENDROOT
BRANCH   1  10
ATOM      9  N   UNL     1      47.351   3.177   4.954  0.00  0.00    +0.000 N 
ATOM     10  C   UNL     1      47.541   2.317   6.004  0.00  0.00    +0.000 C 
ATOM     11  O   UNL     1      48.393   1.441   5.958  0.00  0.00    +0.000 OA
ATOM     12  H   UNL     1      47.995   3.087   4.177  0.00  0.00    +0.000 HD
ATOM     13  H   UNL     1      46.840   4.043   5.037  0.00  0.00    +0.000 HD
ENDBRANCH   1  10
BRANCH   5  14
ATOM     14  C   UNL     1      43.543   3.822  11.039  0.00  0.00    +0.000 C 
BRANCH  14  15
ATOM     15  C   UNL     1      44.227   4.953  11.770  0.00  0.00    +0.000 A 
ATOM     16  C   UNL     1      45.236   4.695  12.705  0.00  0.00    +0.000 A 
ATOM     17  C   UNL     1      45.950   5.745  13.278  0.00  0.00    +0.000 A 
ATOM     18  C   UNL     1      45.675   7.064  12.908  0.00  0.00    +0.000 A 
ATOM     19  C   UNL     1      44.683   7.368  11.960  0.00  0.00    +0.000 A 
ATOM     20  C   UNL     1      43.949   6.291  11.426  0.00  0.00    +0.000 A 
BRANCH  19  21
ATOM     21  C   UNL     1      44.478   8.751  11.475  0.00  0.00    +0.000 A 
ATOM     22  C   UNL     1      45.381   9.781  11.784  0.00  0.00    +0.000 A 
ATOM     23  C   UNL     1      45.215  11.062  11.257  0.00  0.00    +0.000 A 
ATOM     24  C   UNL     1      44.140  11.291  10.420  0.00  0.00    +0.000 A 
ATOM     25  N   UNL     1      43.234  10.347  10.099  0.00  0.00    +0.000 NA
ATOM     26  C   UNL     1      43.421   9.113  10.637  0.00  0.00    +0.000 A 
ENDBRANCH  19  21
ENDBRANCH  14  15
ENDBRANCH   5  14
TORSDOF 4
ENDMDL
MODEL 4
REMARK VINA RESULT:    -7.753      2.379      3.080
REMARK INTER + INTRA:         -10.396
REMARK INTER:                  -9.920
REMARK INTRA:                  -0.476
REMARK UNBOUND:                -0.830
REMARK  Name = 
REMARK  4 active torsions:
REMARK  status: ('A' for Active; 'I' for Inactive)
REMARK    1  A    between atoms: C_2  and  C_4
REMARK    2  A    between atoms: N_8  and  C_9
REMARK    3  A    between atoms: C_9  and  C_10
REMARK    4  A    between atoms: C_14  and  C_15
REMARK                            x       y       z     vdW  Elec       q    Type
REMARK                         _______ _______ _______ _____ _____    ______ ____
ROOT
ATOM      1  C   UNL     1      46.677   2.493   7.189  0.00  0.00    +0.000 A 
ATOM      2  C   UNL     1      46.354   3.730   7.731  0.00  0.00    +0.000 A 
ATOM      3  C   UNL     1      45.588   3.784   8.897  0.00  0.00    +0.000 A 
ATOM      4  C   UNL     1      45.137   2.606   9.483  0.00  0.00    +0.000 A 
ATOM      5  N   UNL     1      44.444   2.561  10.670  0.00  0.00    +0.000 N 
ATOM      6  N   UNL     1      45.433   1.402   8.954  0.00  0.00    +0.000 NA
ATOM      7  C   UNL     1      46.182   1.365   7.821  0.00  0.00    +0.000 A 
ATOM      8  H   UNL     1      44.144   1.606  10.830  0.00  0.00    +0.000 HD
ENDROOT
BRANCH   1  10
ATOM      9  N   UNL     1      47.302   3.247   4.965  0.00  0.00    +0.000 N 
ATOM     10  C   UNL     1      47.503   2.341   5.975  0.00  0.00    +0.000 C 
ATOM     11  O   UNL     1      48.358   1.472   5.883  0.00  0.00    +0.000 OA
ATOM     12  H   UNL     1      47.940   3.194   4.181  0.00  0.00    +0.000 HD
ATOM     13  H   UNL     1      46.788   4.106   5.091  0.00  0.00    +0.000 HD
ENDBRANCH   1  10
BRANCH   5  14
ATOM     14  C   UNL     1      43.532   3.599  11.098  0.00  0.00    +0.000 C 
BRANCH  14  15
ATOM     15  C   UNL     1      44.229   4.877  11.503  0.00  0.00    +0.000 A 
ATOM     16  C   UNL     1      43.708   6.123  11.138  0.00  0.00    +0.000 A 
ATOM     17  C   UNL     1      44.283   7.295  11.623  0.00  0.00    +0.000 A 
ATOM     18  C   UNL     1      45.373   7.234  12.495  0.00  0.00    +0.000 A 
ATOM     19  C   UNL     1      45.917   6.003  12.903  0.00  0.00    +0.000 A 
ATOM     20  C   UNL     1      45.342   4.834  12.365  0.00  0.00    +0.000 A 
BRANCH  19  21
ATOM     21  C   UNL     1      46.987   5.933  13.921  0.00  0.00    +0.000 A 
ATOM     22  C   UNL     1      47.897   6.986  14.108  0.00  0.00    +0.000 A 
ATOM     23  C   UNL     1      48.852   6.938  15.123  0.00  0.00    +0.000 A 
ATOM     24  C   UNL     1      48.879   5.827  15.944  0.00  0.00    +0.000 A 
ATOM     25  N   UNL     1      48.042   4.779  15.804  0.00  0.00    +0.000 NA
ATOM     26  C   UNL     1      47.130   4.856  14.800  0.00  0.00    +0.000 A 
ENDBRANCH  19  21
ENDBRANCH  14  15
ENDBRANCH   5  14
TORSDOF 4
ENDMDL
MODEL 5
REMARK VINA RESULT:    -7.327      3.267      7.288
REMARK INTER + INTRA:          -9.871
REMARK INTER:                  -9.475
REMARK INTRA:                  -0.396
REMARK UNBOUND:                -0.830
REMARK  Name = 
REMARK  4 active torsions:
REMARK  status: ('A' for Active; 'I' for Inactive)
REMARK    1  A    between atoms: C_2  and  C_4
REMARK    2  A    between atoms: N_8  and  C_9
REMARK    3  A    between atoms: C_9  and  C_10
REMARK    4  A    between atoms: C_14  and  C_15
REMARK                            x       y       z     vdW  Elec       q    Type
REMARK                         _______ _______ _______ _____ _____    ______ ____
ROOT
ATOM      1  C   UNL     1      47.876   5.472  15.353  0.00  0.00    +0.000 A 
ATOM      2  C   UNL     1      46.889   4.703  14.748  0.00  0.00    +0.000 A 
ATOM      3  C   UNL     1      46.336   5.132  13.540  0.00  0.00    +0.000 A 
ATOM      4  C   UNL     1      46.756   6.331  12.974  0.00  0.00    +0.000 A 
ATOM      5  N   UNL     1      46.324   6.791  11.753  0.00  0.00    +0.000 N 
ATOM      6  N   UNL     1      47.702   7.090  13.564  0.00  0.00    +0.000 NA
ATOM      7  C   UNL     1      48.235   6.657  14.736  0.00  0.00    +0.000 A 
ATOM      8  H   UNL     1      46.695   7.724  11.612  0.00  0.00    +0.000 HD
ENDROOT
BRANCH   1  10
ATOM      9  N   UNL     1      48.048   5.637  17.771  0.00  0.00    +0.000 N 
ATOM     10  C   UNL     1      48.534   5.081  16.616  0.00  0.00    +0.000 C 
ATOM     11  O   UNL     1      49.447   4.269  16.640  0.00  0.00    +0.000 OA
ATOM     12  H   UNL     1      48.441   5.289  18.637  0.00  0.00    +0.000 HD
ATOM     13  H   UNL     1      47.161   6.116  17.821  0.00  0.00    +0.000 HD
ENDBRANCH   1  10
BRANCH   5  14
ATOM     14  C   UNL     1      44.995   6.547  11.237  0.00  0.00    +0.000 C 
BRANCH  14  15
ATOM     15  C   UNL     1      44.761   5.106  10.847  0.00  0.00    +0.000 A 
ATOM     16  C   UNL     1      43.714   4.372  11.413  0.00  0.00    +0.000 A 
ATOM     17  C   UNL     1      43.426   3.089  10.954  0.00  0.00    +0.000 A 
ATOM     18  C   UNL     1      44.170   2.533   9.910  0.00  0.00    +0.000 A 
ATOM     19  C   UNL     1      45.219   3.243   9.299  0.00  0.00    +0.000 A 
ATOM     20  C   UNL     1      45.516   4.522   9.810  0.00  0.00    +0.000 A 
BRANCH  19  21
ATOM     21  C   UNL     1      45.923   2.707   8.114  0.00  0.00    +0.000 A 
ATOM     22  C   UNL     1      46.203   3.511   6.997  0.00  0.00    +0.000 A 
ATOM     23  C   UNL     1      46.934   3.013   5.919  0.00  0.00    +0.000 A 
ATOM     24  C   UNL     1      47.381   1.706   5.980  0.00  0.00    +0.000 A 
ATOM     25  N   UNL     1      47.131   0.883   7.017  0.00  0.00    +0.000 NA
ATOM     26  C   UNL     1      46.409   1.399   8.046  0.00  0.00    +0.000 A 
ENDBRANCH  19  21
ENDBRANCH  14  15
ENDBRANCH   5  14
TORSDOF 4
ENDMDL
MODEL 6
REMARK VINA RESULT:    -7.270      3.051      6.900
REMARK INTER + INTRA:          -9.800
REMARK INTER:                  -8.998
REMARK INTRA:                  -0.802
REMARK UNBOUND:                -0.830
REMARK  Name = 
REMARK  4 active torsions:
REMARK  status: ('A' for Active; 'I' for Inactive)
REMARK    1  A    between atoms: C_2  and  C_4
REMARK    2  A    between atoms: N_8  and  C_9
REMARK    3  A    between atoms: C_9  and  C_10
REMARK    4  A    between atoms: C_14  and  C_15
REMARK                            x       y       z     vdW  Elec       q    Type
REMARK                         _______ _______ _______ _____ _____    ______ ____
ROOT
ATOM      1  C   UNL     1      48.799   7.458  12.834  0.00  0.00    +0.000 A 
ATOM      2  C   UNL     1      48.161   7.711  11.626  0.00  0.00    +0.000 A 
ATOM      3  C   UNL     1      46.796   7.438  11.506  0.00  0.00    +0.000 A 
ATOM      4  C   UNL     1      46.103   6.895  12.583  0.00  0.00    +0.000 A 
ATOM      5  N   UNL     1      44.747   6.668  12.580  0.00  0.00    +0.000 N 
ATOM      6  N   UNL     1      46.719   6.633  13.754  0.00  0.00    +0.000 NA
ATOM      7  C   UNL     1      48.046   6.908  13.856  0.00  0.00    +0.000 A 
ATOM      8  H   UNL     1      44.502   6.179  13.434  0.00  0.00    +0.000 HD
ENDROOT
BRANCH   1  10
ATOM      9  N   UNL     1      51.069   7.606  11.981  0.00  0.00    +0.000 N 
ATOM     10  C   UNL     1      50.231   7.740  13.057  0.00  0.00    +0.000 C 
ATOM     11  O   UNL     1      50.651   8.115  14.143  0.00  0.00    +0.000 OA
ATOM     12  H   UNL     1      52.029   7.896  12.120  0.00  0.00    +0.000 HD
ATOM     13  H   UNL     1      50.737   7.534  11.030  0.00  0.00    +0.000 HD
ENDBRANCH   1  10
BRANCH   5  14
ATOM     14  C   UNL     1      44.006   6.296  11.395  0.00  0.00    +0.000 C 
BRANCH  14  15
ATOM     15  C   UNL     1      44.118   4.827  11.058  0.00  0.00    +0.000 A 
ATOM     16  C   UNL     1      43.306   3.882  11.695  0.00  0.00    +0.000 A 
ATOM     17  C   UNL     1      43.323   2.550  11.289  0.00  0.00    +0.000 A 
ATOM     18  C   UNL     1      44.139   2.152  10.227  0.00  0.00    +0.000 A 
ATOM     19  C   UNL     1      44.957   3.071   9.546  0.00  0.00    +0.000 A 
ATOM     20  C   UNL     1      44.951   4.403  10.004  0.00  0.00    +0.000 A 
BRANCH  19  21
ATOM     21  C   UNL     1      45.724   2.676   8.344  0.00  0.00    +0.000 A 
ATOM     22  C   UNL     1      45.997   3.588   7.312  0.00  0.00    +0.000 A 
ATOM     23  C   UNL     1      46.786   3.222   6.221  0.00  0.00    +0.000 A 
ATOM     24  C   UNL     1      47.295   1.938   6.184  0.00  0.00    +0.000 A 
ATOM     25  N   UNL     1      47.055   1.015   7.136  0.00  0.00    +0.000 NA
ATOM     26  C   UNL     1      46.276   1.404   8.180  0.00  0.00    +0.000 A 
ENDBRANCH  19  21
ENDBRANCH  14  15
ENDBRANCH   5  14
TORSDOF 4
ENDMDL
MODEL 7
REMARK VINA RESULT:    -7.012      4.851      7.899
REMARK INTER + INTRA:          -9.481
REMARK INTER:                  -8.998
REMARK INTRA:                  -0.483
REMARK UNBOUND:                -0.830
REMARK  Name = 
REMARK  4 active torsions:
REMARK  status: ('A' for Active; 'I' for Inactive)
REMARK    1  A    between atoms: C_2  and  C_4
REMARK    2  A    between atoms: N_8  and  C_9
REMARK    3  A    between atoms: C_9  and  C_10
REMARK    4  A    between atoms: C_14  and  C_15
REMARK                            x       y       z     vdW  Elec       q    Type
REMARK                         _______ _______ _______ _____ _____    ______ ____
ROOT
ATOM      1  C   UNL     1      49.631   3.768  17.308  0.00  0.00    +0.000 A 
ATOM      2  C   UNL     1      49.071   5.021  17.094  0.00  0.00    +0.000 A 
ATOM      3  C   UNL     1      47.984   5.142  16.226  0.00  0.00    +0.000 A 
ATOM      4  C   UNL     1      47.494   4.017  15.570  0.00  0.00    +0.000 A 
ATOM      5  N   UNL     1      46.383   4.029  14.761  0.00  0.00    +0.000 N 
ATOM      6  N   UNL     1      48.043   2.800  15.762  0.00  0.00    +0.000 NA
ATOM      7  C   UNL     1      49.097   2.698  16.612  0.00  0.00    +0.000 A 
ATOM      8  H   UNL     1      46.293   3.118  14.326  0.00  0.00    +0.000 HD
ENDROOT
BRANCH   1  10
ATOM      9  N   UNL     1      51.429   2.349  18.121  0.00  0.00    +0.000 N 
ATOM     10  C   UNL     1      50.765   3.544  18.228  0.00  0.00    +0.000 C 
ATOM     11  O   UNL     1      51.124   4.398  19.026  0.00  0.00    +0.000 OA
ATOM     12  H   UNL     1      52.262   2.246  18.686  0.00  0.00    +0.000 HD
ATOM     13  H   UNL     1      51.321   1.728  17.333  0.00  0.00    +0.000 HD
ENDBRANCH   1  10
BRANCH   5  14
ATOM     14  C   UNL     1      46.003   5.165  13.951  0.00  0.00    +0.000 C 
BRANCH  14  15
ATOM     15  C   UNL     1      45.065   4.806  12.821  0.00  0.00    +0.000 A 
ATOM     16  C   UNL     1      43.736   5.241  12.828  0.00  0.00    +0.000 A 
ATOM     17  C   UNL     1      42.916   5.016  11.725  0.00  0.00    +0.000 A 
ATOM     18  C   UNL     1      43.423   4.369  10.594  0.00  0.00    +0.000 A 
ATOM     19  C   UNL     1      44.758   3.931  10.537  0.00  0.00    +0.000 A 
ATOM     20  C   UNL     1      45.553   4.136  11.682  0.00  0.00    +0.000 A 
BRANCH  19  21
ATOM     21  C   UNL     1      45.329   3.362   9.297  0.00  0.00    +0.000 A 
ATOM     22  C   UNL     1      45.799   4.181   8.257  0.00  0.00    +0.000 A 
ATOM     23  C   UNL     1      46.404   3.630   7.128  0.00  0.00    +0.000 A 
ATOM     24  C   UNL     1      46.533   2.256   7.059  0.00  0.00    +0.000 A 
ATOM     25  N   UNL     1      46.089   1.419   8.017  0.00  0.00    +0.000 NA
ATOM     26  C   UNL     1      45.497   1.989   9.100  0.00  0.00    +0.000 A 
ENDBRANCH  19  21
ENDBRANCH  14  15
ENDBRANCH   5  14
TORSDOF 4
ENDMDL
MODEL 8
REMARK VINA RESULT:    -6.982      3.234      6.955
REMARK INTER + INTRA:          -9.445
REMARK INTER:                  -8.757
REMARK INTRA:                  -0.688
REMARK UNBOUND:                -0.830
REMARK  Name = 
REMARK  4 active torsions:
REMARK  status: ('A' for Active; 'I' for Inactive)
REMARK    1  A    between atoms: C_2  and  C_4
REMARK    2  A    between atoms: N_8  and  C_9
REMARK    3  A    between atoms: C_9  and  C_10
REMARK    4  A    between atoms: C_14  and  C_15
REMARK                            x       y       z     vdW  Elec       q    Type
REMARK                         _______ _______ _______ _____ _____    ______ ____
ROOT
ATOM      1  C   UNL     1      49.306   8.038  12.869  0.00  0.00    +0.000 A 
ATOM      2  C   UNL     1      48.338   8.500  11.986  0.00  0.00    +0.000 A 
ATOM      3  C   UNL     1      47.035   8.010  12.084  0.00  0.00    +0.000 A 
ATOM      4  C   UNL     1      46.729   7.049  13.043  0.00  0.00    +0.000 A 
ATOM      5  N   UNL     1      45.459   6.568  13.262  0.00  0.00    +0.000 N 
ATOM      6  N   UNL     1      47.666   6.584  13.893  0.00  0.00    +0.000 NA
ATOM      7  C   UNL     1      48.928   7.074  13.788  0.00  0.00    +0.000 A 
ATOM      8  H   UNL     1      45.515   5.812  13.935  0.00  0.00    +0.000 HD
ENDROOT
BRANCH   1  10
ATOM      9  N   UNL     1      51.611   7.780  12.144  0.00  0.00    +0.000 N 
ATOM     10  C   UNL     1      50.701   8.521  12.853  0.00  0.00    +0.000 C 
ATOM     11  O   UNL     1      51.029   9.556  13.415  0.00  0.00    +0.000 OA
ATOM     12  H   UNL     1      52.540   8.171  12.059  0.00  0.00    +0.000 HD
ATOM     13  H   UNL     1      51.343   7.066  11.483  0.00  0.00    +0.000 HD
ENDBRANCH   1  10
BRANCH   5  14
ATOM     14  C   UNL     1      44.474   6.419  12.214  0.00  0.00    +0.000 C 
BRANCH  14  15
ATOM     15  C   UNL     1      44.394   5.014  11.665  0.00  0.00    +0.000 A 
ATOM     16  C   UNL     1      43.452   4.105  12.159  0.00  0.00    +0.000 A 
ATOM     17  C   UNL     1      43.298   2.856  11.561  0.00  0.00    +0.000 A 
ATOM     18  C   UNL     1      44.071   2.510  10.450  0.00  0.00    +0.000 A 
ATOM     19  C   UNL     1      45.016   3.400   9.908  0.00  0.00    +0.000 A 
ATOM     20  C   UNL     1      45.180   4.640  10.557  0.00  0.00    +0.000 A 
BRANCH  19  21
ATOM     21  C   UNL     1      45.743   3.085   8.659  0.00  0.00    +0.000 A 
ATOM     22  C   UNL     1      46.144   1.776   8.349  0.00  0.00    +0.000 A 
ATOM     23  C   UNL     1      46.761   1.483   7.133  0.00  0.00    +0.000 A 
ATOM     24  C   UNL     1      46.965   2.516   6.238  0.00  0.00    +0.000 A 
ATOM     25  N   UNL     1      46.616   3.794   6.485  0.00  0.00    +0.000 NA
ATOM     26  C   UNL     1      46.025   4.044   7.683  0.00  0.00    +0.000 A 
ENDBRANCH  19  21
ENDBRANCH  14  15
ENDBRANCH   5  14
TORSDOF 4
ENDMDL
MODEL 9
REMARK VINA RESULT:    -6.790      2.126      2.974
REMARK INTER + INTRA:          -9.208
REMARK INTER:                  -8.540
REMARK INTRA:                  -0.668
REMARK UNBOUND:                -0.830
REMARK  Name = 
REMARK  4 active torsions:
REMARK  status: ('A' for Active; 'I' for Inactive)
REMARK    1  A    between atoms: C_2  and  C_4
REMARK    2  A    between atoms: N_8  and  C_9
REMARK    3  A    between atoms: C_9  and  C_10
REMARK    4  A    between atoms: C_14  and  C_15
REMARK                            x       y       z     vdW  Elec       q    Type
REMARK                         _______ _______ _______ _____ _____    ______ ____
ROOT
ATOM      1  C   UNL     1      46.074   2.880   7.989  0.00  0.00    +0.000 A 
ATOM      2  C   UNL     1      46.105   4.268   8.041  0.00  0.00    +0.000 A 
ATOM      3  C   UNL     1      45.533   4.922   9.134  0.00  0.00    +0.000 A 
ATOM      4  C   UNL     1      44.918   4.182  10.138  0.00  0.00    +0.000 A 
ATOM      5  N   UNL     1      44.398   4.735  11.285  0.00  0.00    +0.000 N 
ATOM      6  N   UNL     1      44.869   2.835  10.086  0.00  0.00    +0.000 NA
ATOM      7  C   UNL     1      45.434   2.213   9.019  0.00  0.00    +0.000 A 
ATOM      8  H   UNL     1      43.920   4.007  11.804  0.00  0.00    +0.000 HD
ENDROOT
BRANCH   1  10
ATOM      9  N   UNL     1      47.193   0.875   7.196  0.00  0.00    +0.000 N 
ATOM     10  C   UNL     1      46.677   2.107   6.885  0.00  0.00    +0.000 C 
ATOM     11  O   UNL     1      46.684   2.524   5.736  0.00  0.00    +0.000 OA
ATOM     12  H   UNL     1      47.515   0.313   6.417  0.00  0.00    +0.000 HD
ATOM     13  H   UNL     1      46.998   0.400   8.064  0.00  0.00    +0.000 HD
ENDBRANCH   1  10
BRANCH   5  14
ATOM     14  C   UNL     1      43.800   6.051  11.331  0.00  0.00    +0.000 C 
BRANCH  14  15
ATOM     15  C   UNL     1      44.788   7.144  11.670  0.00  0.00    +0.000 A 
ATOM     16  C   UNL     1      44.493   8.484  11.400  0.00  0.00    +0.000 A 
ATOM     17  C   UNL     1      45.350   9.494  11.830  0.00  0.00    +0.000 A 
ATOM     18  C   UNL     1      46.502   9.175  12.554  0.00  0.00    +0.000 A 
ATOM     19  C   UNL     1      46.828   7.843  12.864  0.00  0.00    +0.000 A 
ATOM     20  C   UNL     1      45.966   6.839  12.381  0.00  0.00    +0.000 A 
BRANCH  19  21
ATOM     21  C   UNL     1      47.977   7.514  13.735  0.00  0.00    +0.000 A 
ATOM     22  C   UNL     1      49.087   8.367  13.845  0.00  0.00    +0.000 A 
ATOM     23  C   UNL     1      50.128   8.080  14.728  0.00  0.00    +0.000 A 
ATOM     24  C   UNL     1      50.037   6.934  15.496  0.00  0.00    +0.000 A 
ATOM     25  N   UNL     1      49.005   6.071  15.424  0.00  0.00    +0.000 NA
ATOM     26  C   UNL     1      48.013   6.377  14.547  0.00  0.00    +0.000 A 
ENDBRANCH  19  21
ENDBRANCH  14  15
ENDBRANCH   5  14
TORSDOF 4
ENDMDL
