MODEL 1
REMARK VINA RESULT:    -7.519      0.000      0.000
REMARK INTER + INTRA:         -10.070
REMARK INTER:                  -9.497
REMARK INTRA:                  -0.573
REMARK UNBOUND:                -0.573
REMARK  Name = 
REMARK  5 active torsions:
REMARK  status: ('A' for Active; 'I' for Inactive)
REMARK    1  A    between atoms: N_1  and  C_2
REMARK    2  A    between atoms: C_2  and  C_3
REMARK    3  A    between atoms: C_3  and  C_4
REMARK    4  A    between atoms: C_8  and  C_9
REMARK    5  A    between atoms: C_9  and  N_10
REMARK                            x       y       z     vdW  Elec       q    Type
REMARK                         _______ _______ _______ _____ _____    ______ ____
ROOT
ATOM      1  C   UNL     1      46.036   3.396   7.973  0.00  0.00    +0.000 A 
ATOM      2  C   UNL     1      45.543   2.097   8.153  0.00  0.00    +0.000 A 
ATOM      3  C   UNL     1      44.643   1.819   9.184  0.00  0.00    +0.000 A 
ATOM      4  C   UNL     1      44.260   2.827  10.070  0.00  0.00    +0.000 A 
ATOM      5  C   UNL     1      44.789   4.118   9.950  0.00  0.00    +0.000 A 
ATOM      6  C   UNL     1      45.654   4.399   8.877  0.00  0.00    +0.000 A 
ENDROOT
BRANCH   1   7
ATOM      7  C   UNL     1      46.965   3.708   6.822  0.00  0.00    +0.000 C 
BRANCH   7   8
ATOM      8  C   UNL     1      47.041   2.573   5.796  0.00  0.00    +0.000 C 
BRANCH   8   9
ATOM      9  N   UNL     1      48.382   1.983   5.757  0.00  0.00    +0.000 NA
ATOM     10  H   UNL     1      48.982   2.469   6.423  0.00  0.00    +0.000 HD
ATOM     11  H   UNL     1      48.796   2.136   4.839  0.00  0.00    +0.000 HD
ENDBRANCH   8   9
ENDBRANCH   7   8
ENDBRANCH   1   7
BRANCH   5  12
ATOM     12  C   UNL     1      44.461   5.188  10.966  0.00  0.00    +0.000 C 
BRANCH  12  13
ATOM     13  N   UNL     1      45.374   5.179  12.099  0.00  0.00    +0.000 N 
ATOM     14  N   UNL     1      45.108   4.375  13.159  0.00  0.00    +0.000 NA
ATOM     15  C   UNL     1      46.164   4.568  13.958  0.00  0.00    +0.000 A 
ATOM     16  C   UNL     1      47.071   5.512  13.447  0.00  0.00    +0.000 A 
ATOM     17  N   UNL     1      48.248   5.977  13.931  0.00  0.00    +0.000 NA
ATOM     18  C   UNL     1      48.849   6.899  13.147  0.00  0.00    +0.000 A 
ATOM     19  C   UNL     1      48.342   7.404  11.957  0.00  0.00    +0.000 A 
ATOM     20  C   UNL     1      47.122   6.932  11.479  0.00  0.00    +0.000 A 
ATOM     21  C   UNL     1      46.508   5.944  12.249  0.00  0.00    +0.000 A 
ENDBRANCH  12  13
ENDBRANCH   5  12
TORSDOF 5
ENDMDL
MODEL 2
REMARK VINA RESULT:    -6.726      1.805      5.830
REMARK INTER + INTRA:          -9.068
REMARK INTER:                  -8.569
REMARK INTRA:                  -0.499
REMARK UNBOUND:                -0.573
REMARK  Name = 
REMARK  5 active torsions:
REMARK  status: ('A' for Active; 'I' for Inactive)
REMARK    1  A    between atoms: N_1  and  C_2
REMARK    2  A    between atoms: C_2  and  C_3
REMARK    3  A    between atoms: C_3  and  C_4
REMARK    4  A    between atoms: C_8  and  C_9
REMARK    5  A    between atoms: C_9  and  N_10
REMARK                            x       y       z     vdW  Elec       q    Type
REMARK                         _______ _______ _______ _____ _____    ______ ____
ROOT
ATOM      1  C   UNL     1      46.456   6.362  12.945  0.00  0.00    +0.000 A 
ATOM      2  C   UNL     1      46.546   7.746  12.752  0.00  0.00    +0.000 A 
ATOM      3  C   UNL     1      45.590   8.416  11.987  0.00  0.00    +0.000 A 
ATOM      4  C   UNL     1      44.559   7.704  11.372  0.00  0.00    +0.000 A 
ATOM      5  C   UNL     1      44.484   6.311  11.498  0.00  0.00    +0.000 A 
ATOM      6  C   UNL     1      45.422   5.653  12.313  0.00  0.00    +0.000 A 
ENDROOT
BRANCH   1   7
ATOM      7  C   UNL     1      47.459   5.644  13.820  0.00  0.00    +0.000 C 
BRANCH   7   8
ATOM      8  C   UNL     1      46.817   4.555  14.686  0.00  0.00    +0.000 C 
BRANCH   8   9
ATOM      9  N   UNL     1      47.423   3.247  14.426  0.00  0.00    +0.000 NA
ATOM     10  H   UNL     1      47.305   2.653  15.246  0.00  0.00    +0.000 HD
ATOM     11  H   UNL     1      48.428   3.355  14.296  0.00  0.00    +0.000 HD
ENDBRANCH   8   9
ENDBRANCH   7   8
ENDBRANCH   1   7
BRANCH   5  12
ATOM     12  C   UNL     1      43.433   5.521  10.752  0.00  0.00    +0.000 C 
BRANCH  12  13
ATOM     13  N   UNL     1      43.890   4.186  10.393  0.00  0.00    +0.000 N 
ATOM     14  N   UNL     1      43.407   3.116  11.071  0.00  0.00    +0.000 NA
ATOM     15  C   UNL     1      43.976   2.079  10.444  0.00  0.00    +0.000 A 
ATOM     16  C   UNL     1      44.844   2.474   9.412  0.00  0.00    +0.000 A 
ATOM     17  N   UNL     1      45.594   1.751   8.546  0.00  0.00    +0.000 NA
ATOM     18  C   UNL     1      46.317   2.493   7.679  0.00  0.00    +0.000 A 
ATOM     19  C   UNL     1      46.370   3.880   7.648  0.00  0.00    +0.000 A 
ATOM     20  C   UNL     1      45.609   4.613   8.556  0.00  0.00    +0.000 A 
ATOM     21  C   UNL     1      44.817   3.866   9.428  0.00  0.00    +0.000 A 
ENDBRANCH  12  13
ENDBRANCH   5  12
TORSDOF 5
ENDMDL
MODEL 3
REMARK VINA RESULT:    -6.435      1.802      6.143
REMARK INTER + INTRA:          -8.702
REMARK INTER:                  -8.256
REMARK INTRA:                  -0.445
REMARK UNBOUND:                -0.573
REMARK  Name = 
REMARK  5 active torsions:
REMARK  status: ('A' for Active; 'I' for Inactive)
REMARK    1  A    between atoms: N_1  and  C_2
REMARK    2  A    between atoms: C_2  and  C_3
REMARK    3  A    between atoms: C_3  and  C_4
REMARK    4  A    between atoms: C_8  and  C_9
REMARK    5  A    between atoms: C_9  and  N_10
REMARK                            x       y       z     vdW  Elec       q    Type
REMARK                         _______ _______ _______ _____ _____    ______ ____
ROOT
ATOM      1  C   UNL     1      45.265   4.618  13.136  0.00  0.00    +0.000 A 
ATOM      2  C   UNL     1      44.196   5.507  13.312  0.00  0.00    +0.000 A 
ATOM      3  C   UNL     1      43.090   5.459  12.463  0.00  0.00    +0.000 A 
ATOM      4  C   UNL     1      43.059   4.552  11.403  0.00  0.00    +0.000 A 
ATOM      5  C   UNL     1      44.144   3.697  11.167  0.00  0.00    +0.000 A 
ATOM      6  C   UNL     1      45.229   3.718  12.059  0.00  0.00    +0.000 A 
ENDROOT
BRANCH   1   7
ATOM      7  C   UNL     1      46.437   4.632  14.090  0.00  0.00    +0.000 C 
BRANCH   7   8
ATOM      8  C   UNL     1      47.246   5.932  14.018  0.00  0.00    +0.000 C 
BRANCH   8   9
ATOM      9  N   UNL     1      48.395   5.791  13.121  0.00  0.00    +0.000 NA
ATOM     10  H   UNL     1      48.327   6.484  12.376  0.00  0.00    +0.000 HD
ATOM     11  H   UNL     1      48.363   4.881  12.664  0.00  0.00    +0.000 HD
ENDBRANCH   8   9
ENDBRANCH   7   8
ENDBRANCH   1   7
BRANCH   5  12
ATOM     12  C   UNL     1      44.164   2.785   9.961  0.00  0.00    +0.000 C 
BRANCH  12  13
ATOM     13  N   UNL     1      45.127   3.210   8.957  0.00  0.00    +0.000 N 
ATOM     14  N   UNL     1      45.236   4.529   8.659  0.00  0.00    +0.000 NA
ATOM     15  C   UNL     1      46.238   4.558   7.771  0.00  0.00    +0.000 A 
ATOM     16  C   UNL     1      46.735   3.278   7.468  0.00  0.00    +0.000 A 
ATOM     17  N   UNL     1      47.732   2.878   6.643  0.00  0.00    +0.000 NA
ATOM     18  C   UNL     1      47.924   1.541   6.608  0.00  0.00    +0.000 A 
ATOM     19  C   UNL     1      47.174   0.597   7.297  0.00  0.00    +0.000 A 
ATOM     20  C   UNL     1      46.139   1.019   8.127  0.00  0.00    +0.000 A 
ATOM     21  C   UNL     1      45.956   2.400   8.216  0.00  0.00    +0.000 A 
ENDBRANCH  12  13
ENDBRANCH   5  12
TORSDOF 5
ENDMDL
MODEL 4
REMARK VINA RESULT:    -6.230      2.376      6.198
REMARK INTER + INTRA:          -8.443
REMARK INTER:                  -8.023
REMARK INTRA:                  -0.420
REMARK UNBOUND:                -0.573
REMARK  Name = 
REMARK  5 active torsions:
REMARK  status: ('A' for Active; 'I' for Inactive)
REMARK    1  A    between atoms: N_1  and  C_2
REMARK    2  A    between atoms: C_2  and  C_3
REMARK    3  A    between atoms: C_3  and  C_4
REMARK    4  A    between atoms: C_8  and  C_9
REMARK    5  A    between atoms: C_9  and  N_10
REMARK                            x       y       z     vdW  Elec       q    Type
REMARK                         _______ _______ _______ _____ _____    ______ ____
ROOT
ATOM      1  C   UNL     1      45.485   7.844  12.376  0.00  0.00    +0.000 A 
ATOM      2  C   UNL     1      46.423   7.109  13.112  0.00  0.00    +0.000 A 
ATOM      3  C   UNL     1      46.527   5.728  12.944  0.00  0.00    +0.000 A 
ATOM      4  C   UNL     1      45.667   5.061  12.070  0.00  0.00    +0.000 A 
ATOM      5  C   UNL     1      44.678   5.765  11.371  0.00  0.00    +0.000 A 
ATOM      6  C   UNL     1      44.617   7.163  11.509  0.00  0.00    +0.000 A 
ENDROOT
BRANCH   1   7
ATOM      7  C   UNL     1      45.411   9.348  12.515  0.00  0.00    +0.000 C 
BRANCH   7   8
ATOM      8  C   UNL     1      44.455   9.991  11.505  0.00  0.00    +0.000 C 
BRANCH   8   9
ATOM      9  N   UNL     1      43.350  10.675  12.182  0.00  0.00    +0.000 NA
ATOM     10  H   UNL     1      43.567  11.668  12.260  0.00  0.00    +0.000 HD
ATOM     11  H   UNL     1      43.267  10.328  13.137  0.00  0.00    +0.000 HD
ENDBRANCH   8   9
ENDBRANCH   7   8
ENDBRANCH   1   7
BRANCH   5  12
ATOM     12  C   UNL     1      43.676   5.038  10.504  0.00  0.00    +0.000 C 
BRANCH  12  13
ATOM     13  N   UNL     1      44.217   3.810   9.938  0.00  0.00    +0.000 N 
ATOM     14  N   UNL     1      43.755   2.616  10.385  0.00  0.00    +0.000 NA
ATOM     15  C   UNL     1      44.406   1.734   9.616  0.00  0.00    +0.000 A 
ATOM     16  C   UNL     1      45.303   2.344   8.723  0.00  0.00    +0.000 A 
ATOM     17  N   UNL     1      46.129   1.821   7.786  0.00  0.00    +0.000 NA
ATOM     18  C   UNL     1      46.857   2.736   7.109  0.00  0.00    +0.000 A 
ATOM     19  C   UNL     1      46.841   4.107   7.331  0.00  0.00    +0.000 A 
ATOM     20  C   UNL     1      46.001   4.632   8.310  0.00  0.00    +0.000 A 
ATOM     21  C   UNL     1      45.205   3.707   8.987  0.00  0.00    +0.000 A 
ENDBRANCH  12  13
ENDBRANCH   5  12
TORSDOF 5
ENDMDL
MODEL 5
REMARK VINA RESULT:    -5.885      1.854      2.375
REMARK INTER + INTRA:          -8.006
REMARK INTER:                  -7.457
REMARK INTRA:                  -0.550
REMARK UNBOUND:                -0.573
REMARK  Name = 
REMARK  5 active torsions:
REMARK  status: ('A' for Active; 'I' for Inactive)
REMARK    1  A    between atoms: N_1  and  C_2
REMARK    2  A    between atoms: C_2  and  C_3
REMARK    3  A    between atoms: C_3  and  C_4
REMARK    4  A    between atoms: C_8  and  C_9
REMARK    5  A    between atoms: C_9  and  N_10
REMARK                            x       y       z     vdW  Elec       q    Type
REMARK                         _______ _______ _______ _____ _____    ______ ____
ROOT
ATOM      1  C   UNL     1      44.478   3.806   9.564  0.00  0.00    +0.000 A 
ATOM      2  C   UNL     1      44.142   2.523  10.014  0.00  0.00    +0.000 A 
ATOM      3  C   UNL     1      43.711   2.325  11.326  0.00  0.00    +0.000 A 
ATOM      4  C   UNL     1      43.654   3.400  12.215  0.00  0.00    +0.000 A 
ATOM      5  C   UNL     1      44.046   4.681  11.807  0.00  0.00    +0.000 A 
ATOM      6  C   UNL     1      44.428   4.878  10.469  0.00  0.00    +0.000 A 
ENDROOT
BRANCH   1   7
ATOM      7  C   UNL     1      44.890   4.030   8.126  0.00  0.00    +0.000 C 
BRANCH   7   8
ATOM      8  C   UNL     1      46.248   3.402   7.794  0.00  0.00    +0.000 C 
BRANCH   8   9
ATOM      9  N   UNL     1      46.905   4.113   6.694  0.00  0.00    +0.000 NA
ATOM     10  H   UNL     1      47.574   4.779   7.077  0.00  0.00    +0.000 HD
ATOM     11  H   UNL     1      46.217   4.665   6.184  0.00  0.00    +0.000 HD
ENDBRANCH   8   9
ENDBRANCH   7   8
ENDBRANCH   1   7
BRANCH   5  12
ATOM     12  C   UNL     1      44.086   5.829  12.790  0.00  0.00    +0.000 C 
BRANCH  12  13
ATOM     13  N   UNL     1      45.436   6.325  13.012  0.00  0.00    +0.000 N 
ATOM     14  N   UNL     1      46.368   5.494  13.541  0.00  0.00    +0.000 NA
ATOM     15  C   UNL     1      47.477   6.245  13.540  0.00  0.00    +0.000 A 
ATOM     16  C   UNL     1      47.254   7.548  13.064  0.00  0.00    +0.000 A 
ATOM     17  N   UNL     1      48.096   8.596  12.895  0.00  0.00    +0.000 NA
ATOM     18  C   UNL     1      47.509   9.711  12.407  0.00  0.00    +0.000 A 
ATOM     19  C   UNL     1      46.158   9.855  12.120  0.00  0.00    +0.000 A 
ATOM     20  C   UNL     1      45.299   8.776  12.315  0.00  0.00    +0.000 A 
ATOM     21  C   UNL     1      45.894   7.600  12.773  0.00  0.00    +0.000 A 
ENDBRANCH  12  13
ENDBRANCH   5  12
TORSDOF 5
ENDMDL
MODEL 6
REMARK VINA RESULT:    -5.839      3.336      6.633
REMARK INTER + INTRA:          -7.948
REMARK INTER:                  -7.528
REMARK INTRA:                  -0.420
REMARK UNBOUND:                -0.573
REMARK  Name = 
REMARK  5 active torsions:
REMARK  status: ('A' for Active; 'I' for Inactive)
REMARK    1  A    between atoms: N_1  and  C_2
REMARK    2  A    between atoms: C_2  and  C_3
REMARK    3  A    between atoms: C_3  and  C_4
REMARK    4  A    between atoms: C_8  and  C_9
REMARK    5  A    between atoms: C_9  and  N_10
REMARK                            x       y       z     vdW  Elec       q    Type
REMARK                         _______ _______ _______ _____ _____    ______ ____
ROOT
ATOM      1  C   UNL     1      43.992   9.917  10.905  0.00  0.00    +0.000 A 
ATOM      2  C   UNL     1      44.860  11.005  11.066  0.00  0.00    +0.000 A 
ATOM      3  C   UNL     1      46.079  10.844  11.727  0.00  0.00    +0.000 A 
ATOM      4  C   UNL     1      46.423   9.605  12.271  0.00  0.00    +0.000 A 
ATOM      5  C   UNL     1      45.543   8.519  12.179  0.00  0.00    +0.000 A 
ATOM      6  C   UNL     1      44.342   8.679  11.465  0.00  0.00    +0.000 A 
ENDROOT
BRANCH   1   7
ATOM      7  C   UNL     1      42.698  10.078  10.139  0.00  0.00    +0.000 C 
BRANCH   7   8
ATOM      8  C   UNL     1      41.537  10.538  11.027  0.00  0.00    +0.000 C 
BRANCH   8   9
ATOM      9  N   UNL     1      40.660   9.416  11.375  0.00  0.00    +0.000 NA
ATOM     10  H   UNL     1      39.973   9.727  12.061  0.00  0.00    +0.000 HD
ATOM     11  H   UNL     1      41.204   8.685  11.830  0.00  0.00    +0.000 HD
ENDBRANCH   8   9
ENDBRANCH   7   8
ENDBRANCH   1   7
BRANCH   5  12
ATOM     12  C   UNL     1      45.861   7.204  12.853  0.00  0.00    +0.000 C 
BRANCH  12  13
ATOM     13  N   UNL     1      44.972   6.132  12.431  0.00  0.00    +0.000 N 
ATOM     14  N   UNL     1      44.014   5.691  13.284  0.00  0.00    +0.000 NA
ATOM     15  C   UNL     1      43.359   4.777  12.558  0.00  0.00    +0.000 A 
ATOM     16  C   UNL     1      43.912   4.599  11.278  0.00  0.00    +0.000 A 
ATOM     17  N   UNL     1      43.550   3.793  10.251  0.00  0.00    +0.000 NA
ATOM     18  C   UNL     1      44.336   3.896   9.157  0.00  0.00    +0.000 A 
ATOM     19  C   UNL     1      45.459   4.704   9.040  0.00  0.00    +0.000 A 
ATOM     20  C   UNL     1      45.833   5.514  10.110  0.00  0.00    +0.000 A 
ATOM     21  C   UNL     1      45.005   5.459  11.232  0.00  0.00    +0.000 A 
ENDBRANCH  12  13
ENDBRANCH   5  12
TORSDOF 5
ENDMDL
MODEL 7
REMARK VINA RESULT:    -5.465      2.241      3.392
REMARK INTER + INTRA:          -7.476
REMARK INTER:                  -6.974
REMARK INTRA:                  -0.502
REMARK UNBOUND:                -0.573
REMARK  Name = 
REMARK  5 active torsions:
REMARK  status: ('A' for Active; 'I' for Inactive)
REMARK    1  A    between atoms: N_1  and  C_2
REMARK    2  A    between atoms: C_2  and  C_3
REMARK    3  A    between atoms: C_3  and  C_4
REMARK    4  A    between atoms: C_8  and  C_9
REMARK    5  A    between atoms: C_9  and  N_10
REMARK                            x       y       z     vdW  Elec       q    Type
REMARK                         _______ _______ _______ _____ _____    ______ ____
ROOT
ATOM      1  C   UNL     1      44.440   4.226  10.370  0.00  0.00    +0.000 A 
ATOM      2  C   UNL     1      43.521   3.487  11.126  0.00  0.00    +0.000 A 
ATOM      3  C   UNL     1      43.488   3.610  12.515  0.00  0.00    +0.000 A 
ATOM      4  C   UNL     1      44.402   4.440  13.167  0.00  0.00    +0.000 A 
ATOM      5  C   UNL     1      45.372   5.139  12.439  0.00  0.00    +0.000 A 
ATOM      6  C   UNL     1      45.362   5.049  11.036  0.00  0.00    +0.000 A 
ENDROOT
BRANCH   1   7
ATOM      7  C   UNL     1      44.437   4.137   8.860  0.00  0.00    +0.000 C 
BRANCH   7   8
ATOM      8  C   UNL     1      45.795   4.486   8.243  0.00  0.00    +0.000 C 
BRANCH   8   9
ATOM      9  N   UNL     1      46.046   3.698   7.034  0.00  0.00    +0.000 NA
ATOM     10  H   UNL     1      45.198   3.671   6.469  0.00  0.00    +0.000 HD
ATOM     11  H   UNL     1      46.245   2.732   7.291  0.00  0.00    +0.000 HD
ENDBRANCH   8   9
ENDBRANCH   7   8
ENDBRANCH   1   7
BRANCH   5  12
ATOM     12  C   UNL     1      46.430   5.958  13.143  0.00  0.00    +0.000 C 
BRANCH  12  13
ATOM     13  N   UNL     1      46.415   7.356  12.736  0.00  0.00    +0.000 N 
ATOM     14  N   UNL     1      45.261   8.062  12.834  0.00  0.00    +0.000 NA
ATOM     15  C   UNL     1      45.626   9.291  12.450  0.00  0.00    +0.000 A 
ATOM     16  C   UNL     1      46.977   9.366  12.069  0.00  0.00    +0.000 A 
ATOM     17  N   UNL     1      47.728  10.407  11.635  0.00  0.00    +0.000 NA
ATOM     18  C   UNL     1      49.012  10.090  11.357  0.00  0.00    +0.000 A 
ATOM     19  C   UNL     1      49.570   8.822  11.443  0.00  0.00    +0.000 A 
ATOM     20  C   UNL     1      48.782   7.756  11.872  0.00  0.00    +0.000 A 
ATOM     21  C   UNL     1      47.466   8.071  12.211  0.00  0.00    +0.000 A 
ENDBRANCH  12  13
ENDBRANCH   5  12
TORSDOF 5
ENDMDL
MODEL 8
REMARK VINA RESULT:    -5.250      2.276      3.872
REMARK INTER + INTRA:          -7.204
REMARK INTER:                  -6.812
REMARK INTRA:                  -0.392
REMARK UNBOUND:                -0.573
REMARK  Name = 
REMARK  5 active torsions:
REMARK  status: ('A' for Active; 'I' for Inactive)
REMARK    1  A    between atoms: N_1  and  C_2
REMARK    2  A    between atoms: C_2  and  C_3
REMARK    3  A    between atoms: C_3  and  C_4
REMARK    4  A    between atoms: C_8  and  C_9
REMARK    5  A    between atoms: C_9  and  N_10
REMARK                            x       y       z     vdW  Elec       q    Type
REMARK                         _______ _______ _______ _____ _____    ______ ____
ROOT
ATOM      1  C   UNL     1      44.494   4.186  10.343  0.00  0.00    +0.000 A 
ATOM      2  C   UNL     1      43.513   5.093  10.764  0.00  0.00    +0.000 A 
ATOM      3  C   UNL     1      43.515   5.580  12.071  0.00  0.00    +0.000 A 
ATOM      4  C   UNL     1      44.473   5.134  12.984  0.00  0.00    +0.000 A 
ATOM      5  C   UNL     1      45.424   4.178  12.605  0.00  0.00    +0.000 A 
ATOM      6  C   UNL     1      45.444   3.734  11.272  0.00  0.00    +0.000 A 
ENDROOT
BRANCH   1   7
ATOM      7  C   UNL     1      44.525   3.702   8.911  0.00  0.00    +0.000 C 
BRANCH   7   8
ATOM      8  C   UNL     1      45.068   2.275   8.779  0.00  0.00    +0.000 C 
BRANCH   8   9
ATOM      9  N   UNL     1      46.227   2.231   7.883  0.00  0.00    +0.000 NA
ATOM     10  H   UNL     1      46.885   2.962   8.149  0.00  0.00    +0.000 HD
ATOM     11  H   UNL     1      45.932   2.447   6.932  0.00  0.00    +0.000 HD
ENDBRANCH   8   9
ENDBRANCH   7   8
ENDBRANCH   1   7
BRANCH   5  12
ATOM     12  C   UNL     1      46.398   3.613  13.614  0.00  0.00    +0.000 C 
BRANCH  12  13
ATOM     13  N   UNL     1      47.212   4.644  14.241  0.00  0.00    +0.000 N 
ATOM     14  N   UNL     1      47.808   5.582  13.463  0.00  0.00    +0.000 NA
ATOM     15  C   UNL     1      48.400   6.384  14.357  0.00  0.00    +0.000 A 
ATOM     16  C   UNL     1      48.228   5.947  15.681  0.00  0.00    +0.000 A 
ATOM     17  N   UNL     1      48.650   6.468  16.858  0.00  0.00    +0.000 NA
ATOM     18  C   UNL     1      48.287   5.755  17.947  0.00  0.00    +0.000 A 
ATOM     19  C   UNL     1      47.580   4.560  17.933  0.00  0.00    +0.000 A 
ATOM     20  C   UNL     1      47.168   4.024  16.715  0.00  0.00    +0.000 A 
ATOM     21  C   UNL     1      47.490   4.771  15.582  0.00  0.00    +0.000 A 
ENDBRANCH  12  13
ENDBRANCH   5  12
TORSDOF 5
ENDMDL
MODEL 9
REMARK VINA RESULT:    -5.070      3.721      5.478
REMARK INTER + INTRA:          -6.977
REMARK INTER:                  -6.422
REMARK INTRA:                  -0.555
REMARK UNBOUND:                -0.573
REMARK  Name = 
REMARK  5 active torsions:
REMARK  status: ('A' for Active; 'I' for Inactive)
REMARK    1  A    between atoms: N_1  and  C_2
REMARK    2  A    between atoms: C_2  and  C_3
REMARK    3  A    between atoms: C_3  and  C_4
REMARK    4  A    between atoms: C_8  and  C_9
REMARK    5  A    between atoms: C_9  and  N_10
REMARK                            x       y       z     vdW  Elec       q    Type
REMARK                         _______ _______ _______ _____ _____    ______ ____
ROOT
ATOM      1  C   UNL     1      44.473   5.568  12.573  0.00  0.00    +0.000 A 
ATOM      2  C   UNL     1      44.180   6.813  12.001  0.00  0.00    +0.000 A 
ATOM      3  C   UNL     1      45.201   7.729  11.744  0.00  0.00    +0.000 A 
ATOM      4  C   UNL     1      46.518   7.428  12.094  0.00  0.00    +0.000 A 
ATOM      5  C   UNL     1      46.826   6.217  12.725  0.00  0.00    +0.000 A 
ATOM      6  C   UNL     1      45.799   5.280  12.932  0.00  0.00    +0.000 A 
ENDROOT
BRANCH   1   7
ATOM      7  C   UNL     1      43.375   4.552  12.799  0.00  0.00    +0.000 C 
BRANCH   7   8
ATOM      8  C   UNL     1      43.371   3.439  11.746  0.00  0.00    +0.000 C 
BRANCH   8   9
ATOM      9  N   UNL     1      43.522   2.121  12.369  0.00  0.00    +0.000 NA
ATOM     10  H   UNL     1      42.908   2.061  13.181  0.00  0.00    +0.000 HD
ATOM     11  H   UNL     1      44.471   2.017  12.724  0.00  0.00    +0.000 HD
ENDBRANCH   8   9
ENDBRANCH   7   8
ENDBRANCH   1   7
BRANCH   5  12
ATOM     12  C   UNL     1      48.231   5.927  13.201  0.00  0.00    +0.000 C 
BRANCH  12  13
ATOM     13  N   UNL     1      48.433   6.287  14.597  0.00  0.00    +0.000 N 
ATOM     14  N   UNL     1      49.035   7.465  14.897  0.00  0.00    +0.000 NA
ATOM     15  C   UNL     1      48.990   7.496  16.234  0.00  0.00    +0.000 A 
ATOM     16  C   UNL     1      48.413   6.340  16.788  0.00  0.00    +0.000 A 
ATOM     17  N   UNL     1      48.175   5.986  18.074  0.00  0.00    +0.000 NA
ATOM     18  C   UNL     1      47.596   4.775  18.221  0.00  0.00    +0.000 A 
ATOM     19  C   UNL     1      47.282   3.897  17.192  0.00  0.00    +0.000 A 
ATOM     20  C   UNL     1      47.548   4.264  15.875  0.00  0.00    +0.000 A 
ATOM     21  C   UNL     1      48.102   5.532  15.698  0.00  0.00    +0.000 A 
ENDBRANCH  12  13
ENDBRANCH   5  12
TORSDOF 5
ENDMDL
