MODEL 1
REMARK VINA RESULT:    -7.063      0.000      0.000
REMARK INTER + INTRA:          -9.411
REMARK INTER:                  -8.714
REMARK INTRA:                  -0.697
REMARK UNBOUND:                -0.697
REMARK  Name = 
REMARK  5 active torsions:
REMARK  status: ('A' for Active; 'I' for Inactive)
REMARK    1  A    between atoms: C_1  and  O_2
REMARK    2  A    between atoms: O_2  and  C_3
REMARK    3  A    between atoms: N_6  and  C_7
REMARK    4  A    between atoms: C_7  and  C_8
REMARK    5  A    between atoms: C_18  and  C_19
REMARK                            x       y       z     vdW  Elec       q    Type
REMARK                         _______ _______ _______ _____ _____    ______ ____
ROOT
ATOM      1  C   UNL     1      46.457   1.757   8.127  0.00  0.00    +0.000 A 
ATOM      2  N   UNL     1      45.704   1.889   9.242  0.00  0.00    +0.000 NA
ATOM      3  C   UNL     1      45.109   3.072   9.455  0.00  0.00    +0.000 A 
ATOM      4  N   UNL     1      44.195   3.099  10.509  0.00  0.00    +0.000 N 
ATOM      5  N   UNL     1      45.264   4.128   8.650  0.00  0.00    +0.000 NA
ATOM      6  C   UNL     1      46.015   3.952   7.541  0.00  0.00    +0.000 A 
ATOM      7  C   UNL     1      46.633   2.768   7.203  0.00  0.00    +0.000 A 
ATOM      8  H   UNL     1      44.355   2.250  11.042  0.00  0.00    +0.000 HD
ENDROOT
BRANCH   7   9
ATOM      9  C   UNL     1      47.343   2.683   5.911  0.00  0.00    +0.000 C 
ATOM     10  N   UNL     1      48.658   2.315   5.899  0.00  0.00    +0.000 N 
ATOM     11  O   UNL     1      46.762   2.916   4.855  0.00  0.00    +0.000 OA
ATOM     12  H   UNL     1      49.163   2.077   6.746  0.00  0.00    +0.000 HD
ATOM     13  H   UNL     1      49.114   2.201   5.005  0.00  0.00    +0.000 HD
ENDBRANCH   7   9
BRANCH   4  14
ATOM     14  C   UNL     1      44.042   4.324  11.333  0.00  0.00    +0.000 C 
ATOM     15  C   UNL     1      42.701   4.464  12.048  0.00  0.00    +0.000 C 
ATOM     16  C   UNL     1      43.065   5.424  10.962  0.00  0.00    +0.000 C 
BRANCH  14  17
ATOM     17  C   UNL     1      45.306   4.684  12.138  0.00  0.00    +0.000 A 
ATOM     18  N   UNL     1      45.720   3.866  13.129  0.00  0.00    +0.000 NA
ATOM     19  C   UNL     1      46.768   4.271  13.870  0.00  0.00    +0.000 A 
ATOM     20  C   UNL     1      47.429   5.457  13.667  0.00  0.00    +0.000 A 
ATOM     21  C   UNL     1      46.952   6.225  12.636  0.00  0.00    +0.000 A 
ATOM     22  N   UNL     1      45.902   5.873  11.873  0.00  0.00    +0.000 NA
ENDBRANCH  14  17
ENDBRANCH   4  14
BRANCH   1  24
ATOM     23  C   UNL     1      46.147  -0.481   7.478  0.00  0.00    +0.000 C 
ATOM     24  O   UNL     1      47.060   0.533   7.898  0.00  0.00    +0.000 OA
ENDBRANCH   1  24
TORSDOF 4
ENDMDL
MODEL 2
REMARK VINA RESULT:    -6.186      3.505      6.692
REMARK INTER + INTRA:          -8.329
REMARK INTER:                  -7.967
REMARK INTRA:                  -0.362
REMARK UNBOUND:                -0.697
REMARK  Name = 
REMARK  5 active torsions:
REMARK  status: ('A' for Active; 'I' for Inactive)
REMARK    1  A    between atoms: C_1  and  O_2
REMARK    2  A    between atoms: O_2  and  C_3
REMARK    3  A    between atoms: N_6  and  C_7
REMARK    4  A    between atoms: C_7  and  C_8
REMARK    5  A    between atoms: C_18  and  C_19
REMARK                            x       y       z     vdW  Elec       q    Type
REMARK                         _______ _______ _______ _____ _____    ______ ____
ROOT
ATOM      1  C   UNL     1      48.196   7.274  12.451  0.00  0.00    +0.000 A 
ATOM      2  N   UNL     1      47.203   7.008  11.572  0.00  0.00    +0.000 NA
ATOM      3  C   UNL     1      46.276   6.110  11.933  0.00  0.00    +0.000 A 
ATOM      4  N   UNL     1      45.175   6.012  11.082  0.00  0.00    +0.000 N 
ATOM      5  N   UNL     1      46.315   5.438  13.089  0.00  0.00    +0.000 NA
ATOM      6  C   UNL     1      47.317   5.740  13.944  0.00  0.00    +0.000 A 
ATOM      7  C   UNL     1      48.294   6.678  13.692  0.00  0.00    +0.000 A 
ATOM      8  H   UNL     1      45.435   6.497  10.229  0.00  0.00    +0.000 HD
ENDROOT
BRANCH   7   9
ATOM      9  C   UNL     1      49.274   6.982  14.754  0.00  0.00    +0.000 C 
ATOM     10  N   UNL     1      50.525   7.399  14.402  0.00  0.00    +0.000 N 
ATOM     11  O   UNL     1      48.969   6.887  15.939  0.00  0.00    +0.000 OA
ATOM     12  H   UNL     1      50.804   7.528  13.436  0.00  0.00    +0.000 HD
ATOM     13  H   UNL     1      51.165   7.663  15.138  0.00  0.00    +0.000 HD
ENDBRANCH   7   9
BRANCH   4  14
ATOM     14  C   UNL     1      44.511   4.702  10.868  0.00  0.00    +0.000 C 
ATOM     15  C   UNL     1      42.997   4.700  11.063  0.00  0.00    +0.000 C 
ATOM     16  C   UNL     1      43.866   3.933  12.006  0.00  0.00    +0.000 C 
BRANCH  14  17
ATOM     17  C   UNL     1      45.062   3.925   9.656  0.00  0.00    +0.000 A 
ATOM     18  N   UNL     1      45.071   2.575   9.679  0.00  0.00    +0.000 NA
ATOM     19  C   UNL     1      45.652   1.941   8.644  0.00  0.00    +0.000 A 
ATOM     20  C   UNL     1      46.226   2.591   7.580  0.00  0.00    +0.000 A 
ATOM     21  C   UNL     1      46.167   3.961   7.630  0.00  0.00    +0.000 A 
ATOM     22  N   UNL     1      45.609   4.644   8.645  0.00  0.00    +0.000 NA
ENDBRANCH  14  17
ENDBRANCH   4  14
BRANCH   1  24
ATOM     23  C   UNL     1      48.587   9.472  11.715  0.00  0.00    +0.000 C 
ATOM     24  O   UNL     1      49.145   8.212  12.084  0.00  0.00    +0.000 OA
ENDBRANCH   1  24
TORSDOF 4
ENDMDL
MODEL 3
REMARK VINA RESULT:    -6.035      3.515      6.594
REMARK INTER + INTRA:          -8.143
REMARK INTER:                  -8.571
REMARK INTRA:                   0.428
REMARK UNBOUND:                -0.697
REMARK  Name = 
REMARK  5 active torsions:
REMARK  status: ('A' for Active; 'I' for Inactive)
REMARK    1  A    between atoms: C_1  and  O_2
REMARK    2  A    between atoms: O_2  and  C_3
REMARK    3  A    between atoms: N_6  and  C_7
REMARK    4  A    between atoms: C_7  and  C_8
REMARK    5  A    between atoms: C_18  and  C_19
REMARK                            x       y       z     vdW  Elec       q    Type
REMARK                         _______ _______ _______ _____ _____    ______ ____
ROOT
ATOM      1  C   UNL     1      47.290   4.745  15.053  0.00  0.00    +0.000 A 
ATOM      2  N   UNL     1      46.526   3.814  14.437  0.00  0.00    +0.000 NA
ATOM      3  C   UNL     1      46.173   4.044  13.164  0.00  0.00    +0.000 A 
ATOM      4  N   UNL     1      45.553   2.975  12.515  0.00  0.00    +0.000 N 
ATOM      5  N   UNL     1      46.496   5.159  12.501  0.00  0.00    +0.000 NA
ATOM      6  C   UNL     1      47.268   6.059  13.148  0.00  0.00    +0.000 A 
ATOM      7  C   UNL     1      47.725   5.902  14.438  0.00  0.00    +0.000 A 
ATOM      8  H   UNL     1      45.295   2.316  13.242  0.00  0.00    +0.000 HD
ENDROOT
BRANCH   7   9
ATOM      9  C   UNL     1      48.644   6.917  14.992  0.00  0.00    +0.000 C 
ATOM     10  N   UNL     1      48.341   7.505  16.187  0.00  0.00    +0.000 N 
ATOM     11  O   UNL     1      49.680   7.216  14.406  0.00  0.00    +0.000 OA
ATOM     12  H   UNL     1      47.515   7.257  16.720  0.00  0.00    +0.000 HD
ATOM     13  H   UNL     1      49.008   8.151  16.584  0.00  0.00    +0.000 HD
ENDBRANCH   7   9
BRANCH   4  14
ATOM     14  C   UNL     1      44.493   3.227  11.508  0.00  0.00    +0.000 C 
ATOM     15  C   UNL     1      43.447   4.265  11.908  0.00  0.00    +0.000 C 
ATOM     16  C   UNL     1      43.048   2.834  11.748  0.00  0.00    +0.000 C 
BRANCH  14  17
ATOM     17  C   UNL     1      45.022   3.288  10.061  0.00  0.00    +0.000 A 
ATOM     18  N   UNL     1      45.302   2.142   9.406  0.00  0.00    +0.000 NA
ATOM     19  C   UNL     1      45.855   2.246   8.184  0.00  0.00    +0.000 A 
ATOM     20  C   UNL     1      46.142   3.444   7.578  0.00  0.00    +0.000 A 
ATOM     21  C   UNL     1      45.819   4.560   8.307  0.00  0.00    +0.000 A 
ATOM     22  N   UNL     1      45.276   4.513   9.537  0.00  0.00    +0.000 NA
ENDBRANCH  14  17
ENDBRANCH   4  14
BRANCH   1  24
ATOM     23  C   UNL     1      48.058   3.152  16.602  0.00  0.00    +0.000 C 
ATOM     24  O   UNL     1      47.668   4.503  16.363  0.00  0.00    +0.000 OA
ENDBRANCH   1  24
TORSDOF 4
ENDMDL
MODEL 4
REMARK VINA RESULT:    -5.509      3.528      6.803
REMARK INTER + INTRA:          -7.494
REMARK INTER:                  -7.281
REMARK INTRA:                  -0.213
REMARK UNBOUND:                -0.697
REMARK  Name = 
REMARK  5 active torsions:
REMARK  status: ('A' for Active; 'I' for Inactive)
REMARK    1  A    between atoms: C_1  and  O_2
REMARK    2  A    between atoms: O_2  and  C_3
REMARK    3  A    between atoms: N_6  and  C_7
REMARK    4  A    between atoms: C_7  and  C_8
REMARK    5  A    between atoms: C_18  and  C_19
REMARK                            x       y       z     vdW  Elec       q    Type
REMARK                         _______ _______ _______ _____ _____    ______ ____
ROOT
ATOM      1  C   UNL     1      46.094   7.931  12.210  0.00  0.00    +0.000 A 
ATOM      2  N   UNL     1      45.203   7.101  11.622  0.00  0.00    +0.000 NA
ATOM      3  C   UNL     1      45.220   5.811  11.986  0.00  0.00    +0.000 A 
ATOM      4  N   UNL     1      44.165   5.039  11.498  0.00  0.00    +0.000 N 
ATOM      5  N   UNL     1      46.098   5.305  12.858  0.00  0.00    +0.000 NA
ATOM      6  C   UNL     1      46.964   6.168  13.432  0.00  0.00    +0.000 A 
ATOM      7  C   UNL     1      47.002   7.519  13.165  0.00  0.00    +0.000 A 
ATOM      8  H   UNL     1      43.727   5.591  10.767  0.00  0.00    +0.000 HD
ENDROOT
BRANCH   7   9
ATOM      9  C   UNL     1      47.933   8.367  13.936  0.00  0.00    +0.000 C 
ATOM     10  N   UNL     1      47.429   9.236  14.861  0.00  0.00    +0.000 N 
ATOM     11  O   UNL     1      49.147   8.283  13.771  0.00  0.00    +0.000 OA
ATOM     12  H   UNL     1      46.436   9.308  15.054  0.00  0.00    +0.000 HD
ATOM     13  H   UNL     1      48.080   9.765  15.424  0.00  0.00    +0.000 HD
ENDBRANCH   7   9
BRANCH   4  14
ATOM     14  C   UNL     1      44.383   3.614  11.147  0.00  0.00    +0.000 C 
ATOM     15  C   UNL     1      43.205   2.685  11.434  0.00  0.00    +0.000 C 
ATOM     16  C   UNL     1      44.475   2.531  12.206  0.00  0.00    +0.000 C 
BRANCH  14  17
ATOM     17  C   UNL     1      45.120   3.417   9.808  0.00  0.00    +0.000 A 
ATOM     18  N   UNL     1      45.332   4.479   9.002  0.00  0.00    +0.000 NA
ATOM     19  C   UNL     1      45.890   4.243   7.801  0.00  0.00    +0.000 A 
ATOM     20  C   UNL     1      46.251   2.994   7.362  0.00  0.00    +0.000 A 
ATOM     21  C   UNL     1      46.010   1.971   8.244  0.00  0.00    +0.000 A 
ATOM     22  N   UNL     1      45.445   2.149   9.451  0.00  0.00    +0.000 NA
ENDBRANCH  14  17
ENDBRANCH   4  14
BRANCH   1  24
ATOM     23  C   UNL     1      44.776   9.862  11.959  0.00  0.00    +0.000 C 
ATOM     24  O   UNL     1      46.068   9.266  11.846  0.00  0.00    +0.000 OA
ENDBRANCH   1  24
TORSDOF 4
ENDMDL
MODEL 5
REMARK VINA RESULT:    -5.482      4.002      6.424
REMARK INTER + INTRA:          -7.460
REMARK INTER:                  -7.449
REMARK INTRA:                  -0.011
REMARK UNBOUND:                -0.697
REMARK  Name = 
REMARK  5 active torsions:
REMARK  status: ('A' for Active; 'I' for Inactive)
REMARK    1  A    between atoms: C_1  and  O_2
REMARK    2  A    between atoms: O_2  and  C_3
REMARK    3  A    between atoms: N_6  and  C_7
REMARK    4  A    between atoms: C_7  and  C_8
REMARK    5  A    between atoms: C_18  and  C_19
REMARK                            x       y       z     vdW  Elec       q    Type
REMARK                         _______ _______ _______ _____ _____    ______ ____
ROOT
ATOM      1  C   UNL     1      45.748   4.224  12.875  0.00  0.00    +0.000 A 
ATOM      2  N   UNL     1      46.153   3.992  14.144  0.00  0.00    +0.000 NA
ATOM      3  C   UNL     1      46.893   4.935  14.743  0.00  0.00    +0.000 A 
ATOM      4  N   UNL     1      47.122   4.739  16.105  0.00  0.00    +0.000 N 
ATOM      5  N   UNL     1      47.284   6.059  14.134  0.00  0.00    +0.000 NA
ATOM      6  C   UNL     1      46.851   6.259  12.870  0.00  0.00    +0.000 A 
ATOM      7  C   UNL     1      46.049   5.377  12.178  0.00  0.00    +0.000 A 
ATOM      8  H   UNL     1      46.860   3.778  16.299  0.00  0.00    +0.000 HD
ENDROOT
BRANCH   7   9
ATOM      9  C   UNL     1      45.565   5.763  10.837  0.00  0.00    +0.000 C 
ATOM     10  N   UNL     1      44.230   5.977  10.650  0.00  0.00    +0.000 N 
ATOM     11  O   UNL     1      46.347   5.913   9.904  0.00  0.00    +0.000 OA
ATOM     12  H   UNL     1      43.557   5.901  11.405  0.00  0.00    +0.000 HD
ATOM     13  H   UNL     1      43.920   6.301   9.745  0.00  0.00    +0.000 HD
ENDBRANCH   7   9
BRANCH   4  14
ATOM     14  C   UNL     1      48.407   5.161  16.714  0.00  0.00    +0.000 C 
ATOM     15  C   UNL     1      48.286   6.139  17.881  0.00  0.00    +0.000 C 
ATOM     16  C   UNL     1      48.920   6.585  16.603  0.00  0.00    +0.000 C 
BRANCH  14  17
ATOM     17  C   UNL     1      49.421   4.010  16.868  0.00  0.00    +0.000 A 
ATOM     18  N   UNL     1      49.036   2.743  16.602  0.00  0.00    +0.000 NA
ATOM     19  C   UNL     1      49.924   1.762  16.846  0.00  0.00    +0.000 A 
ATOM     20  C   UNL     1      51.184   1.982  17.342  0.00  0.00    +0.000 A 
ATOM     21  C   UNL     1      51.499   3.296  17.577  0.00  0.00    +0.000 A 
ATOM     22  N   UNL     1      50.647   4.314  17.362  0.00  0.00    +0.000 NA
ENDBRANCH  14  17
ENDBRANCH   4  14
BRANCH   1  24
ATOM     23  C   UNL     1      43.620   3.236  12.718  0.00  0.00    +0.000 C 
ATOM     24  O   UNL     1      44.972   3.257  12.260  0.00  0.00    +0.000 OA
ENDBRANCH   1  24
TORSDOF 4
ENDMDL
MODEL 6
REMARK VINA RESULT:    -5.432      3.823      6.620
REMARK INTER + INTRA:          -7.399
REMARK INTER:                  -7.854
REMARK INTRA:                   0.455
REMARK UNBOUND:                -0.697
REMARK  Name = 
REMARK  5 active torsions:
REMARK  status: ('A' for Active; 'I' for Inactive)
REMARK    1  A    between atoms: C_1  and  O_2
REMARK    2  A    between atoms: O_2  and  C_3
REMARK    3  A    between atoms: N_6  and  C_7
REMARK    4  A    between atoms: C_7  and  C_8
REMARK    5  A    between atoms: C_18  and  C_19
REMARK                            x       y       z     vdW  Elec       q    Type
REMARK                         _______ _______ _______ _____ _____    ______ ____
ROOT
ATOM      1  C   UNL     1      48.414   6.119  14.584  0.00  0.00    +0.000 A 
ATOM      2  N   UNL     1      47.456   5.178  14.421  0.00  0.00    +0.000 NA
ATOM      3  C   UNL     1      46.758   5.192  13.277  0.00  0.00    +0.000 A 
ATOM      4  N   UNL     1      45.922   4.095  13.074  0.00  0.00    +0.000 N 
ATOM      5  N   UNL     1      46.931   6.113  12.322  0.00  0.00    +0.000 NA
ATOM      6  C   UNL     1      47.904   7.029  12.518  0.00  0.00    +0.000 A 
ATOM      7  C   UNL     1      48.710   7.077  13.635  0.00  0.00    +0.000 A 
ATOM      8  H   UNL     1      45.853   3.623  13.971  0.00  0.00    +0.000 HD
ENDROOT
BRANCH   7   9
ATOM      9  C   UNL     1      49.802   8.070  13.679  0.00  0.00    +0.000 C 
ATOM     10  N   UNL     1      51.051   7.667  14.052  0.00  0.00    +0.000 N 
ATOM     11  O   UNL     1      49.603   9.239  13.362  0.00  0.00    +0.000 OA
ATOM     12  H   UNL     1      51.264   6.703  14.283  0.00  0.00    +0.000 HD
ATOM     13  H   UNL     1      51.801   8.342  14.018  0.00  0.00    +0.000 HD
ENDBRANCH   7   9
BRANCH   4  14
ATOM     14  C   UNL     1      44.628   4.263  12.367  0.00  0.00    +0.000 C 
ATOM     15  C   UNL     1      43.834   5.509  12.750  0.00  0.00    +0.000 C 
ATOM     16  C   UNL     1      43.298   4.156  13.090  0.00  0.00    +0.000 C 
BRANCH  14  17
ATOM     17  C   UNL     1      44.697   3.909  10.868  0.00  0.00    +0.000 A 
ATOM     18  N   UNL     1      44.307   2.683  10.455  0.00  0.00    +0.000 NA
ATOM     19  C   UNL     1      44.478   2.385   9.154  0.00  0.00    +0.000 A 
ATOM     20  C   UNL     1      45.018   3.253   8.240  0.00  0.00    +0.000 A 
ATOM     21  C   UNL     1      45.380   4.479   8.738  0.00  0.00    +0.000 A 
ATOM     22  N   UNL     1      45.242   4.825  10.030  0.00  0.00    +0.000 NA
ENDBRANCH  14  17
ENDBRANCH   4  14
BRANCH   1  24
ATOM     23  C   UNL     1      48.530   5.335  16.798  0.00  0.00    +0.000 C 
ATOM     24  O   UNL     1      49.145   6.097  15.759  0.00  0.00    +0.000 OA
ENDBRANCH   1  24
TORSDOF 4
ENDMDL
MODEL 7
REMARK VINA RESULT:    -5.212      3.989      6.128
REMARK INTER + INTRA:          -7.128
REMARK INTER:                  -7.138
REMARK INTRA:                   0.011
REMARK UNBOUND:                -0.697
REMARK  Name = 
REMARK  5 active torsions:
REMARK  status: ('A' for Active; 'I' for Inactive)
REMARK    1  A    between atoms: C_1  and  O_2
REMARK    2  A    between atoms: O_2  and  C_3
REMARK    3  A    between atoms: N_6  and  C_7
REMARK    4  A    between atoms: C_7  and  C_8
REMARK    5  A    between atoms: C_18  and  C_19
REMARK                            x       y       z     vdW  Elec       q    Type
REMARK                         _______ _______ _______ _____ _____    ______ ____
ROOT
ATOM      1  C   UNL     1      45.295   4.937  12.848  0.00  0.00    +0.000 A 
ATOM      2  N   UNL     1      45.582   6.224  13.151  0.00  0.00    +0.000 NA
ATOM      3  C   UNL     1      44.990   7.181  12.423  0.00  0.00    +0.000 A 
ATOM      4  N   UNL     1      45.165   8.483  12.892  0.00  0.00    +0.000 N 
ATOM      5  N   UNL     1      44.176   6.923  11.394  0.00  0.00    +0.000 NA
ATOM      6  C   UNL     1      43.905   5.626  11.131  0.00  0.00    +0.000 A 
ATOM      7  C   UNL     1      44.423   4.567  11.844  0.00  0.00    +0.000 A 
ATOM      8  H   UNL     1      45.915   8.437  13.575  0.00  0.00    +0.000 HD
ENDROOT
BRANCH   7   9
ATOM      9  C   UNL     1      43.969   3.201  11.514  0.00  0.00    +0.000 C 
ATOM     10  N   UNL     1      43.758   2.309  12.526  0.00  0.00    +0.000 N 
ATOM     11  O   UNL     1      43.758   2.871  10.351  0.00  0.00    +0.000 OA
ATOM     12  H   UNL     1      43.882   2.555  13.502  0.00  0.00    +0.000 HD
ATOM     13  H   UNL     1      43.388   1.399  12.291  0.00  0.00    +0.000 HD
ENDBRANCH   7   9
BRANCH   4  14
ATOM     14  C   UNL     1      45.271   9.613  11.937  0.00  0.00    +0.000 C 
ATOM     15  C   UNL     1      44.121  10.615  11.984  0.00  0.00    +0.000 C 
ATOM     16  C   UNL     1      44.316   9.768  10.768  0.00  0.00    +0.000 C 
BRANCH  14  17
ATOM     17  C   UNL     1      46.697  10.188  11.821  0.00  0.00    +0.000 A 
ATOM     18  N   UNL     1      46.972  11.097  10.862  0.00  0.00    +0.000 NA
ATOM     19  C   UNL     1      48.251  11.495  10.735  0.00  0.00    +0.000 A 
ATOM     20  C   UNL     1      49.274  11.032  11.523  0.00  0.00    +0.000 A 
ATOM     21  C   UNL     1      48.909  10.118  12.478  0.00  0.00    +0.000 A 
ATOM     22  N   UNL     1      47.649   9.677  12.641  0.00  0.00    +0.000 NA
ENDBRANCH  14  17
ENDBRANCH   4  14
BRANCH   1  24
ATOM     23  C   UNL     1      46.792   4.454  14.596  0.00  0.00    +0.000 C 
ATOM     24  O   UNL     1      45.895   3.948  13.608  0.00  0.00    +0.000 OA
ENDBRANCH   1  24
TORSDOF 4
ENDMDL
MODEL 8
REMARK VINA RESULT:    -5.005      4.847      7.688
REMARK INTER + INTRA:          -6.872
REMARK INTER:                  -6.130
REMARK INTRA:                  -0.742
REMARK UNBOUND:                -0.697
REMARK  Name = 
REMARK  5 active torsions:
REMARK  status: ('A' for Active; 'I' for Inactive)
REMARK    1  A    between atoms: C_1  and  O_2
REMARK    2  A    between atoms: O_2  and  C_3
REMARK    3  A    between atoms: N_6  and  C_7
REMARK    4  A    between atoms: C_7  and  C_8
REMARK    5  A    between atoms: C_18  and  C_19
REMARK                            x       y       z     vdW  Elec       q    Type
REMARK                         _______ _______ _______ _____ _____    ______ ____
ROOT
ATOM      1  C   UNL     1      46.494   6.363  12.924  0.00  0.00    +0.000 A 
ATOM      2  N   UNL     1      47.592   7.019  13.365  0.00  0.00    +0.000 NA
ATOM      3  C   UNL     1      48.278   6.471  14.378  0.00  0.00    +0.000 A 
ATOM      4  N   UNL     1      49.500   7.078  14.669  0.00  0.00    +0.000 N 
ATOM      5  N   UNL     1      47.903   5.346  14.996  0.00  0.00    +0.000 NA
ATOM      6  C   UNL     1      46.808   4.716  14.519  0.00  0.00    +0.000 A 
ATOM      7  C   UNL     1      46.057   5.166  13.455  0.00  0.00    +0.000 A 
ATOM      8  H   UNL     1      49.495   7.969  14.181  0.00  0.00    +0.000 HD
ENDROOT
BRANCH   7   9
ATOM      9  C   UNL     1      44.941   4.329  12.971  0.00  0.00    +0.000 C 
ATOM     10  N   UNL     1      43.692   4.874  12.883  0.00  0.00    +0.000 N 
ATOM     11  O   UNL     1      45.128   3.165  12.629  0.00  0.00    +0.000 OA
ATOM     12  H   UNL     1      43.504   5.842  13.119  0.00  0.00    +0.000 HD
ATOM     13  H   UNL     1      42.951   4.310  12.493  0.00  0.00    +0.000 HD
ENDBRANCH   7   9
BRANCH   4  14
ATOM     14  C   UNL     1      49.985   7.147  16.069  0.00  0.00    +0.000 C 
ATOM     15  C   UNL     1      51.475   7.442  16.229  0.00  0.00    +0.000 C 
ATOM     16  C   UNL     1      50.935   6.111  16.642  0.00  0.00    +0.000 C 
BRANCH  14  17
ATOM     17  C   UNL     1      49.019   7.884  17.018  0.00  0.00    +0.000 A 
ATOM     18  N   UNL     1      48.689   9.169  16.765  0.00  0.00    +0.000 NA
ATOM     19  C   UNL     1      47.924   9.801  17.674  0.00  0.00    +0.000 A 
ATOM     20  C   UNL     1      47.468   9.212  18.827  0.00  0.00    +0.000 A 
ATOM     21  C   UNL     1      47.841   7.905  19.003  0.00  0.00    +0.000 A 
ATOM     22  N   UNL     1      48.613   7.229  18.134  0.00  0.00    +0.000 NA
ENDBRANCH  14  17
ENDBRANCH   4  14
BRANCH   1  24
ATOM     23  C   UNL     1      45.258   8.210  12.158  0.00  0.00    +0.000 C 
ATOM     24  O   UNL     1      45.793   6.920  11.868  0.00  0.00    +0.000 OA
ENDBRANCH   1  24
TORSDOF 4
ENDMDL
MODEL 9
REMARK VINA RESULT:    -4.810      4.302      6.884
REMARK INTER + INTRA:          -6.631
REMARK INTER:                  -6.652
REMARK INTRA:                   0.021
REMARK UNBOUND:                -0.697
REMARK  Name = 
REMARK  5 active torsions:
REMARK  status: ('A' for Active; 'I' for Inactive)
REMARK    1  A    between atoms: C_1  and  O_2
REMARK    2  A    between atoms: O_2  and  C_3
REMARK    3  A    between atoms: N_6  and  C_7
REMARK    4  A    between atoms: C_7  and  C_8
REMARK    5  A    between atoms: C_18  and  C_19
REMARK                            x       y       z     vdW  Elec       q    Type
REMARK                         _______ _______ _______ _____ _____    ______ ____
ROOT
ATOM      1  C   UNL     1      46.305   6.267  12.602  0.00  0.00    +0.000 A 
ATOM      2  N   UNL     1      47.135   6.320  13.668  0.00  0.00    +0.000 NA
ATOM      3  C   UNL     1      47.189   5.247  14.469  0.00  0.00    +0.000 A 
ATOM      4  N   UNL     1      48.193   5.274  15.437  0.00  0.00    +0.000 N 
ATOM      5  N   UNL     1      46.434   4.158  14.291  0.00  0.00    +0.000 NA
ATOM      6  C   UNL     1      45.625   4.139  13.209  0.00  0.00    +0.000 A 
ATOM      7  C   UNL     1      45.527   5.168  12.298  0.00  0.00    +0.000 A 
ATOM      8  H   UNL     1      48.528   6.232  15.469  0.00  0.00    +0.000 HD
ENDROOT
BRANCH   7   9
ATOM      9  C   UNL     1      44.678   4.977  11.104  0.00  0.00    +0.000 C 
ATOM     10  N   UNL     1      45.122   5.428   9.895  0.00  0.00    +0.000 N 
ATOM     11  O   UNL     1      43.597   4.402  11.185  0.00  0.00    +0.000 OA
ATOM     12  H   UNL     1      46.026   5.873   9.780  0.00  0.00    +0.000 HD
ATOM     13  H   UNL     1      44.560   5.237   9.078  0.00  0.00    +0.000 HD
ENDBRANCH   7   9
BRANCH   4  14
ATOM     14  C   UNL     1      47.965   4.659  16.768  0.00  0.00    +0.000 C 
ATOM     15  C   UNL     1      48.665   3.321  16.995  0.00  0.00    +0.000 C 
ATOM     16  C   UNL     1      47.172   3.375  16.933  0.00  0.00    +0.000 C 
BRANCH  14  17
ATOM     17  C   UNL     1      47.999   5.673  17.928  0.00  0.00    +0.000 A 
ATOM     18  N   UNL     1      48.937   6.644  17.936  0.00  0.00    +0.000 NA
ATOM     19  C   UNL     1      48.991   7.444  19.017  0.00  0.00    +0.000 A 
ATOM     20  C   UNL     1      48.149   7.324  20.094  0.00  0.00    +0.000 A 
ATOM     21  C   UNL     1      47.220   6.319  20.003  0.00  0.00    +0.000 A 
ATOM     22  N   UNL     1      47.129   5.485  18.952  0.00  0.00    +0.000 NA
ENDBRANCH  14  17
ENDBRANCH   4  14
BRANCH   1  24
ATOM     23  C   UNL     1      45.612   8.499  12.349  0.00  0.00    +0.000 C 
ATOM     24  O   UNL     1      46.259   7.369  11.766  0.00  0.00    +0.000 OA
ENDBRANCH   1  24
TORSDOF 4
ENDMDL
