MODEL 1
REMARK VINA RESULT:    -8.632      0.000      0.000
REMARK INTER + INTRA:         -11.300
REMARK INTER:                 -11.156
REMARK INTRA:                  -0.145
REMARK UNBOUND:                -0.145
REMARK  Name = 
REMARK  6 active torsions:
REMARK  status: ('A' for Active; 'I' for Inactive)
REMARK    1  A    between atoms: C_1  and  C_2
REMARK    2  A    between atoms: C_2  and  N_3
REMARK    3  A    between atoms: C_2  and  C_16
REMARK    4  A    between atoms: C_4  and  C_6
REMARK    5  A    between atoms: C_19  and  O_20
REMARK    6  A    between atoms: O_20  and  C_21
REMARK                            x       y       z     vdW  Elec       q    Type
REMARK                         _______ _______ _______ _____ _____    ______ ____
ROOT
ATOM      1  C   UNL     1      42.969   4.805  13.436  0.00  0.00    +0.000 C 
ATOM      2  C   UNL     1      44.347   4.190  13.183  0.00  0.00    +0.000 C 
ENDROOT
BRANCH   2   3
ATOM      3  C   UNL     1      44.778   4.202  11.727  0.00  0.00    +0.000 A 
ATOM      4  C   UNL     1      45.385   5.354  11.201  0.00  0.00    +0.000 A 
ATOM      5  C   UNL     1      45.700   5.442   9.842  0.00  0.00    +0.000 A 
ATOM      6  C   UNL     1      45.435   4.368   8.992  0.00  0.00    +0.000 A 
ATOM      7  C   UNL     1      44.835   3.218   9.504  0.00  0.00    +0.000 A 
ATOM      8  C   UNL     1      44.510   3.134  10.859  0.00  0.00    +0.000 A 
BRANCH   6   9
ATOM      9  O   UNL     1      45.620   4.385   7.629  0.00  0.00    +0.000 OA
BRANCH   9  10
ATOM     10  C   UNL     1      46.411   3.406   7.049  0.00  0.00    +0.000 A 
ATOM     11  C   UNL     1      46.739   3.593   5.714  0.00  0.00    +0.000 A 
ATOM     12  C   UNL     1      47.524   2.629   5.089  0.00  0.00    +0.000 A 
ATOM     13  C   UNL     1      47.941   1.518   5.815  0.00  0.00    +0.000 A 
ATOM     14  C   UNL     1      47.542   1.405   7.136  0.00  0.00    +0.000 A 
ATOM     15  N   UNL     1      46.774   2.319   7.766  0.00  0.00    +0.000 NA
ENDBRANCH   9  10
ENDBRANCH   6   9
ENDBRANCH   2   3
BRANCH   2  16
ATOM     16  N   UNL     1      45.357   4.875  13.969  0.00  0.00    +0.000 N 
ATOM     17  C   UNL     1      46.556   4.282  14.286  0.00  0.00    +0.000 C 
ATOM     18  O   UNL     1      46.858   3.155  13.913  0.00  0.00    +0.000 OA
ATOM     19  H   UNL     1      45.107   5.758  14.389  0.00  0.00    +0.000 HD
BRANCH  17  20
ATOM     20  C   UNL     1      47.482   5.119  15.051  0.00  0.00    +0.000 A 
ATOM     21  C   UNL     1      48.119   6.240  14.542  0.00  0.00    +0.000 A 
ATOM     22  S   UNL     1      49.288   6.888  15.611  0.00  0.00    +0.000 S 
ATOM     23  C   UNL     1      48.974   5.686  16.777  0.00  0.00    +0.000 A 
ATOM     24  N   UNL     1      49.692   5.609  17.928  0.00  0.00    +0.000 NA
ATOM     25  C   UNL     1      49.354   4.621  18.694  0.00  0.00    +0.000 A 
ATOM     26  N   UNL     1      48.342   3.733  18.430  0.00  0.00    +0.000 N 
ATOM     27  C   UNL     1      47.504   3.859  17.346  0.00  0.00    +0.000 A 
ATOM     28  O   UNL     1      46.450   3.235  17.285  0.00  0.00    +0.000 OA
ATOM     29  C   UNL     1      47.938   4.858  16.388  0.00  0.00    +0.000 A 
ATOM     30  H   UNL     1      48.068   3.046  19.116  0.00  0.00    +0.000 HD
ENDBRANCH  17  20
ENDBRANCH   2  16
TORSDOF 5
ENDMDL
MODEL 2
REMARK VINA RESULT:    -8.319      1.746      2.386
REMARK INTER + INTRA:         -10.896
REMARK INTER:                 -10.952
REMARK INTRA:                   0.056
REMARK UNBOUND:                -0.145
REMARK  Name = 
REMARK  6 active torsions:
REMARK  status: ('A' for Active; 'I' for Inactive)
REMARK    1  A    between atoms: C_1  and  C_2
REMARK    2  A    between atoms: C_2  and  N_3
REMARK    3  A    between atoms: C_2  and  C_16
REMARK    4  A    between atoms: C_4  and  C_6
REMARK    5  A    between atoms: C_19  and  O_20
REMARK    6  A    between atoms: O_20  and  C_21
REMARK                            x       y       z     vdW  Elec       q    Type
REMARK                         _______ _______ _______ _____ _____    ______ ____
ROOT
ATOM      1  C   UNL     1      47.087   8.722  12.060  0.00  0.00    +0.000 C 
ATOM      2  C   UNL     1      46.237   7.660  12.760  0.00  0.00    +0.000 C 
ENDROOT
BRANCH   2   3
ATOM      3  C   UNL     1      45.937   6.440  11.907  0.00  0.00    +0.000 A 
ATOM      4  C   UNL     1      46.179   6.493  10.525  0.00  0.00    +0.000 A 
ATOM      5  C   UNL     1      45.819   5.430   9.692  0.00  0.00    +0.000 A 
ATOM      6  C   UNL     1      45.231   4.286  10.233  0.00  0.00    +0.000 A 
ATOM      7  C   UNL     1      44.987   4.221  11.604  0.00  0.00    +0.000 A 
ATOM      8  C   UNL     1      45.337   5.287  12.435  0.00  0.00    +0.000 A 
BRANCH   6   9
ATOM      9  O   UNL     1      44.756   3.226   9.495  0.00  0.00    +0.000 OA
BRANCH   9  10
ATOM     10  C   UNL     1      45.561   2.689   8.502  0.00  0.00    +0.000 A 
ATOM     11  C   UNL     1      45.830   3.511   7.418  0.00  0.00    +0.000 A 
ATOM     12  C   UNL     1      46.626   3.008   6.394  0.00  0.00    +0.000 A 
ATOM     13  C   UNL     1      47.112   1.708   6.488  0.00  0.00    +0.000 A 
ATOM     14  C   UNL     1      46.770   0.954   7.598  0.00  0.00    +0.000 A 
ATOM     15  N   UNL     1      45.993   1.412   8.602  0.00  0.00    +0.000 NA
ENDBRANCH   9  10
ENDBRANCH   6   9
ENDBRANCH   2   3
BRANCH   2  16
ATOM     16  N   UNL     1      46.886   7.218  13.982  0.00  0.00    +0.000 N 
ATOM     17  C   UNL     1      48.124   6.623  13.973  0.00  0.00    +0.000 C 
ATOM     18  O   UNL     1      48.768   6.446  12.945  0.00  0.00    +0.000 OA
ATOM     19  H   UNL     1      46.347   7.243  14.835  0.00  0.00    +0.000 HD
BRANCH  17  20
ATOM     20  C   UNL     1      48.656   6.271  15.290  0.00  0.00    +0.000 A 
ATOM     21  C   UNL     1      49.649   6.984  15.945  0.00  0.00    +0.000 A 
ATOM     22  S   UNL     1      50.195   6.214  17.371  0.00  0.00    +0.000 S 
ATOM     23  C   UNL     1      49.124   4.909  17.148  0.00  0.00    +0.000 A 
ATOM     24  N   UNL     1      49.123   3.838  17.986  0.00  0.00    +0.000 NA
ATOM     25  C   UNL     1      48.275   2.917  17.663  0.00  0.00    +0.000 A 
ATOM     26  N   UNL     1      47.404   2.987  16.604  0.00  0.00    +0.000 N 
ATOM     27  C   UNL     1      47.277   4.108  15.816  0.00  0.00    +0.000 A 
ATOM     28  O   UNL     1      46.314   4.253  15.072  0.00  0.00    +0.000 OA
ATOM     29  C   UNL     1      48.308   5.102  16.050  0.00  0.00    +0.000 A 
ATOM     30  H   UNL     1      46.702   2.276  16.466  0.00  0.00    +0.000 HD
ENDBRANCH  17  20
ENDBRANCH   2  16
TORSDOF 5
ENDMDL
MODEL 3
REMARK VINA RESULT:    -8.101      2.295      3.691
REMARK INTER + INTRA:         -10.613
REMARK INTER:                  -9.323
REMARK INTRA:                  -1.290
REMARK UNBOUND:                -0.145
REMARK  Name = 
REMARK  6 active torsions:
REMARK  status: ('A' for Active; 'I' for Inactive)
REMARK    1  A    between atoms: C_1  and  C_2
REMARK    2  A    between atoms: C_2  and  N_3
REMARK    3  A    between atoms: C_2  and  C_16
REMARK    4  A    between atoms: C_4  and  C_6
REMARK    5  A    between atoms: C_19  and  O_20
REMARK    6  A    between atoms: O_20  and  C_21
REMARK                            x       y       z     vdW  Elec       q    Type
REMARK                         _______ _______ _______ _____ _____    ______ ____
ROOT
ATOM      1  C   UNL     1      48.733   8.816  13.100  0.00  0.00    +0.000 C 
ATOM      2  C   UNL     1      47.859   7.900  13.958  0.00  0.00    +0.000 C 
ENDROOT
BRANCH   2   3
ATOM      3  C   UNL     1      46.864   7.068  13.167  0.00  0.00    +0.000 A 
ATOM      4  C   UNL     1      46.924   5.667  13.247  0.00  0.00    +0.000 A 
ATOM      5  C   UNL     1      46.095   4.868  12.456  0.00  0.00    +0.000 A 
ATOM      6  C   UNL     1      45.175   5.458  11.588  0.00  0.00    +0.000 A 
ATOM      7  C   UNL     1      45.105   6.847  11.502  0.00  0.00    +0.000 A 
ATOM      8  C   UNL     1      45.940   7.647  12.284  0.00  0.00    +0.000 A 
BRANCH   6   9
ATOM      9  O   UNL     1      44.381   4.767  10.703  0.00  0.00    +0.000 OA
BRANCH   9  10
ATOM     10  C   UNL     1      44.984   4.060   9.674  0.00  0.00    +0.000 A 
ATOM     11  C   UNL     1      44.919   2.677   9.758  0.00  0.00    +0.000 A 
ATOM     12  C   UNL     1      45.520   1.929   8.751  0.00  0.00    +0.000 A 
ATOM     13  C   UNL     1      46.166   2.586   7.709  0.00  0.00    +0.000 A 
ATOM     14  C   UNL     1      46.200   3.971   7.724  0.00  0.00    +0.000 A 
ATOM     15  N   UNL     1      45.635   4.722   8.692  0.00  0.00    +0.000 NA
ENDBRANCH   9  10
ENDBRANCH   6   9
ENDBRANCH   2   3
BRANCH   2  16
ATOM     16  N   UNL     1      48.686   7.003  14.744  0.00  0.00    +0.000 N 
ATOM     17  C   UNL     1      48.979   7.254  16.063  0.00  0.00    +0.000 C 
ATOM     18  O   UNL     1      48.548   8.230  16.665  0.00  0.00    +0.000 OA
ATOM     19  H   UNL     1      49.152   6.249  14.261  0.00  0.00    +0.000 HD
BRANCH  17  20
ATOM     20  C   UNL     1      49.794   6.234  16.726  0.00  0.00    +0.000 A 
ATOM     21  C   UNL     1      51.082   6.450  17.193  0.00  0.00    +0.000 A 
ATOM     22  S   UNL     1      51.843   5.018  17.738  0.00  0.00    +0.000 S 
ATOM     23  C   UNL     1      50.475   4.076  17.360  0.00  0.00    +0.000 A 
ATOM     24  N   UNL     1      50.479   2.725  17.513  0.00  0.00    +0.000 NA
ATOM     25  C   UNL     1      49.376   2.151  17.152  0.00  0.00    +0.000 A 
ATOM     26  N   UNL     1      48.263   2.809  16.691  0.00  0.00    +0.000 N 
ATOM     27  C   UNL     1      48.170   4.182  16.652  0.00  0.00    +0.000 A 
ATOM     28  O   UNL     1      47.088   4.739  16.511  0.00  0.00    +0.000 OA
ATOM     29  C   UNL     1      49.429   4.856  16.905  0.00  0.00    +0.000 A 
ATOM     30  H   UNL     1      47.404   2.309  16.519  0.00  0.00    +0.000 HD
ENDBRANCH  17  20
ENDBRANCH   2  16
TORSDOF 5
ENDMDL
MODEL 4
REMARK VINA RESULT:    -7.612      2.948      3.955
REMARK INTER + INTRA:          -9.981
REMARK INTER:                  -8.863
REMARK INTRA:                  -1.118
REMARK UNBOUND:                -0.145
REMARK  Name = 
REMARK  6 active torsions:
REMARK  status: ('A' for Active; 'I' for Inactive)
REMARK    1  A    between atoms: C_1  and  C_2
REMARK    2  A    between atoms: C_2  and  N_3
REMARK    3  A    between atoms: C_2  and  C_16
REMARK    4  A    between atoms: C_4  and  C_6
REMARK    5  A    between atoms: C_19  and  O_20
REMARK    6  A    between atoms: O_20  and  C_21
REMARK                            x       y       z     vdW  Elec       q    Type
REMARK                         _______ _______ _______ _____ _____    ______ ____
ROOT
ATOM      1  C   UNL     1      47.462   4.107  16.107  0.00  0.00    +0.000 C 
ATOM      2  C   UNL     1      47.866   5.095  15.011  0.00  0.00    +0.000 C 
ENDROOT
BRANCH   2   3
ATOM      3  C   UNL     1      46.969   5.069  13.786  0.00  0.00    +0.000 A 
ATOM      4  C   UNL     1      46.083   3.994  13.607  0.00  0.00    +0.000 A 
ATOM      5  C   UNL     1      45.318   3.881  12.443  0.00  0.00    +0.000 A 
ATOM      6  C   UNL     1      45.410   4.856  11.449  0.00  0.00    +0.000 A 
ATOM      7  C   UNL     1      46.284   5.929  11.616  0.00  0.00    +0.000 A 
ATOM      8  C   UNL     1      47.057   6.036  12.774  0.00  0.00    +0.000 A 
BRANCH   6   9
ATOM      9  O   UNL     1      44.773   4.794  10.231  0.00  0.00    +0.000 OA
BRANCH   9  10
ATOM     10  C   UNL     1      45.354   4.059   9.209  0.00  0.00    +0.000 A 
ATOM     11  C   UNL     1      45.215   2.681   9.287  0.00  0.00    +0.000 A 
ATOM     12  C   UNL     1      45.791   1.905   8.287  0.00  0.00    +0.000 A 
ATOM     13  C   UNL     1      46.488   2.531   7.258  0.00  0.00    +0.000 A 
ATOM     14  C   UNL     1      46.595   3.912   7.279  0.00  0.00    +0.000 A 
ATOM     15  N   UNL     1      46.055   4.689   8.240  0.00  0.00    +0.000 NA
ENDBRANCH   9  10
ENDBRANCH   6   9
ENDBRANCH   2   3
BRANCH   2  16
ATOM     16  N   UNL     1      47.891   6.449  15.535  0.00  0.00    +0.000 N 
ATOM     17  C   UNL     1      49.069   7.118  15.762  0.00  0.00    +0.000 C 
ATOM     18  O   UNL     1      50.167   6.631  15.520  0.00  0.00    +0.000 OA
ATOM     19  H   UNL     1      47.019   6.846  15.852  0.00  0.00    +0.000 HD
BRANCH  17  20
ATOM     20  C   UNL     1      48.922   8.489  16.256  0.00  0.00    +0.000 A 
ATOM     21  C   UNL     1      49.222   9.620  15.513  0.00  0.00    +0.000 A 
ATOM     22  S   UNL     1      49.137  11.063  16.428  0.00  0.00    +0.000 S 
ATOM     23  C   UNL     1      48.702  10.213  17.838  0.00  0.00    +0.000 A 
ATOM     24  N   UNL     1      48.544  10.848  19.030  0.00  0.00    +0.000 NA
ATOM     25  C   UNL     1      48.246  10.059  20.011  0.00  0.00    +0.000 A 
ATOM     26  N   UNL     1      48.054   8.704  19.900  0.00  0.00    +0.000 N 
ATOM     27  C   UNL     1      48.068   8.046  18.691  0.00  0.00    +0.000 A 
ATOM     28  O   UNL     1      47.621   6.910  18.584  0.00  0.00    +0.000 OA
ATOM     29  C   UNL     1      48.544   8.863  17.591  0.00  0.00    +0.000 A 
ATOM     30  H   UNL     1      47.727   8.164  20.686  0.00  0.00    +0.000 HD
ENDBRANCH  17  20
ENDBRANCH   2  16
TORSDOF 5
ENDMDL
MODEL 5
REMARK VINA RESULT:    -7.542      3.266      5.002
REMARK INTER + INTRA:          -9.891
REMARK INTER:                  -8.372
REMARK INTRA:                  -1.519
REMARK UNBOUND:                -0.145
REMARK  Name = 
REMARK  6 active torsions:
REMARK  status: ('A' for Active; 'I' for Inactive)
REMARK    1  A    between atoms: C_1  and  C_2
REMARK    2  A    between atoms: C_2  and  N_3
REMARK    3  A    between atoms: C_2  and  C_16
REMARK    4  A    between atoms: C_4  and  C_6
REMARK    5  A    between atoms: C_19  and  O_20
REMARK    6  A    between atoms: O_20  and  C_21
REMARK                            x       y       z     vdW  Elec       q    Type
REMARK                         _______ _______ _______ _____ _____    ______ ____
ROOT
ATOM      1  C   UNL     1      50.466   8.567  13.071  0.00  0.00    +0.000 C 
ATOM      2  C   UNL     1      49.193   8.427  13.908  0.00  0.00    +0.000 C 
ENDROOT
BRANCH   2   3
ATOM      3  C   UNL     1      47.954   8.074  13.104  0.00  0.00    +0.000 A 
ATOM      4  C   UNL     1      46.766   8.791  13.325  0.00  0.00    +0.000 A 
ATOM      5  C   UNL     1      45.580   8.428  12.682  0.00  0.00    +0.000 A 
ATOM      6  C   UNL     1      45.568   7.356  11.789  0.00  0.00    +0.000 A 
ATOM      7  C   UNL     1      46.741   6.638  11.560  0.00  0.00    +0.000 A 
ATOM      8  C   UNL     1      47.924   6.994  12.211  0.00  0.00    +0.000 A 
BRANCH   6   9
ATOM      9  O   UNL     1      44.440   6.861  11.177  0.00  0.00    +0.000 OA
BRANCH   9  10
ATOM     10  C   UNL     1      44.093   5.536  11.384  0.00  0.00    +0.000 A 
ATOM     11  C   UNL     1      43.763   5.184  12.685  0.00  0.00    +0.000 A 
ATOM     12  C   UNL     1      43.418   3.861  12.939  0.00  0.00    +0.000 A 
ATOM     13  C   UNL     1      43.423   2.943  11.893  0.00  0.00    +0.000 A 
ATOM     14  C   UNL     1      43.790   3.383  10.633  0.00  0.00    +0.000 A 
ATOM     15  N   UNL     1      44.139   4.658  10.358  0.00  0.00    +0.000 NA
ENDBRANCH   9  10
ENDBRANCH   6   9
ENDBRANCH   2   3
BRANCH   2  16
ATOM     16  N   UNL     1      49.375   7.421  14.939  0.00  0.00    +0.000 N 
ATOM     17  C   UNL     1      48.896   7.595  16.215  0.00  0.00    +0.000 C 
ATOM     18  O   UNL     1      48.271   8.590  16.560  0.00  0.00    +0.000 OA
ATOM     19  H   UNL     1      49.977   6.638  14.731  0.00  0.00    +0.000 HD
BRANCH  17  20
ATOM     20  C   UNL     1      49.128   6.472  17.126  0.00  0.00    +0.000 A 
ATOM     21  C   UNL     1      49.904   6.548  18.273  0.00  0.00    +0.000 A 
ATOM     22  S   UNL     1      50.146   5.027  19.018  0.00  0.00    +0.000 S 
ATOM     23  C   UNL     1      49.225   4.231  17.827  0.00  0.00    +0.000 A 
ATOM     24  N   UNL     1      49.087   2.878  17.822  0.00  0.00    +0.000 NA
ATOM     25  C   UNL     1      48.384   2.424  16.834  0.00  0.00    +0.000 A 
ATOM     26  N   UNL     1      47.779   3.201  15.878  0.00  0.00    +0.000 N 
ATOM     27  C   UNL     1      47.779   4.577  15.925  0.00  0.00    +0.000 A 
ATOM     28  O   UNL     1      47.007   5.233  15.236  0.00  0.00    +0.000 OA
ATOM     29  C   UNL     1      48.675   5.123  16.927  0.00  0.00    +0.000 A 
ATOM     30  H   UNL     1      47.166   2.788  15.192  0.00  0.00    +0.000 HD
ENDBRANCH  17  20
ENDBRANCH   2  16
TORSDOF 5
ENDMDL
MODEL 6
REMARK VINA RESULT:    -7.519      2.742      3.963
REMARK INTER + INTRA:          -9.862
REMARK INTER:                  -8.906
REMARK INTRA:                  -0.956
REMARK UNBOUND:                -0.145
REMARK  Name = 
REMARK  6 active torsions:
REMARK  status: ('A' for Active; 'I' for Inactive)
REMARK    1  A    between atoms: C_1  and  C_2
REMARK    2  A    between atoms: C_2  and  N_3
REMARK    3  A    between atoms: C_2  and  C_16
REMARK    4  A    between atoms: C_4  and  C_6
REMARK    5  A    between atoms: C_19  and  O_20
REMARK    6  A    between atoms: O_20  and  C_21
REMARK                            x       y       z     vdW  Elec       q    Type
REMARK                         _______ _______ _______ _____ _____    ______ ____
ROOT
ATOM      1  C   UNL     1      49.328   8.006  13.118  0.00  0.00    +0.000 C 
ATOM      2  C   UNL     1      47.917   8.186  13.680  0.00  0.00    +0.000 C 
ENDROOT
BRANCH   2   3
ATOM      3  C   UNL     1      46.851   7.380  12.959  0.00  0.00    +0.000 A 
ATOM      4  C   UNL     1      46.843   5.982  13.089  0.00  0.00    +0.000 A 
ATOM      5  C   UNL     1      45.944   5.199  12.359  0.00  0.00    +0.000 A 
ATOM      6  C   UNL     1      45.022   5.805  11.505  0.00  0.00    +0.000 A 
ATOM      7  C   UNL     1      45.020   7.192  11.369  0.00  0.00    +0.000 A 
ATOM      8  C   UNL     1      45.924   7.974  12.089  0.00  0.00    +0.000 A 
BRANCH   6   9
ATOM      9  O   UNL     1      44.161   5.125  10.676  0.00  0.00    +0.000 OA
BRANCH   9  10
ATOM     10  C   UNL     1      44.675   4.167   9.816  0.00  0.00    +0.000 A 
ATOM     11  C   UNL     1      45.475   4.634   8.784  0.00  0.00    +0.000 A 
ATOM     12  C   UNL     1      46.004   3.707   7.892  0.00  0.00    +0.000 A 
ATOM     13  C   UNL     1      45.709   2.358   8.059  0.00  0.00    +0.000 A 
ATOM     14  C   UNL     1      44.880   1.989   9.106  0.00  0.00    +0.000 A 
ATOM     15  N   UNL     1      44.345   2.866   9.981  0.00  0.00    +0.000 NA
ENDBRANCH   9  10
ENDBRANCH   6   9
ENDBRANCH   2   3
BRANCH   2  16
ATOM     16  N   UNL     1      47.885   7.836  15.088  0.00  0.00    +0.000 N 
ATOM     17  C   UNL     1      48.510   8.603  16.042  0.00  0.00    +0.000 C 
ATOM     18  O   UNL     1      49.112   9.636  15.773  0.00  0.00    +0.000 OA
ATOM     19  H   UNL     1      47.498   6.938  15.340  0.00  0.00    +0.000 HD
BRANCH  17  20
ATOM     20  C   UNL     1      48.353   8.134  17.420  0.00  0.00    +0.000 A 
ATOM     21  C   UNL     1      47.856   8.913  18.454  0.00  0.00    +0.000 A 
ATOM     22  S   UNL     1      47.979   8.152  19.982  0.00  0.00    +0.000 S 
ATOM     23  C   UNL     1      48.701   6.768  19.301  0.00  0.00    +0.000 A 
ATOM     24  N   UNL     1      49.135   5.739  20.076  0.00  0.00    +0.000 NA
ATOM     25  C   UNL     1      49.690   4.777  19.411  0.00  0.00    +0.000 A 
ATOM     26  N   UNL     1      49.814   4.735  18.045  0.00  0.00    +0.000 N 
ATOM     27  C   UNL     1      49.266   5.689  17.217  0.00  0.00    +0.000 A 
ATOM     28  O   UNL     1      49.143   5.488  16.014  0.00  0.00    +0.000 OA
ATOM     29  C   UNL     1      48.769   6.855  17.923  0.00  0.00    +0.000 A 
ATOM     30  H   UNL     1      50.169   3.911  17.584  0.00  0.00    +0.000 HD
ENDBRANCH  17  20
ENDBRANCH   2  16
TORSDOF 5
ENDMDL
MODEL 7
REMARK VINA RESULT:    -7.121      4.305      8.970
REMARK INTER + INTRA:          -9.347
REMARK INTER:                  -8.164
REMARK INTRA:                  -1.183
REMARK UNBOUND:                -0.145
REMARK  Name = 
REMARK  6 active torsions:
REMARK  status: ('A' for Active; 'I' for Inactive)
REMARK    1  A    between atoms: C_1  and  C_2
REMARK    2  A    between atoms: C_2  and  N_3
REMARK    3  A    between atoms: C_2  and  C_16
REMARK    4  A    between atoms: C_4  and  C_6
REMARK    5  A    between atoms: C_19  and  O_20
REMARK    6  A    between atoms: O_20  and  C_21
REMARK                            x       y       z     vdW  Elec       q    Type
REMARK                         _______ _______ _______ _____ _____    ______ ____
ROOT
ATOM      1  C   UNL     1      48.426   8.856  16.049  0.00  0.00    +0.000 C 
ATOM      2  C   UNL     1      48.879   7.605  15.294  0.00  0.00    +0.000 C 
ENDROOT
BRANCH   2   3
ATOM      3  C   UNL     1      49.698   6.636  16.129  0.00  0.00    +0.000 A 
ATOM      4  C   UNL     1      49.037   5.750  16.996  0.00  0.00    +0.000 A 
ATOM      5  C   UNL     1      49.758   4.917  17.856  0.00  0.00    +0.000 A 
ATOM      6  C   UNL     1      51.154   4.939  17.844  0.00  0.00    +0.000 A 
ATOM      7  C   UNL     1      51.820   5.812  16.986  0.00  0.00    +0.000 A 
ATOM      8  C   UNL     1      51.100   6.653  16.134  0.00  0.00    +0.000 A 
BRANCH   6   9
ATOM      9  O   UNL     1      51.954   4.230  18.709  0.00  0.00    +0.000 OA
BRANCH   9  10
ATOM     10  C   UNL     1      52.547   3.059  18.265  0.00  0.00    +0.000 A 
ATOM     11  C   UNL     1      53.934   3.026  18.290  0.00  0.00    +0.000 A 
ATOM     12  C   UNL     1      54.571   1.873  17.843  0.00  0.00    +0.000 A 
ATOM     13  C   UNL     1      53.804   0.807  17.384  0.00  0.00    +0.000 A 
ATOM     14  C   UNL     1      52.426   0.943  17.374  0.00  0.00    +0.000 A 
ATOM     15  N   UNL     1      51.781   2.052  17.792  0.00  0.00    +0.000 NA
ENDBRANCH   9  10
ENDBRANCH   6   9
ENDBRANCH   2   3
BRANCH   2  16
ATOM     16  N   UNL     1      47.732   6.896  14.757  0.00  0.00    +0.000 N 
ATOM     17  C   UNL     1      47.787   6.229  13.557  0.00  0.00    +0.000 C 
ATOM     18  O   UNL     1      48.804   6.171  12.876  0.00  0.00    +0.000 OA
ATOM     19  H   UNL     1      46.847   7.010  15.228  0.00  0.00    +0.000 HD
BRANCH  17  20
ATOM     20  C   UNL     1      46.558   5.532  13.173  0.00  0.00    +0.000 A 
ATOM     21  C   UNL     1      46.374   4.162  13.283  0.00  0.00    +0.000 A 
ATOM     22  S   UNL     1      44.913   3.626  12.572  0.00  0.00    +0.000 S 
ATOM     23  C   UNL     1      44.494   5.207  12.098  0.00  0.00    +0.000 A 
ATOM     24  N   UNL     1      43.375   5.456  11.366  0.00  0.00    +0.000 NA
ATOM     25  C   UNL     1      43.214   6.703  11.058  0.00  0.00    +0.000 A 
ATOM     26  N   UNL     1      44.047   7.722  11.447  0.00  0.00    +0.000 N 
ATOM     27  C   UNL     1      45.111   7.532  12.301  0.00  0.00    +0.000 A 
ATOM     28  O   UNL     1      45.657   8.480  12.852  0.00  0.00    +0.000 OA
ATOM     29  C   UNL     1      45.413   6.135  12.549  0.00  0.00    +0.000 A 
ATOM     30  H   UNL     1      43.810   8.683  11.254  0.00  0.00    +0.000 HD
ENDBRANCH  17  20
ENDBRANCH   2  16
TORSDOF 5
ENDMDL
MODEL 8
REMARK VINA RESULT:    -6.999      4.305      9.024
REMARK INTER + INTRA:          -9.190
REMARK INTER:                  -8.232
REMARK INTRA:                  -0.957
REMARK UNBOUND:                -0.145
REMARK  Name = 
REMARK  6 active torsions:
REMARK  status: ('A' for Active; 'I' for Inactive)
REMARK    1  A    between atoms: C_1  and  C_2
REMARK    2  A    between atoms: C_2  and  N_3
REMARK    3  A    between atoms: C_2  and  C_16
REMARK    4  A    between atoms: C_4  and  C_6
REMARK    5  A    between atoms: C_19  and  O_20
REMARK    6  A    between atoms: O_20  and  C_21
REMARK                            x       y       z     vdW  Elec       q    Type
REMARK                         _______ _______ _______ _____ _____    ______ ____
ROOT
ATOM      1  C   UNL     1      47.418   2.886  17.525  0.00  0.00    +0.000 C 
ATOM      2  C   UNL     1      48.495   3.945  17.283  0.00  0.00    +0.000 C 
ENDROOT
BRANCH   2   3
ATOM      3  C   UNL     1      49.916   3.440  17.455  0.00  0.00    +0.000 A 
ATOM      4  C   UNL     1      50.200   2.089  17.193  0.00  0.00    +0.000 A 
ATOM      5  C   UNL     1      51.472   1.563  17.440  0.00  0.00    +0.000 A 
ATOM      6  C   UNL     1      52.487   2.386  17.929  0.00  0.00    +0.000 A 
ATOM      7  C   UNL     1      52.217   3.729  18.190  0.00  0.00    +0.000 A 
ATOM      8  C   UNL     1      50.944   4.252  17.955  0.00  0.00    +0.000 A 
BRANCH   6   9
ATOM      9  O   UNL     1      53.740   1.951  18.290  0.00  0.00    +0.000 OA
BRANCH   9  10
ATOM     10  C   UNL     1      54.109   0.649  17.989  0.00  0.00    +0.000 A 
ATOM     11  C   UNL     1      54.631   0.437  16.721  0.00  0.00    +0.000 A 
ATOM     12  C   UNL     1      55.006  -0.857  16.374  0.00  0.00    +0.000 A 
ATOM     13  C   UNL     1      54.838  -1.884  17.296  0.00  0.00    +0.000 A 
ATOM     14  C   UNL     1      54.284  -1.579  18.529  0.00  0.00    +0.000 A 
ATOM     15  N   UNL     1      53.903  -0.337  18.891  0.00  0.00    +0.000 NA
ENDBRANCH   9  10
ENDBRANCH   6   9
ENDBRANCH   2   3
BRANCH   2  16
ATOM     16  N   UNL     1      48.363   4.504  15.950  0.00  0.00    +0.000 N 
ATOM     17  C   UNL     1      48.341   5.861  15.730  0.00  0.00    +0.000 C 
ATOM     18  O   UNL     1      48.453   6.682  16.633  0.00  0.00    +0.000 OA
ATOM     19  H   UNL     1      48.157   3.870  15.192  0.00  0.00    +0.000 HD
BRANCH  17  20
ATOM     20  C   UNL     1      48.241   6.263  14.326  0.00  0.00    +0.000 A 
ATOM     21  C   UNL     1      49.122   7.133  13.701  0.00  0.00    +0.000 A 
ATOM     22  S   UNL     1      48.628   7.562  12.120  0.00  0.00    +0.000 S 
ATOM     23  C   UNL     1      47.227   6.601  12.233  0.00  0.00    +0.000 A 
ATOM     24  N   UNL     1      46.304   6.570  11.235  0.00  0.00    +0.000 NA
ATOM     25  C   UNL     1      45.281   5.818  11.486  0.00  0.00    +0.000 A 
ATOM     26  N   UNL     1      45.118   5.068  12.623  0.00  0.00    +0.000 N 
ATOM     27  C   UNL     1      46.090   4.964  13.594  0.00  0.00    +0.000 A 
ATOM     28  O   UNL     1      46.043   4.082  14.444  0.00  0.00    +0.000 OA
ATOM     29  C   UNL     1      47.183   5.902  13.424  0.00  0.00    +0.000 A 
ATOM     30  H   UNL     1      44.343   4.428  12.713  0.00  0.00    +0.000 HD
ENDBRANCH  17  20
ENDBRANCH   2  16
TORSDOF 5
ENDMDL
MODEL 9
REMARK VINA RESULT:    -6.724      3.341      4.891
REMARK INTER + INTRA:          -8.834
REMARK INTER:                  -7.602
REMARK INTRA:                  -1.232
REMARK UNBOUND:                -0.145
REMARK  Name = 
REMARK  6 active torsions:
REMARK  status: ('A' for Active; 'I' for Inactive)
REMARK    1  A    between atoms: C_1  and  C_2
REMARK    2  A    between atoms: C_2  and  N_3
REMARK    3  A    between atoms: C_2  and  C_16
REMARK    4  A    between atoms: C_4  and  C_6
REMARK    5  A    between atoms: C_19  and  O_20
REMARK    6  A    between atoms: O_20  and  C_21
REMARK                            x       y       z     vdW  Elec       q    Type
REMARK                         _______ _______ _______ _____ _____    ______ ____
ROOT
ATOM      1  C   UNL     1      47.232   4.966  16.846  0.00  0.00    +0.000 C 
ATOM      2  C   UNL     1      47.957   5.222  15.523  0.00  0.00    +0.000 C 
ENDROOT
BRANCH   2   3
ATOM      3  C   UNL     1      47.125   4.926  14.288  0.00  0.00    +0.000 A 
ATOM      4  C   UNL     1      46.566   5.992  13.565  0.00  0.00    +0.000 A 
ATOM      5  C   UNL     1      45.709   5.756  12.486  0.00  0.00    +0.000 A 
ATOM      6  C   UNL     1      45.418   4.448  12.098  0.00  0.00    +0.000 A 
ATOM      7  C   UNL     1      45.968   3.381  12.807  0.00  0.00    +0.000 A 
ATOM      8  C   UNL     1      46.815   3.616  13.892  0.00  0.00    +0.000 A 
BRANCH   6   9
ATOM      9  O   UNL     1      44.520   4.106  11.114  0.00  0.00    +0.000 OA
BRANCH   9  10
ATOM     10  C   UNL     1      45.002   3.691   9.882  0.00  0.00    +0.000 A 
ATOM     11  C   UNL     1      44.909   2.334   9.612  0.00  0.00    +0.000 A 
ATOM     12  C   UNL     1      45.390   1.873   8.391  0.00  0.00    +0.000 A 
ATOM     13  C   UNL     1      45.950   2.778   7.496  0.00  0.00    +0.000 A 
ATOM     14  C   UNL     1      46.023   4.112   7.865  0.00  0.00    +0.000 A 
ATOM     15  N   UNL     1      45.573   4.586   9.045  0.00  0.00    +0.000 NA
ENDBRANCH   9  10
ENDBRANCH   6   9
ENDBRANCH   2   3
BRANCH   2  16
ATOM     16  N   UNL     1      48.409   6.600  15.454  0.00  0.00    +0.000 N 
ATOM     17  C   UNL     1      49.680   6.968  15.826  0.00  0.00    +0.000 C 
ATOM     18  O   UNL     1      50.516   6.162  16.217  0.00  0.00    +0.000 OA
ATOM     19  H   UNL     1      47.722   7.310  15.245  0.00  0.00    +0.000 HD
BRANCH  17  20
ATOM     20  C   UNL     1      49.992   8.388  15.661  0.00  0.00    +0.000 A 
ATOM     21  C   UNL     1      50.417   9.216  16.688  0.00  0.00    +0.000 A 
ATOM     22  S   UNL     1      50.509  10.861  16.227  0.00  0.00    +0.000 S 
ATOM     23  C   UNL     1      49.979  10.509  14.647  0.00  0.00    +0.000 A 
ATOM     24  N   UNL     1      49.762  11.493  13.735  0.00  0.00    +0.000 NA
ATOM     25  C   UNL     1      49.331  11.066  12.592  0.00  0.00    +0.000 A 
ATOM     26  N   UNL     1      49.134   9.747  12.269  0.00  0.00    +0.000 N 
ATOM     27  C   UNL     1      49.472   8.714  13.116  0.00  0.00    +0.000 A 
ATOM     28  O   UNL     1      49.554   7.562  12.706  0.00  0.00    +0.000 OA
ATOM     29  C   UNL     1      49.817   9.150  14.455  0.00  0.00    +0.000 A 
ATOM     30  H   UNL     1      48.889   9.477  11.329  0.00  0.00    +0.000 HD
ENDBRANCH  17  20
ENDBRANCH   2  16
TORSDOF 5
ENDMDL
