MODEL 1
REMARK VINA RESULT:    -8.352      0.000      0.000
REMARK INTER + INTRA:         -12.954
REMARK INTER:                 -11.769
REMARK INTRA:                  -1.185
REMARK UNBOUND:                -1.185
REMARK  Name = 
REMARK  7 active torsions:
REMARK  status: ('A' for Active; 'I' for Inactive)
REMARK    1  A    between atoms: C_2  and  C_20
REMARK    2  A    between atoms: N_3  and  C_4
REMARK    3  A    between atoms: C_4  and  C_5
REMARK    4  A    between atoms: C_8  and  C_9
REMARK    5  A    between atoms: C_9  and  O_10
REMARK    6  A    between atoms: O_10  and  C_11
REMARK    7  A    between atoms: C_11  and  C_12
REMARK                            x       y       z     vdW  Elec       q    Type
REMARK                         _______ _______ _______ _____ _____    ______ ____
ROOT
ATOM      1  C   UNL     1      46.696   8.067  12.720  0.00  0.00    +0.000 C 
ENDROOT
BRANCH   1   2
ATOM      2  C   UNL     1      45.654   7.095  12.157  0.00  0.00    +0.000 C 
ATOM      3  C   UNL     1      45.060   6.191  13.252  0.00  0.00    +0.000 C 
ATOM      4  C   UNL     1      44.067   5.183  12.682  0.00  0.00    +0.000 C 
ATOM      5  C   UNL     1      44.714   4.343  11.578  0.00  0.00    +0.000 C 
ATOM      6  C   UNL     1      45.293   5.241  10.476  0.00  0.00    +0.000 C 
ATOM      7  C   UNL     1      46.277   6.262  11.033  0.00  0.00    +0.000 C 
BRANCH   5   8
ATOM      8  C   UNL     1      43.700   3.356  11.000  0.00  0.00    +0.000 C 
BRANCH   8   9
ATOM      9  O   UNL     1      43.942   3.218   9.605  0.00  0.00    +0.000 OA
BRANCH   9  10
ATOM     10  C   UNL     1      44.557   1.970   9.305  0.00  0.00    +0.000 C 
BRANCH  10  11
ATOM     11  C   UNL     1      45.658   2.174   8.302  0.00  0.00    +0.000 A 
ATOM     12  C   UNL     1      46.544   1.146   7.961  0.00  0.00    +0.000 A 
ATOM     13  C   UNL     1      47.512   1.387   7.004  0.00  0.00    +0.000 A 
ATOM     14  N   UNL     1      47.652   2.566   6.357  0.00  0.00    +0.000 NA
ATOM     15  C   UNL     1      46.784   3.544   6.695  0.00  0.00    +0.000 A 
ATOM     16  C   UNL     1      45.783   3.399   7.641  0.00  0.00    +0.000 A 
ENDBRANCH  10  11
ENDBRANCH   9  10
ENDBRANCH   8   9
ENDBRANCH   5   8
ENDBRANCH   1   2
BRANCH   1  19
ATOM     17  O   UNL     1      49.083   6.607  13.276  0.00  0.00    +0.000 OA
ATOM     18  C   UNL     1      48.294   6.864  14.184  0.00  0.00    +0.000 C 
ATOM     19  N   UNL     1      47.169   7.619  14.008  0.00  0.00    +0.000 N 
ATOM     20  H   UNL     1      46.606   7.865  14.812  0.00  0.00    +0.000 HD
BRANCH  18  21
ATOM     21  C   UNL     1      48.525   6.419  15.558  0.00  0.00    +0.000 A 
ATOM     22  C   UNL     1      49.210   7.207  16.471  0.00  0.00    +0.000 A 
ATOM     23  S   UNL     1      49.365   6.474  18.007  0.00  0.00    +0.000 S 
ATOM     24  C   UNL     1      48.537   5.077  17.492  0.00  0.00    +0.000 A 
ATOM     25  N   UNL     1      48.327   4.032  18.336  0.00  0.00    +0.000 NA
ATOM     26  C   UNL     1      47.665   3.050  17.814  0.00  0.00    +0.000 A 
ATOM     27  N   UNL     1      47.196   3.021  16.526  0.00  0.00    +0.000 N 
ATOM     28  C   UNL     1      47.421   4.028  15.625  0.00  0.00    +0.000 A 
ATOM     29  O   UNL     1      47.006   3.943  14.478  0.00  0.00    +0.000 OA
ATOM     30  C   UNL     1      48.138   5.171  16.174  0.00  0.00    +0.000 A 
ATOM     31  H   UNL     1      46.681   2.228  16.176  0.00  0.00    +0.000 HD
ENDBRANCH  18  21
ENDBRANCH   1  19
TORSDOF 7
ENDMDL
MODEL 2
REMARK VINA RESULT:    -8.183      1.612      2.085
REMARK INTER + INTRA:         -12.717
REMARK INTER:                 -11.883
REMARK INTRA:                  -0.834
REMARK UNBOUND:                -1.185
REMARK  Name = 
REMARK  7 active torsions:
REMARK  status: ('A' for Active; 'I' for Inactive)
REMARK    1  A    between atoms: C_2  and  C_20
REMARK    2  A    between atoms: N_3  and  C_4
REMARK    3  A    between atoms: C_4  and  C_5
REMARK    4  A    between atoms: C_8  and  C_9
REMARK    5  A    between atoms: C_9  and  O_10
REMARK    6  A    between atoms: O_10  and  C_11
REMARK    7  A    between atoms: C_11  and  C_12
REMARK                            x       y       z     vdW  Elec       q    Type
REMARK                         _______ _______ _______ _____ _____    ______ ____
ROOT
ATOM      1  C   UNL     1      47.911   6.714  13.548  0.00  0.00    +0.000 C 
ENDROOT
BRANCH   1   2
ATOM      2  C   UNL     1      46.595   6.082  13.083  0.00  0.00    +0.000 C 
ATOM      3  C   UNL     1      46.609   4.550  13.229  0.00  0.00    +0.000 C 
ATOM      4  C   UNL     1      45.323   3.917  12.711  0.00  0.00    +0.000 C 
ATOM      5  C   UNL     1      45.062   4.318  11.257  0.00  0.00    +0.000 C 
ATOM      6  C   UNL     1      45.032   5.847  11.109  0.00  0.00    +0.000 C 
ATOM      7  C   UNL     1      46.306   6.494  11.636  0.00  0.00    +0.000 C 
BRANCH   5   8
ATOM      8  C   UNL     1      43.758   3.697  10.760  0.00  0.00    +0.000 C 
BRANCH   8   9
ATOM      9  O   UNL     1      44.044   2.873   9.637  0.00  0.00    +0.000 OA
BRANCH   9  10
ATOM     10  C   UNL     1      44.637   3.620   8.580  0.00  0.00    +0.000 C 
BRANCH  10  11
ATOM     11  C   UNL     1      45.762   2.832   7.969  0.00  0.00    +0.000 A 
ATOM     12  C   UNL     1      46.729   3.436   7.159  0.00  0.00    +0.000 A 
ATOM     13  C   UNL     1      47.759   2.662   6.657  0.00  0.00    +0.000 A 
ATOM     14  N   UNL     1      47.901   1.342   6.914  0.00  0.00    +0.000 NA
ATOM     15  C   UNL     1      46.962   0.779   7.702  0.00  0.00    +0.000 A 
ATOM     16  C   UNL     1      45.894   1.469   8.250  0.00  0.00    +0.000 A 
ENDBRANCH  10  11
ENDBRANCH   9  10
ENDBRANCH   8   9
ENDBRANCH   5   8
ENDBRANCH   1   2
BRANCH   1  19
ATOM     17  O   UNL     1      50.161   6.667  15.301  0.00  0.00    +0.000 OA
ATOM     18  C   UNL     1      49.028   6.798  15.760  0.00  0.00    +0.000 C 
ATOM     19  N   UNL     1      47.911   6.902  14.978  0.00  0.00    +0.000 N 
ATOM     20  H   UNL     1      47.017   7.094  15.413  0.00  0.00    +0.000 HD
BRANCH  18  21
ATOM     21  C   UNL     1      48.782   6.907  17.197  0.00  0.00    +0.000 A 
ATOM     22  C   UNL     1      48.468   8.121  17.790  0.00  0.00    +0.000 A 
ATOM     23  S   UNL     1      48.236   8.003  19.479  0.00  0.00    +0.000 S 
ATOM     24  C   UNL     1      48.565   6.331  19.470  0.00  0.00    +0.000 A 
ATOM     25  N   UNL     1      48.541   5.603  20.617  0.00  0.00    +0.000 NA
ATOM     26  C   UNL     1      48.788   4.343  20.453  0.00  0.00    +0.000 A 
ATOM     27  N   UNL     1      49.056   3.749  19.247  0.00  0.00    +0.000 N 
ATOM     28  C   UNL     1      49.136   4.447  18.071  0.00  0.00    +0.000 A 
ATOM     29  O   UNL     1      49.405   3.876  17.023  0.00  0.00    +0.000 OA
ATOM     30  C   UNL     1      48.836   5.867  18.198  0.00  0.00    +0.000 A 
ATOM     31  H   UNL     1      49.235   2.760  19.180  0.00  0.00    +0.000 HD
ENDBRANCH  18  21
ENDBRANCH   1  19
TORSDOF 7
ENDMDL
MODEL 3
REMARK VINA RESULT:    -8.016      2.135      2.840
REMARK INTER + INTRA:         -12.482
REMARK INTER:                 -11.508
REMARK INTRA:                  -0.974
REMARK UNBOUND:                -1.185
REMARK  Name = 
REMARK  7 active torsions:
REMARK  status: ('A' for Active; 'I' for Inactive)
REMARK    1  A    between atoms: C_2  and  C_20
REMARK    2  A    between atoms: N_3  and  C_4
REMARK    3  A    between atoms: C_4  and  C_5
REMARK    4  A    between atoms: C_8  and  C_9
REMARK    5  A    between atoms: C_9  and  O_10
REMARK    6  A    between atoms: O_10  and  C_11
REMARK    7  A    between atoms: C_11  and  C_12
REMARK                            x       y       z     vdW  Elec       q    Type
REMARK                         _______ _______ _______ _____ _____    ______ ____
ROOT
ATOM      1  C   UNL     1      47.902   6.677  13.787  0.00  0.00    +0.000 C 
ENDROOT
BRANCH   1   2
ATOM      2  C   UNL     1      46.597   6.189  13.151  0.00  0.00    +0.000 C 
ATOM      3  C   UNL     1      46.372   4.684  13.379  0.00  0.00    +0.000 C 
ATOM      4  C   UNL     1      45.103   4.187  12.695  0.00  0.00    +0.000 C 
ATOM      5  C   UNL     1      45.127   4.508  11.199  0.00  0.00    +0.000 C 
ATOM      6  C   UNL     1      45.335   6.012  10.966  0.00  0.00    +0.000 C 
ATOM      7  C   UNL     1      46.592   6.525  11.656  0.00  0.00    +0.000 C 
BRANCH   5   8
ATOM      8  C   UNL     1      43.839   4.027  10.532  0.00  0.00    +0.000 C 
BRANCH   8   9
ATOM      9  O   UNL     1      44.170   3.051   9.552  0.00  0.00    +0.000 OA
BRANCH   9  10
ATOM     10  C   UNL     1      44.650   3.656   8.356  0.00  0.00    +0.000 C 
BRANCH  10  11
ATOM     11  C   UNL     1      45.787   2.848   7.798  0.00  0.00    +0.000 A 
ATOM     12  C   UNL     1      46.764   3.420   6.976  0.00  0.00    +0.000 A 
ATOM     13  C   UNL     1      47.805   2.629   6.525  0.00  0.00    +0.000 A 
ATOM     14  N   UNL     1      47.949   1.323   6.843  0.00  0.00    +0.000 NA
ATOM     15  C   UNL     1      47.001   0.791   7.642  0.00  0.00    +0.000 A 
ATOM     16  C   UNL     1      45.921   1.499   8.142  0.00  0.00    +0.000 A 
ENDBRANCH  10  11
ENDBRANCH   9  10
ENDBRANCH   8   9
ENDBRANCH   5   8
ENDBRANCH   1   2
BRANCH   1  19
ATOM     17  O   UNL     1      50.159   6.631  15.531  0.00  0.00    +0.000 OA
ATOM     18  C   UNL     1      49.044   6.347  15.963  0.00  0.00    +0.000 C 
ATOM     19  N   UNL     1      47.907   6.417  15.206  0.00  0.00    +0.000 N 
ATOM     20  H   UNL     1      47.009   6.251  15.643  0.00  0.00    +0.000 HD
BRANCH  18  21
ATOM     21  C   UNL     1      48.830   5.954  17.355  0.00  0.00    +0.000 A 
ATOM     22  C   UNL     1      49.083   4.662  17.791  0.00  0.00    +0.000 A 
ATOM     23  S   UNL     1      48.750   4.436  19.452  0.00  0.00    +0.000 S 
ATOM     24  C   UNL     1      48.243   6.053  19.633  0.00  0.00    +0.000 A 
ATOM     25  N   UNL     1      47.813   6.526  20.832  0.00  0.00    +0.000 NA
ATOM     26  C   UNL     1      47.482   7.778  20.824  0.00  0.00    +0.000 A 
ATOM     27  N   UNL     1      47.543   8.595  19.726  0.00  0.00    +0.000 N 
ATOM     28  C   UNL     1      47.925   8.155  18.486  0.00  0.00    +0.000 A 
ATOM     29  O   UNL     1      47.937   8.917  17.529  0.00  0.00    +0.000 OA
ATOM     30  C   UNL     1      48.337   6.757  18.449  0.00  0.00    +0.000 A 
ATOM     31  H   UNL     1      47.276   9.565  19.781  0.00  0.00    +0.000 HD
ENDBRANCH  18  21
ENDBRANCH   1  19
TORSDOF 7
ENDMDL
MODEL 4
REMARK VINA RESULT:    -7.623      2.270      3.505
REMARK INTER + INTRA:         -11.927
REMARK INTER:                 -10.794
REMARK INTRA:                  -1.134
REMARK UNBOUND:                -1.185
REMARK  Name = 
REMARK  7 active torsions:
REMARK  status: ('A' for Active; 'I' for Inactive)
REMARK    1  A    between atoms: C_2  and  C_20
REMARK    2  A    between atoms: N_3  and  C_4
REMARK    3  A    between atoms: C_4  and  C_5
REMARK    4  A    between atoms: C_8  and  C_9
REMARK    5  A    between atoms: C_9  and  O_10
REMARK    6  A    between atoms: O_10  and  C_11
REMARK    7  A    between atoms: C_11  and  C_12
REMARK                            x       y       z     vdW  Elec       q    Type
REMARK                         _______ _______ _______ _____ _____    ______ ____
ROOT
ATOM      1  C   UNL     1      47.459   4.280  15.178  0.00  0.00    +0.000 C 
ENDROOT
BRANCH   1   2
ATOM      2  C   UNL     1      46.435   4.610  14.088  0.00  0.00    +0.000 C 
ATOM      3  C   UNL     1      46.149   3.400  13.181  0.00  0.00    +0.000 C 
ATOM      4  C   UNL     1      45.176   3.745  12.059  0.00  0.00    +0.000 C 
ATOM      5  C   UNL     1      45.689   4.929  11.235  0.00  0.00    +0.000 C 
ATOM      6  C   UNL     1      45.960   6.145  12.134  0.00  0.00    +0.000 C 
ATOM      7  C   UNL     1      46.920   5.810  13.268  0.00  0.00    +0.000 C 
BRANCH   5   8
ATOM      8  C   UNL     1      44.692   5.280  10.131  0.00  0.00    +0.000 C 
BRANCH   8   9
ATOM      9  O   UNL     1      45.261   4.932   8.875  0.00  0.00    +0.000 OA
BRANCH   9  10
ATOM     10  C   UNL     1      44.744   3.696   8.393  0.00  0.00    +0.000 C 
BRANCH  10  11
ATOM     11  C   UNL     1      45.867   2.845   7.871  0.00  0.00    +0.000 A 
ATOM     12  C   UNL     1      45.973   1.487   8.194  0.00  0.00    +0.000 A 
ATOM     13  C   UNL     1      47.010   0.750   7.652  0.00  0.00    +0.000 A 
ATOM     14  N   UNL     1      47.934   1.261   6.807  0.00  0.00    +0.000 NA
ATOM     15  C   UNL     1      47.811   2.570   6.503  0.00  0.00    +0.000 A 
ATOM     16  C   UNL     1      46.810   3.390   6.995  0.00  0.00    +0.000 A 
ENDBRANCH  10  11
ENDBRANCH   9  10
ENDBRANCH   8   9
ENDBRANCH   5   8
ENDBRANCH   1   2
BRANCH   1  19
ATOM     17  O   UNL     1      49.701   4.976  16.798  0.00  0.00    +0.000 OA
ATOM     18  C   UNL     1      48.638   5.581  16.928  0.00  0.00    +0.000 C 
ATOM     19  N   UNL     1      47.545   5.352  16.140  0.00  0.00    +0.000 N 
ATOM     20  H   UNL     1      46.728   5.941  16.242  0.00  0.00    +0.000 HD
BRANCH  18  21
ATOM     21  C   UNL     1      48.468   6.644  17.918  0.00  0.00    +0.000 A 
ATOM     22  C   UNL     1      48.442   6.371  19.278  0.00  0.00    +0.000 A 
ATOM     23  S   UNL     1      48.223   7.768  20.238  0.00  0.00    +0.000 S 
ATOM     24  C   UNL     1      48.141   8.774  18.865  0.00  0.00    +0.000 A 
ATOM     25  N   UNL     1      47.953  10.115  18.986  0.00  0.00    +0.000 NA
ATOM     26  C   UNL     1      47.934  10.753  17.859  0.00  0.00    +0.000 A 
ATOM     27  N   UNL     1      48.086  10.171  16.628  0.00  0.00    +0.000 N 
ATOM     28  C   UNL     1      48.232   8.820  16.453  0.00  0.00    +0.000 A 
ATOM     29  O   UNL     1      48.336   8.344  15.330  0.00  0.00    +0.000 OA
ATOM     30  C   UNL     1      48.289   8.059  17.694  0.00  0.00    +0.000 A 
ATOM     31  H   UNL     1      48.068  10.721  15.784  0.00  0.00    +0.000 HD
ENDBRANCH  18  21
ENDBRANCH   1  19
TORSDOF 7
ENDMDL
MODEL 5
REMARK VINA RESULT:    -7.295      2.788      7.746
REMARK INTER + INTRA:         -11.465
REMARK INTER:                  -9.933
REMARK INTRA:                  -1.533
REMARK UNBOUND:                -1.185
REMARK  Name = 
REMARK  7 active torsions:
REMARK  status: ('A' for Active; 'I' for Inactive)
REMARK    1  A    between atoms: C_2  and  C_20
REMARK    2  A    between atoms: N_3  and  C_4
REMARK    3  A    between atoms: C_4  and  C_5
REMARK    4  A    between atoms: C_8  and  C_9
REMARK    5  A    between atoms: C_9  and  O_10
REMARK    6  A    between atoms: O_10  and  C_11
REMARK    7  A    between atoms: C_11  and  C_12
REMARK                            x       y       z     vdW  Elec       q    Type
REMARK                         _______ _______ _______ _____ _____    ______ ____
ROOT
ATOM      1  C   UNL     1      47.848   8.148  11.663  0.00  0.00    +0.000 C 
ENDROOT
BRANCH   1   2
ATOM      2  C   UNL     1      48.528   8.255  13.031  0.00  0.00    +0.000 C 
ATOM      3  C   UNL     1      49.146   6.917  13.473  0.00  0.00    +0.000 C 
ATOM      4  C   UNL     1      49.771   7.009  14.861  0.00  0.00    +0.000 C 
ATOM      5  C   UNL     1      48.749   7.498  15.890  0.00  0.00    +0.000 C 
ATOM      6  C   UNL     1      48.141   8.842  15.461  0.00  0.00    +0.000 C 
ATOM      7  C   UNL     1      47.525   8.768  14.070  0.00  0.00    +0.000 C 
BRANCH   5   8
ATOM      8  C   UNL     1      49.396   7.609  17.270  0.00  0.00    +0.000 C 
BRANCH   8   9
ATOM      9  O   UNL     1      50.289   6.516  17.444  0.00  0.00    +0.000 OA
BRANCH   9  10
ATOM     10  C   UNL     1      49.764   5.553  18.353  0.00  0.00    +0.000 C 
BRANCH  10  11
ATOM     11  C   UNL     1      49.589   4.236  17.652  0.00  0.00    +0.000 A 
ATOM     12  C   UNL     1      48.420   3.925  16.949  0.00  0.00    +0.000 A 
ATOM     13  C   UNL     1      48.336   2.709  16.295  0.00  0.00    +0.000 A 
ATOM     14  N   UNL     1      49.330   1.794  16.280  0.00  0.00    +0.000 NA
ATOM     15  C   UNL     1      50.452   2.114  16.958  0.00  0.00    +0.000 A 
ATOM     16  C   UNL     1      50.631   3.304  17.644  0.00  0.00    +0.000 A 
ENDBRANCH  10  11
ENDBRANCH   9  10
ENDBRANCH   8   9
ENDBRANCH   5   8
ENDBRANCH   1   2
BRANCH   1  19
ATOM     17  O   UNL     1      45.002   8.114  11.465  0.00  0.00    +0.000 OA
ATOM     18  C   UNL     1      45.623   7.058  11.582  0.00  0.00    +0.000 C 
ATOM     19  N   UNL     1      46.987   6.991  11.610  0.00  0.00    +0.000 N 
ATOM     20  H   UNL     1      47.439   6.085  11.622  0.00  0.00    +0.000 HD
BRANCH  18  21
ATOM     21  C   UNL     1      44.943   5.765  11.651  0.00  0.00    +0.000 A 
ATOM     22  C   UNL     1      44.244   5.373  12.783  0.00  0.00    +0.000 A 
ATOM     23  S   UNL     1      43.544   3.821  12.636  0.00  0.00    +0.000 S 
ATOM     24  C   UNL     1      44.168   3.621  11.063  0.00  0.00    +0.000 A 
ATOM     25  N   UNL     1      43.940   2.484  10.354  0.00  0.00    +0.000 NA
ATOM     26  C   UNL     1      44.457   2.484   9.167  0.00  0.00    +0.000 A 
ATOM     27  N   UNL     1      45.179   3.517   8.628  0.00  0.00    +0.000 N 
ATOM     28  C   UNL     1      45.474   4.663   9.319  0.00  0.00    +0.000 A 
ATOM     29  O   UNL     1      46.147   5.546   8.804  0.00  0.00    +0.000 OA
ATOM     30  C   UNL     1      44.889   4.725  10.652  0.00  0.00    +0.000 A 
ATOM     31  H   UNL     1      45.553   3.461   7.694  0.00  0.00    +0.000 HD
ENDBRANCH  18  21
ENDBRANCH   1  19
TORSDOF 7
ENDMDL
MODEL 6
REMARK VINA RESULT:    -6.984      2.176      3.796
REMARK INTER + INTRA:         -11.027
REMARK INTER:                 -10.008
REMARK INTRA:                  -1.020
REMARK UNBOUND:                -1.185
REMARK  Name = 
REMARK  7 active torsions:
REMARK  status: ('A' for Active; 'I' for Inactive)
REMARK    1  A    between atoms: C_2  and  C_20
REMARK    2  A    between atoms: N_3  and  C_4
REMARK    3  A    between atoms: C_4  and  C_5
REMARK    4  A    between atoms: C_8  and  C_9
REMARK    5  A    between atoms: C_9  and  O_10
REMARK    6  A    between atoms: O_10  and  C_11
REMARK    7  A    between atoms: C_11  and  C_12
REMARK                            x       y       z     vdW  Elec       q    Type
REMARK                         _______ _______ _______ _____ _____    ______ ____
ROOT
ATOM      1  C   UNL     1      47.521   4.690  15.020  0.00  0.00    +0.000 C 
ENDROOT
BRANCH   1   2
ATOM      2  C   UNL     1      46.346   4.737  14.038  0.00  0.00    +0.000 C 
ATOM      3  C   UNL     1      46.193   3.417  13.261  0.00  0.00    +0.000 C 
ATOM      4  C   UNL     1      45.061   3.485  12.241  0.00  0.00    +0.000 C 
ATOM      5  C   UNL     1      45.260   4.659  11.279  0.00  0.00    +0.000 C 
ATOM      6  C   UNL     1      45.397   5.980  12.051  0.00  0.00    +0.000 C 
ATOM      7  C   UNL     1      46.516   5.922  13.082  0.00  0.00    +0.000 C 
BRANCH   5   8
ATOM      8  C   UNL     1      44.106   4.728  10.281  0.00  0.00    +0.000 C 
BRANCH   8   9
ATOM      9  O   UNL     1      44.581   4.319   9.004  0.00  0.00    +0.000 OA
BRANCH   9  10
ATOM     10  C   UNL     1      44.540   2.903   8.862  0.00  0.00    +0.000 C 
BRANCH  10  11
ATOM     11  C   UNL     1      45.751   2.432   8.108  0.00  0.00    +0.000 A 
ATOM     12  C   UNL     1      46.559   3.316   7.385  0.00  0.00    +0.000 A 
ATOM     13  C   UNL     1      47.680   2.825   6.743  0.00  0.00    +0.000 A 
ATOM     14  N   UNL     1      48.060   1.528   6.780  0.00  0.00    +0.000 NA
ATOM     15  C   UNL     1      47.272   0.692   7.488  0.00  0.00    +0.000 A 
ATOM     16  C   UNL     1      46.130   1.088   8.163  0.00  0.00    +0.000 A 
ENDBRANCH  10  11
ENDBRANCH   9  10
ENDBRANCH   8   9
ENDBRANCH   5   8
ENDBRANCH   1   2
BRANCH   1  19
ATOM     17  O   UNL     1      49.131   5.467  17.242  0.00  0.00    +0.000 OA
ATOM     18  C   UNL     1      48.670   6.323  16.489  0.00  0.00    +0.000 C 
ATOM     19  N   UNL     1      47.951   6.023  15.366  0.00  0.00    +0.000 N 
ATOM     20  H   UNL     1      47.671   6.770  14.742  0.00  0.00    +0.000 HD
BRANCH  18  21
ATOM     21  C   UNL     1      48.896   7.751  16.710  0.00  0.00    +0.000 A 
ATOM     22  C   UNL     1      48.589   8.356  17.919  0.00  0.00    +0.000 A 
ATOM     23  S   UNL     1      48.930  10.031  17.938  0.00  0.00    +0.000 S 
ATOM     24  C   UNL     1      49.482   9.999  16.325  0.00  0.00    +0.000 A 
ATOM     25  N   UNL     1      49.922  11.127  15.710  0.00  0.00    +0.000 NA
ATOM     26  C   UNL     1      50.331  10.946  14.495  0.00  0.00    +0.000 A 
ATOM     27  N   UNL     1      50.339   9.740  13.844  0.00  0.00    +0.000 N 
ATOM     28  C   UNL     1      49.864   8.584  14.406  0.00  0.00    +0.000 A 
ATOM     29  O   UNL     1      49.866   7.537  13.774  0.00  0.00    +0.000 OA
ATOM     30  C   UNL     1      49.419   8.730  15.785  0.00  0.00    +0.000 A 
ATOM     31  H   UNL     1      50.675   9.659  12.897  0.00  0.00    +0.000 HD
ENDBRANCH  18  21
ENDBRANCH   1  19
TORSDOF 7
ENDMDL
MODEL 7
REMARK VINA RESULT:    -6.919      2.143      2.810
REMARK INTER + INTRA:         -10.936
REMARK INTER:                 -10.095
REMARK INTRA:                  -0.841
REMARK UNBOUND:                -1.185
REMARK  Name = 
REMARK  7 active torsions:
REMARK  status: ('A' for Active; 'I' for Inactive)
REMARK    1  A    between atoms: C_2  and  C_20
REMARK    2  A    between atoms: N_3  and  C_4
REMARK    3  A    between atoms: C_4  and  C_5
REMARK    4  A    between atoms: C_8  and  C_9
REMARK    5  A    between atoms: C_9  and  O_10
REMARK    6  A    between atoms: O_10  and  C_11
REMARK    7  A    between atoms: C_11  and  C_12
REMARK                            x       y       z     vdW  Elec       q    Type
REMARK                         _______ _______ _______ _____ _____    ______ ____
ROOT
ATOM      1  C   UNL     1      47.797   7.677  14.244  0.00  0.00    +0.000 C 
ENDROOT
BRANCH   1   2
ATOM      2  C   UNL     1      47.170   6.873  13.100  0.00  0.00    +0.000 C 
ATOM      3  C   UNL     1      46.030   7.645  12.412  0.00  0.00    +0.000 C 
ATOM      4  C   UNL     1      45.366   6.822  11.313  0.00  0.00    +0.000 C 
ATOM      5  C   UNL     1      44.861   5.485  11.861  0.00  0.00    +0.000 C 
ATOM      6  C   UNL     1      46.000   4.704  12.534  0.00  0.00    +0.000 C 
ATOM      7  C   UNL     1      46.681   5.520  13.625  0.00  0.00    +0.000 C 
BRANCH   5   8
ATOM      8  C   UNL     1      44.222   4.661  10.744  0.00  0.00    +0.000 C 
BRANCH   8   9
ATOM      9  O   UNL     1      45.199   4.420   9.739  0.00  0.00    +0.000 OA
BRANCH   9  10
ATOM     10  C   UNL     1      44.680   3.608   8.691  0.00  0.00    +0.000 C 
BRANCH  10  11
ATOM     11  C   UNL     1      45.794   2.829   8.051  0.00  0.00    +0.000 A 
ATOM     12  C   UNL     1      45.952   1.455   8.268  0.00  0.00    +0.000 A 
ATOM     13  C   UNL     1      46.976   0.789   7.621  0.00  0.00    +0.000 A 
ATOM     14  N   UNL     1      47.840   1.386   6.768  0.00  0.00    +0.000 NA
ATOM     15  C   UNL     1      47.667   2.709   6.567  0.00  0.00    +0.000 A 
ATOM     16  C   UNL     1      46.674   3.463   7.170  0.00  0.00    +0.000 A 
ENDBRANCH  10  11
ENDBRANCH   9  10
ENDBRANCH   8   9
ENDBRANCH   5   8
ENDBRANCH   1   2
BRANCH   1  19
ATOM     17  O   UNL     1      48.339   8.392  16.951  0.00  0.00    +0.000 OA
ATOM     18  C   UNL     1      48.520   7.235  16.573  0.00  0.00    +0.000 C 
ATOM     19  N   UNL     1      48.214   6.803  15.313  0.00  0.00    +0.000 N 
ATOM     20  H   UNL     1      48.307   5.820  15.090  0.00  0.00    +0.000 HD
BRANCH  18  21
ATOM     21  C   UNL     1      49.037   6.201  17.469  0.00  0.00    +0.000 A 
ATOM     22  C   UNL     1      48.228   5.593  18.418  0.00  0.00    +0.000 A 
ATOM     23  S   UNL     1      49.053   4.424  19.353  0.00  0.00    +0.000 S 
ATOM     24  C   UNL     1      50.517   4.708  18.528  0.00  0.00    +0.000 A 
ATOM     25  N   UNL     1      51.649   4.028  18.849  0.00  0.00    +0.000 NA
ATOM     26  C   UNL     1      52.677   4.332  18.123  0.00  0.00    +0.000 A 
ATOM     27  N   UNL     1      52.673   5.253  17.109  0.00  0.00    +0.000 N 
ATOM     28  C   UNL     1      51.570   5.997  16.778  0.00  0.00    +0.000 A 
ATOM     29  O   UNL     1      51.624   6.828  15.882  0.00  0.00    +0.000 OA
ATOM     30  C   UNL     1      50.377   5.670  17.548  0.00  0.00    +0.000 A 
ATOM     31  H   UNL     1      53.505   5.445  16.573  0.00  0.00    +0.000 HD
ENDBRANCH  18  21
ENDBRANCH   1  19
TORSDOF 7
ENDMDL
MODEL 8
REMARK VINA RESULT:    -6.590      3.255      4.387
REMARK INTER + INTRA:         -10.472
REMARK INTER:                  -9.426
REMARK INTRA:                  -1.046
REMARK UNBOUND:                -1.185
REMARK  Name = 
REMARK  7 active torsions:
REMARK  status: ('A' for Active; 'I' for Inactive)
REMARK    1  A    between atoms: C_2  and  C_20
REMARK    2  A    between atoms: N_3  and  C_4
REMARK    3  A    between atoms: C_4  and  C_5
REMARK    4  A    between atoms: C_8  and  C_9
REMARK    5  A    between atoms: C_9  and  O_10
REMARK    6  A    between atoms: O_10  and  C_11
REMARK    7  A    between atoms: C_11  and  C_12
REMARK                            x       y       z     vdW  Elec       q    Type
REMARK                         _______ _______ _______ _____ _____    ______ ____
ROOT
ATOM      1  C   UNL     1      46.216   8.104  12.747  0.00  0.00    +0.000 C 
ENDROOT
BRANCH   1   2
ATOM      2  C   UNL     1      45.843   6.759  12.115  0.00  0.00    +0.000 C 
ATOM      3  C   UNL     1      44.462   6.804  11.438  0.00  0.00    +0.000 C 
ATOM      4  C   UNL     1      44.065   5.450  10.862  0.00  0.00    +0.000 C 
ATOM      5  C   UNL     1      44.102   4.364  11.940  0.00  0.00    +0.000 C 
ATOM      6  C   UNL     1      45.485   4.304  12.608  0.00  0.00    +0.000 C 
ATOM      7  C   UNL     1      45.900   5.655  13.176  0.00  0.00    +0.000 C 
BRANCH   5   8
ATOM      8  C   UNL     1      43.727   3.009  11.343  0.00  0.00    +0.000 C 
BRANCH   8   9
ATOM      9  O   UNL     1      44.827   2.526  10.580  0.00  0.00    +0.000 OA
BRANCH   9  10
ATOM     10  C   UNL     1      44.429   2.172   9.260  0.00  0.00    +0.000 C 
BRANCH  10  11
ATOM     11  C   UNL     1      45.592   2.327   8.320  0.00  0.00    +0.000 A 
ATOM     12  C   UNL     1      45.949   3.571   7.790  0.00  0.00    +0.000 A 
ATOM     13  C   UNL     1      47.052   3.653   6.960  0.00  0.00    +0.000 A 
ATOM     14  N   UNL     1      47.826   2.594   6.633  0.00  0.00    +0.000 NA
ATOM     15  C   UNL     1      47.469   1.403   7.159  0.00  0.00    +0.000 A 
ATOM     16  C   UNL     1      46.383   1.221   7.998  0.00  0.00    +0.000 A 
ENDBRANCH  10  11
ENDBRANCH   9  10
ENDBRANCH   8   9
ENDBRANCH   5   8
ENDBRANCH   1   2
BRANCH   1  19
ATOM     17  O   UNL     1      47.455  10.669  12.604  0.00  0.00    +0.000 OA
ATOM     18  C   UNL     1      48.125   9.653  12.426  0.00  0.00    +0.000 C 
ATOM     19  N   UNL     1      47.617   8.390  12.550  0.00  0.00    +0.000 N 
ATOM     20  H   UNL     1      48.239   7.595  12.474  0.00  0.00    +0.000 HD
BRANCH  18  21
ATOM     21  C   UNL     1      49.552   9.712  12.112  0.00  0.00    +0.000 A 
ATOM     22  C   UNL     1      50.024  10.413  11.013  0.00  0.00    +0.000 A 
ATOM     23  S   UNL     1      51.723  10.330  10.843  0.00  0.00    +0.000 S 
ATOM     24  C   UNL     1      51.874   9.342  12.224  0.00  0.00    +0.000 A 
ATOM     25  N   UNL     1      53.089   8.896  12.640  0.00  0.00    +0.000 NA
ATOM     26  C   UNL     1      53.051   8.175  13.715  0.00  0.00    +0.000 A 
ATOM     27  N   UNL     1      51.910   7.861  14.407  0.00  0.00    +0.000 N 
ATOM     28  C   UNL     1      50.660   8.248  14.001  0.00  0.00    +0.000 A 
ATOM     29  O   UNL     1      49.668   7.919  14.638  0.00  0.00    +0.000 OA
ATOM     30  C   UNL     1      50.651   9.089  12.811  0.00  0.00    +0.000 A 
ATOM     31  H   UNL     1      51.944   7.298  15.242  0.00  0.00    +0.000 HD
ENDBRANCH  18  21
ENDBRANCH   1  19
TORSDOF 7
ENDMDL
MODEL 9
REMARK VINA RESULT:    -6.572      4.495      8.843
REMARK INTER + INTRA:         -10.446
REMARK INTER:                  -9.310
REMARK INTRA:                  -1.136
REMARK UNBOUND:                -1.185
REMARK  Name = 
REMARK  7 active torsions:
REMARK  status: ('A' for Active; 'I' for Inactive)
REMARK    1  A    between atoms: C_2  and  C_20
REMARK    2  A    between atoms: N_3  and  C_4
REMARK    3  A    between atoms: C_4  and  C_5
REMARK    4  A    between atoms: C_8  and  C_9
REMARK    5  A    between atoms: C_9  and  O_10
REMARK    6  A    between atoms: O_10  and  C_11
REMARK    7  A    between atoms: C_11  and  C_12
REMARK                            x       y       z     vdW  Elec       q    Type
REMARK                         _______ _______ _______ _____ _____    ______ ____
ROOT
ATOM      1  C   UNL     1      47.156   3.424  17.074  0.00  0.00    +0.000 C 
ENDROOT
BRANCH   1   2
ATOM      2  C   UNL     1      48.520   3.752  17.690  0.00  0.00    +0.000 C 
ATOM      3  C   UNL     1      48.949   5.201  17.400  0.00  0.00    +0.000 C 
ATOM      4  C   UNL     1      50.333   5.509  17.961  0.00  0.00    +0.000 C 
ATOM      5  C   UNL     1      51.372   4.520  17.426  0.00  0.00    +0.000 C 
ATOM      6  C   UNL     1      50.955   3.073  17.728  0.00  0.00    +0.000 C 
ATOM      7  C   UNL     1      49.568   2.756  17.185  0.00  0.00    +0.000 C 
BRANCH   5   8
ATOM      8  C   UNL     1      52.748   4.826  18.017  0.00  0.00    +0.000 C 
BRANCH   8   9
ATOM      9  O   UNL     1      53.302   3.620  18.529  0.00  0.00    +0.000 OA
BRANCH   9  10
ATOM     10  C   UNL     1      54.598   3.373  17.992  0.00  0.00    +0.000 C 
BRANCH  10  11
ATOM     11  C   UNL     1      54.687   1.953  17.512  0.00  0.00    +0.000 A 
ATOM     12  C   UNL     1      55.446   1.601  16.390  0.00  0.00    +0.000 A 
ATOM     13  C   UNL     1      55.517   0.270  16.021  0.00  0.00    +0.000 A 
ATOM     14  N   UNL     1      54.902  -0.730  16.692  0.00  0.00    +0.000 NA
ATOM     15  C   UNL     1      54.180  -0.371  17.775  0.00  0.00    +0.000 A 
ATOM     16  C   UNL     1      54.048   0.932  18.222  0.00  0.00    +0.000 A 
ENDBRANCH  10  11
ENDBRANCH   9  10
ENDBRANCH   8   9
ENDBRANCH   5   8
ENDBRANCH   1   2
BRANCH   1  19
ATOM     17  O   UNL     1      47.402   3.005  14.263  0.00  0.00    +0.000 OA
ATOM     18  C   UNL     1      47.044   4.101  14.692  0.00  0.00    +0.000 C 
ATOM     19  N   UNL     1      46.835   4.354  16.018  0.00  0.00    +0.000 N 
ATOM     20  H   UNL     1      46.460   5.252  16.299  0.00  0.00    +0.000 HD
BRANCH  18  21
ATOM     21  C   UNL     1      46.761   5.226  13.800  0.00  0.00    +0.000 A 
ATOM     22  C   UNL     1      47.674   6.254  13.618  0.00  0.00    +0.000 A 
ATOM     23  S   UNL     1      47.120   7.460  12.541  0.00  0.00    +0.000 S 
ATOM     24  C   UNL     1      45.639   6.652  12.301  0.00  0.00    +0.000 A 
ATOM     25  N   UNL     1      44.684   7.162  11.480  0.00  0.00    +0.000 NA
ATOM     26  C   UNL     1      43.622   6.428  11.377  0.00  0.00    +0.000 A 
ATOM     27  N   UNL     1      43.432   5.233  12.021  0.00  0.00    +0.000 N 
ATOM     28  C   UNL     1      44.345   4.700  12.893  0.00  0.00    +0.000 A 
ATOM     29  O   UNL     1      44.117   3.644  13.466  0.00  0.00    +0.000 OA
ATOM     30  C   UNL     1      45.572   5.475  13.020  0.00  0.00    +0.000 A 
ATOM     31  H   UNL     1      42.584   4.702  11.898  0.00  0.00    +0.000 HD
ENDBRANCH  18  21
ENDBRANCH   1  19
TORSDOF 7
ENDMDL
