MODEL 1
REMARK VINA RESULT:    -6.380      0.000      0.000
REMARK INTER + INTRA:         -12.198
REMARK INTER:                 -10.297
REMARK INTRA:                  -1.901
REMARK UNBOUND:                -1.901
REMARK  Name = 
REMARK  15 active torsions:
REMARK  status: ('A' for Active; 'I' for Inactive)
REMARK    1  A    between atoms: C_1  and  O_2
REMARK    2  A    between atoms: O_2  and  C_3
REMARK    3  A    between atoms: C_10  and  C_11
REMARK    4  A    between atoms: N_13  and  C_14
REMARK    5  A    between atoms: C_14  and  C_15
REMARK    6  A    between atoms: C_18  and  C_19
REMARK    7  A    between atoms: C_19  and  O_20
REMARK    8  A    between atoms: C_19  and  C_21
REMARK    9  A    between atoms: C_21  and  N_22
REMARK   10  A    between atoms: N_22  and  C_23
REMARK   11  A    between atoms: C_27  and  O_29
REMARK   12  A    between atoms: O_29  and  C_30
REMARK   13  A    between atoms: C_30  and  C_31
REMARK   14  A    between atoms: C_30  and  C_32
REMARK   15  A    between atoms: C_30  and  C_33
REMARK                            x       y       z     vdW  Elec       q    Type
REMARK                         _______ _______ _______ _____ _____    ______ ____
ROOT
ATOM      1  C   UNL     1      48.630   3.391  17.317  0.00  0.00    +0.000 A 
ATOM      2  C   UNL     1      49.561   2.408  16.958  0.00  0.00    +0.000 A 
ATOM      3  C   UNL     1      50.910   2.532  17.331  0.00  0.00    +0.000 A 
ATOM      4  C   UNL     1      51.358   3.631  18.083  0.00  0.00    +0.000 A 
ATOM      5  C   UNL     1      50.404   4.603  18.407  0.00  0.00    +0.000 A 
ATOM      6  C   UNL     1      49.066   4.483  18.048  0.00  0.00    +0.000 A 
ENDROOT
BRANCH   1   7
ATOM      7  C   UNL     1      47.167   3.270  17.016  0.00  0.00    +0.000 C 
BRANCH   7  10
ATOM      8  C   UNL     1      46.939   4.136  14.736  0.00  0.00    +0.000 C 
ATOM      9  O   UNL     1      47.415   3.104  14.269  0.00  0.00    +0.000 OA
ATOM     10  N   UNL     1      46.776   4.291  16.079  0.00  0.00    +0.000 N 
ATOM     11  H   UNL     1      46.392   5.150  16.453  0.00  0.00    +0.000 HD
BRANCH   8  19
ATOM     12  C   UNL     1      44.324   4.616  12.536  0.00  0.00    +0.000 A 
ATOM     13  N   UNL     1      43.399   5.092  11.679  0.00  0.00    +0.000 NA
ATOM     14  C   UNL     1      43.540   6.341  11.227  0.00  0.00    +0.000 A 
ATOM     15  N   UNL     1      44.516   7.195  11.524  0.00  0.00    +0.000 NA
ATOM     16  C   UNL     1      45.413   6.687  12.387  0.00  0.00    +0.000 A 
ATOM     17  S   UNL     1      46.730   7.640  12.873  0.00  0.00    +0.000 S 
ATOM     18  C   UNL     1      47.315   6.403  13.880  0.00  0.00    +0.000 A 
ATOM     19  C   UNL     1      46.534   5.253  13.873  0.00  0.00    +0.000 A 
ATOM     20  C   UNL     1      45.403   5.417  12.958  0.00  0.00    +0.000 A 
BRANCH  12  22
ATOM     21  C   UNL     1      43.429   2.480  12.118  0.00  0.00    +0.000 C 
ATOM     22  O   UNL     1      44.200   3.315  12.979  0.00  0.00    +0.000 OA
ENDBRANCH  12  22
ENDBRANCH   8  19
ENDBRANCH   7  10
ENDBRANCH   1   7
BRANCH   4  23
ATOM     23  C   UNL     1      52.832   3.738  18.462  0.00  0.00    +0.000 C 
BRANCH  23  24
ATOM     24  O   UNL     1      53.557   2.723  17.772  0.00  0.00    +0.000 OA
ATOM     25  H   UNL     1      54.274   2.443  18.373  0.00  0.00    +0.000 HD
ENDBRANCH  23  24
BRANCH  23  26
ATOM     26  C   UNL     1      53.529   5.136  18.291  0.00  0.00    +0.000 C 
BRANCH  26  27
ATOM     27  N   UNL     1      53.200   5.856  17.053  0.00  0.00    +0.000 NA
ATOM     28  H   UNL     1      52.475   5.397  16.537  0.00  0.00    +0.000 HD
BRANCH  27  29
ATOM     29  C   UNL     1      52.886   7.286  17.142  0.00  0.00    +0.000 C 
ATOM     30  C   UNL     1      51.415   7.692  17.370  0.00  0.00    +0.000 C 
ATOM     31  C   UNL     1      50.517   7.609  16.136  0.00  0.00    +0.000 C 
ATOM     32  N   UNL     1      51.145   8.222  14.964  0.00  0.00    +0.000 N 
ATOM     33  C   UNL     1      50.424   9.121  14.197  0.00  0.00    +0.000 C 
ATOM     34  O   UNL     1      49.293   9.490  14.492  0.00  0.00    +0.000 OA
ATOM     35  C   UNL     1      52.476   7.745  14.647  0.00  0.00    +0.000 C 
ATOM     36  C   UNL     1      53.410   7.948  15.843  0.00  0.00    +0.000 C 
BRANCH  33  37
ATOM     37  O   UNL     1      51.107   9.551  13.094  0.00  0.00    +0.000 OA
BRANCH  37  38
ATOM     38  C   UNL     1      50.608   9.216  11.761  0.00  0.00    +0.000 C 
ATOM     39  C   UNL     1      49.477  10.167  11.344  0.00  0.00    +0.000 C 
ATOM     40  C   UNL     1      51.788   9.433  10.794  0.00  0.00    +0.000 C 
ATOM     41  C   UNL     1      50.196   7.743  11.668  0.00  0.00    +0.000 C 
ENDBRANCH  37  38
ENDBRANCH  33  37
ENDBRANCH  27  29
ENDBRANCH  26  27
ENDBRANCH  23  26
ENDBRANCH   4  23
TORSDOF 11
ENDMDL
MODEL 2
REMARK VINA RESULT:    -5.864      2.172      2.949
REMARK INTER + INTRA:         -11.364
REMARK INTER:                  -9.739
REMARK INTRA:                  -1.625
REMARK UNBOUND:                -1.901
REMARK  Name = 
REMARK  15 active torsions:
REMARK  status: ('A' for Active; 'I' for Inactive)
REMARK    1  A    between atoms: C_1  and  O_2
REMARK    2  A    between atoms: O_2  and  C_3
REMARK    3  A    between atoms: C_10  and  C_11
REMARK    4  A    between atoms: N_13  and  C_14
REMARK    5  A    between atoms: C_14  and  C_15
REMARK    6  A    between atoms: C_18  and  C_19
REMARK    7  A    between atoms: C_19  and  O_20
REMARK    8  A    between atoms: C_19  and  C_21
REMARK    9  A    between atoms: C_21  and  N_22
REMARK   10  A    between atoms: N_22  and  C_23
REMARK   11  A    between atoms: C_27  and  O_29
REMARK   12  A    between atoms: O_29  and  C_30
REMARK   13  A    between atoms: C_30  and  C_31
REMARK   14  A    between atoms: C_30  and  C_32
REMARK   15  A    between atoms: C_30  and  C_33
REMARK                            x       y       z     vdW  Elec       q    Type
REMARK                         _______ _______ _______ _____ _____    ______ ____
ROOT
ATOM      1  C   UNL     1      48.918   3.158  17.326  0.00  0.00    +0.000 A 
ATOM      2  C   UNL     1      49.809   2.125  17.007  0.00  0.00    +0.000 A 
ATOM      3  C   UNL     1      51.152   2.188  17.415  0.00  0.00    +0.000 A 
ATOM      4  C   UNL     1      51.634   3.276  18.163  0.00  0.00    +0.000 A 
ATOM      5  C   UNL     1      50.720   4.298  18.447  0.00  0.00    +0.000 A 
ATOM      6  C   UNL     1      49.388   4.239  18.053  0.00  0.00    +0.000 A 
ENDROOT
BRANCH   1   7
ATOM      7  C   UNL     1      47.460   3.104  16.986  0.00  0.00    +0.000 C 
BRANCH   7  10
ATOM      8  C   UNL     1      47.170   4.043  14.742  0.00  0.00    +0.000 C 
ATOM      9  O   UNL     1      47.482   2.971  14.226  0.00  0.00    +0.000 OA
ATOM     10  N   UNL     1      47.126   4.186  16.096  0.00  0.00    +0.000 N 
ATOM     11  H   UNL     1      46.877   5.075  16.509  0.00  0.00    +0.000 HD
BRANCH   8  19
ATOM     12  C   UNL     1      44.625   4.764  12.526  0.00  0.00    +0.000 A 
ATOM     13  N   UNL     1      43.741   5.328  11.678  0.00  0.00    +0.000 NA
ATOM     14  C   UNL     1      43.956   6.588  11.290  0.00  0.00    +0.000 A 
ATOM     15  N   UNL     1      44.969   7.373  11.643  0.00  0.00    +0.000 NA
ATOM     16  C   UNL     1      45.822   6.778  12.495  0.00  0.00    +0.000 A 
ATOM     17  S   UNL     1      47.177   7.637  13.047  0.00  0.00    +0.000 S 
ATOM     18  C   UNL     1      47.678   6.325  14.003  0.00  0.00    +0.000 A 
ATOM     19  C   UNL     1      46.839   5.219  13.927  0.00  0.00    +0.000 A 
ATOM     20  C   UNL     1      45.735   5.486  13.004  0.00  0.00    +0.000 A 
BRANCH  12  22
ATOM     21  C   UNL     1      43.431   2.772  12.139  0.00  0.00    +0.000 C 
ATOM     22  O   UNL     1      44.424   3.451  12.904  0.00  0.00    +0.000 OA
ENDBRANCH  12  22
ENDBRANCH   8  19
ENDBRANCH   7  10
ENDBRANCH   1   7
BRANCH   4  23
ATOM     23  C   UNL     1      53.100   3.316  18.581  0.00  0.00    +0.000 C 
BRANCH  23  24
ATOM     24  O   UNL     1      53.905   3.474  17.415  0.00  0.00    +0.000 OA
ATOM     25  H   UNL     1      54.489   4.237  17.587  0.00  0.00    +0.000 HD
ENDBRANCH  23  24
BRANCH  23  26
ATOM     26  C   UNL     1      53.515   4.351  19.689  0.00  0.00    +0.000 C 
BRANCH  26  27
ATOM     27  N   UNL     1      54.347   5.470  19.225  0.00  0.00    +0.000 NA
ATOM     28  H   UNL     1      54.352   5.541  18.226  0.00  0.00    +0.000 HD
BRANCH  27  29
ATOM     29  C   UNL     1      54.106   6.800  19.794  0.00  0.00    +0.000 C 
ATOM     30  C   UNL     1      53.021   6.936  20.883  0.00  0.00    +0.000 C 
ATOM     31  C   UNL     1      51.581   6.933  20.372  0.00  0.00    +0.000 C 
ATOM     32  N   UNL     1      51.408   7.825  19.225  0.00  0.00    +0.000 N 
ATOM     33  C   UNL     1      50.356   8.724  19.213  0.00  0.00    +0.000 C 
ATOM     34  O   UNL     1      49.589   8.862  20.159  0.00  0.00    +0.000 OA
ATOM     35  C   UNL     1      52.329   7.614  18.125  0.00  0.00    +0.000 C 
ATOM     36  C   UNL     1      53.774   7.745  18.613  0.00  0.00    +0.000 C 
BRANCH  33  37
ATOM     37  O   UNL     1      50.272   9.435  18.048  0.00  0.00    +0.000 OA
BRANCH  37  38
ATOM     38  C   UNL     1      49.112   9.258  17.177  0.00  0.00    +0.000 C 
ATOM     39  C   UNL     1      49.486   9.504  15.709  0.00  0.00    +0.000 C 
ATOM     40  C   UNL     1      48.692   7.782  17.316  0.00  0.00    +0.000 C 
ATOM     41  C   UNL     1      47.930  10.122  17.632  0.00  0.00    +0.000 C 
ENDBRANCH  37  38
ENDBRANCH  33  37
ENDBRANCH  27  29
ENDBRANCH  26  27
ENDBRANCH  23  26
ENDBRANCH   4  23
TORSDOF 11
ENDMDL
MODEL 3
REMARK VINA RESULT:    -5.783      2.475      3.944
REMARK INTER + INTRA:         -11.233
REMARK INTER:                  -8.946
REMARK INTRA:                  -2.287
REMARK UNBOUND:                -1.901
REMARK  Name = 
REMARK  15 active torsions:
REMARK  status: ('A' for Active; 'I' for Inactive)
REMARK    1  A    between atoms: C_1  and  O_2
REMARK    2  A    between atoms: O_2  and  C_3
REMARK    3  A    between atoms: C_10  and  C_11
REMARK    4  A    between atoms: N_13  and  C_14
REMARK    5  A    between atoms: C_14  and  C_15
REMARK    6  A    between atoms: C_18  and  C_19
REMARK    7  A    between atoms: C_19  and  O_20
REMARK    8  A    between atoms: C_19  and  C_21
REMARK    9  A    between atoms: C_21  and  N_22
REMARK   10  A    between atoms: N_22  and  C_23
REMARK   11  A    between atoms: C_27  and  O_29
REMARK   12  A    between atoms: O_29  and  C_30
REMARK   13  A    between atoms: C_30  and  C_31
REMARK   14  A    between atoms: C_30  and  C_32
REMARK   15  A    between atoms: C_30  and  C_33
REMARK                            x       y       z     vdW  Elec       q    Type
REMARK                         _______ _______ _______ _____ _____    ______ ____
ROOT
ATOM      1  C   UNL     1      49.058   7.232  16.682  0.00  0.00    +0.000 A 
ATOM      2  C   UNL     1      49.642   5.959  16.698  0.00  0.00    +0.000 A 
ATOM      3  C   UNL     1      49.644   5.188  17.873  0.00  0.00    +0.000 A 
ATOM      4  C   UNL     1      49.051   5.664  19.055  0.00  0.00    +0.000 A 
ATOM      5  C   UNL     1      48.495   6.947  19.007  0.00  0.00    +0.000 A 
ATOM      6  C   UNL     1      48.482   7.712  17.846  0.00  0.00    +0.000 A 
ENDROOT
BRANCH   1   7
ATOM      7  C   UNL     1      48.956   8.062  15.438  0.00  0.00    +0.000 C 
BRANCH   7  10
ATOM      8  C   UNL     1      47.965   6.873  13.540  0.00  0.00    +0.000 C 
ATOM      9  O   UNL     1      49.074   6.502  13.161  0.00  0.00    +0.000 OA
ATOM     10  N   UNL     1      47.823   7.636  14.659  0.00  0.00    +0.000 N 
ATOM     11  H   UNL     1      46.906   7.943  14.957  0.00  0.00    +0.000 HD
BRANCH   8  19
ATOM     12  C   UNL     1      46.238   3.922  13.071  0.00  0.00    +0.000 A 
ATOM     13  N   UNL     1      45.350   2.953  12.770  0.00  0.00    +0.000 NA
ATOM     14  C   UNL     1      44.282   3.280  12.038  0.00  0.00    +0.000 A 
ATOM     15  N   UNL     1      43.982   4.481  11.551  0.00  0.00    +0.000 NA
ATOM     16  C   UNL     1      44.885   5.421  11.879  0.00  0.00    +0.000 A 
ATOM     17  S   UNL     1      44.662   7.013  11.336  0.00  0.00    +0.000 S 
ATOM     18  C   UNL     1      46.077   7.529  12.119  0.00  0.00    +0.000 A 
ATOM     19  C   UNL     1      46.744   6.520  12.804  0.00  0.00    +0.000 A 
ATOM     20  C   UNL     1      46.038   5.248  12.641  0.00  0.00    +0.000 A 
BRANCH  12  22
ATOM     21  C   UNL     1      47.203   3.721  15.208  0.00  0.00    +0.000 C 
ATOM     22  O   UNL     1      47.360   3.581  13.798  0.00  0.00    +0.000 OA
ENDBRANCH  12  22
ENDBRANCH   8  19
ENDBRANCH   7  10
ENDBRANCH   1   7
BRANCH   4  23
ATOM     23  C   UNL     1      49.082   4.804  20.315  0.00  0.00    +0.000 C 
BRANCH  23  24
ATOM     24  O   UNL     1      48.653   3.485  19.980  0.00  0.00    +0.000 OA
ATOM     25  H   UNL     1      48.505   3.024  20.828  0.00  0.00    +0.000 HD
ENDBRANCH  23  24
BRANCH  23  26
ATOM     26  C   UNL     1      50.420   4.764  21.138  0.00  0.00    +0.000 C 
BRANCH  26  27
ATOM     27  N   UNL     1      51.627   4.447  20.362  0.00  0.00    +0.000 NA
ATOM     28  H   UNL     1      51.427   4.354  19.385  0.00  0.00    +0.000 HD
BRANCH  27  29
ATOM     29  C   UNL     1      52.805   5.305  20.526  0.00  0.00    +0.000 C 
ATOM     30  C   UNL     1      52.580   6.826  20.665  0.00  0.00    +0.000 C 
ATOM     31  C   UNL     1      52.271   7.561  19.361  0.00  0.00    +0.000 C 
ATOM     32  N   UNL     1      53.190   7.175  18.288  0.00  0.00    +0.000 N 
ATOM     33  C   UNL     1      53.805   8.158  17.531  0.00  0.00    +0.000 C 
ATOM     34  O   UNL     1      53.672   9.354  17.761  0.00  0.00    +0.000 OA
ATOM     35  C   UNL     1      53.304   5.751  18.044  0.00  0.00    +0.000 C 
ATOM     36  C   UNL     1      53.739   5.029  19.322  0.00  0.00    +0.000 C 
BRANCH  33  37
ATOM     37  O   UNL     1      54.571   7.652  16.518  0.00  0.00    +0.000 OA
BRANCH  37  38
ATOM     38  C   UNL     1      54.175   7.884  15.130  0.00  0.00    +0.000 C 
ATOM     39  C   UNL     1      54.770   9.198  14.603  0.00  0.00    +0.000 C 
ATOM     40  C   UNL     1      54.782   6.729  14.312  0.00  0.00    +0.000 C 
ATOM     41  C   UNL     1      52.653   7.823  14.961  0.00  0.00    +0.000 C 
ENDBRANCH  37  38
ENDBRANCH  33  37
ENDBRANCH  27  29
ENDBRANCH  26  27
ENDBRANCH  23  26
ENDBRANCH   4  23
TORSDOF 11
ENDMDL
MODEL 4
REMARK VINA RESULT:    -5.507      2.630      5.803
REMARK INTER + INTRA:         -10.788
REMARK INTER:                  -8.835
REMARK INTRA:                  -1.952
REMARK UNBOUND:                -1.901
REMARK  Name = 
REMARK  15 active torsions:
REMARK  status: ('A' for Active; 'I' for Inactive)
REMARK    1  A    between atoms: C_1  and  O_2
REMARK    2  A    between atoms: O_2  and  C_3
REMARK    3  A    between atoms: C_10  and  C_11
REMARK    4  A    between atoms: N_13  and  C_14
REMARK    5  A    between atoms: C_14  and  C_15
REMARK    6  A    between atoms: C_18  and  C_19
REMARK    7  A    between atoms: C_19  and  O_20
REMARK    8  A    between atoms: C_19  and  C_21
REMARK    9  A    between atoms: C_21  and  N_22
REMARK   10  A    between atoms: N_22  and  C_23
REMARK   11  A    between atoms: C_27  and  O_29
REMARK   12  A    between atoms: O_29  and  C_30
REMARK   13  A    between atoms: C_30  and  C_31
REMARK   14  A    between atoms: C_30  and  C_32
REMARK   15  A    between atoms: C_30  and  C_33
REMARK                            x       y       z     vdW  Elec       q    Type
REMARK                         _______ _______ _______ _____ _____    ______ ____
ROOT
ATOM      1  C   UNL     1      49.269   8.070  14.114  0.00  0.00    +0.000 A 
ATOM      2  C   UNL     1      50.393   8.549  14.798  0.00  0.00    +0.000 A 
ATOM      3  C   UNL     1      50.247   9.431  15.882  0.00  0.00    +0.000 A 
ATOM      4  C   UNL     1      48.976   9.845  16.317  0.00  0.00    +0.000 A 
ATOM      5  C   UNL     1      47.877   9.361  15.597  0.00  0.00    +0.000 A 
ATOM      6  C   UNL     1      48.013   8.482  14.529  0.00  0.00    +0.000 A 
ENDROOT
BRANCH   1   7
ATOM      7  C   UNL     1      49.361   7.066  13.005  0.00  0.00    +0.000 C 
BRANCH   7  10
ATOM      8  C   UNL     1      47.449   5.560  13.276  0.00  0.00    +0.000 C 
ATOM      9  O   UNL     1      48.015   4.965  14.191  0.00  0.00    +0.000 OA
ATOM     10  N   UNL     1      48.043   6.612  12.647  0.00  0.00    +0.000 N 
ATOM     11  H   UNL     1      47.572   7.087  11.888  0.00  0.00    +0.000 HD
BRANCH   8  19
ATOM     12  C   UNL     1      44.775   7.290  11.949  0.00  0.00    +0.000 A 
ATOM     13  N   UNL     1      43.623   7.688  11.372  0.00  0.00    +0.000 NA
ATOM     14  C   UNL     1      42.701   6.761  11.098  0.00  0.00    +0.000 A 
ATOM     15  N   UNL     1      42.782   5.455  11.339  0.00  0.00    +0.000 NA
ATOM     16  C   UNL     1      43.947   5.098  11.907  0.00  0.00    +0.000 A 
ATOM     17  S   UNL     1      44.219   3.467  12.288  0.00  0.00    +0.000 S 
ATOM     18  C   UNL     1      45.770   3.816  12.886  0.00  0.00    +0.000 A 
ATOM     19  C   UNL     1      46.114   5.160  12.811  0.00  0.00    +0.000 A 
ATOM     20  C   UNL     1      45.009   5.933  12.242  0.00  0.00    +0.000 A 
BRANCH  12  22
ATOM     21  C   UNL     1      45.344   9.573  11.885  0.00  0.00    +0.000 C 
ATOM     22  O   UNL     1      45.715   8.250  12.264  0.00  0.00    +0.000 OA
ENDBRANCH  12  22
ENDBRANCH   8  19
ENDBRANCH   7  10
ENDBRANCH   1   7
BRANCH   4  23
ATOM     23  C   UNL     1      48.856  10.811  17.491  0.00  0.00    +0.000 C 
BRANCH  23  24
ATOM     24  O   UNL     1      47.617  11.508  17.387  0.00  0.00    +0.000 OA
ATOM     25  H   UNL     1      47.627  12.190  18.086  0.00  0.00    +0.000 HD
ENDBRANCH  23  24
BRANCH  23  26
ATOM     26  C   UNL     1      49.050  10.228  18.938  0.00  0.00    +0.000 C 
BRANCH  26  27
ATOM     27  N   UNL     1      48.036   9.252  19.363  0.00  0.00    +0.000 NA
ATOM     28  H   UNL     1      47.370   9.067  18.638  0.00  0.00    +0.000 HD
BRANCH  27  29
ATOM     29  C   UNL     1      48.492   7.976  19.925  0.00  0.00    +0.000 C 
ATOM     30  C   UNL     1      50.012   7.717  19.994  0.00  0.00    +0.000 C 
ATOM     31  C   UNL     1      50.667   7.326  18.670  0.00  0.00    +0.000 C 
ATOM     32  N   UNL     1      49.904   6.293  17.968  0.00  0.00    +0.000 N 
ATOM     33  C   UNL     1      50.559   5.178  17.474  0.00  0.00    +0.000 C 
ATOM     34  O   UNL     1      51.753   4.974  17.657  0.00  0.00    +0.000 OA
ATOM     35  C   UNL     1      48.498   6.585  17.764  0.00  0.00    +0.000 C 
ATOM     36  C   UNL     1      47.813   6.851  19.106  0.00  0.00    +0.000 C 
BRANCH  33  37
ATOM     37  O   UNL     1      49.736   4.339  16.776  0.00  0.00    +0.000 OA
BRANCH  37  38
ATOM     38  C   UNL     1      49.393   3.033  17.338  0.00  0.00    +0.000 C 
ATOM     39  C   UNL     1      48.819   3.178  18.754  0.00  0.00    +0.000 C 
ATOM     40  C   UNL     1      48.286   2.456  16.436  0.00  0.00    +0.000 C 
ATOM     41  C   UNL     1      50.584   2.069  17.286  0.00  0.00    +0.000 C 
ENDBRANCH  37  38
ENDBRANCH  33  37
ENDBRANCH  27  29
ENDBRANCH  26  27
ENDBRANCH  23  26
ENDBRANCH   4  23
TORSDOF 11
ENDMDL
MODEL 5
REMARK VINA RESULT:    -5.473      5.122      9.703
REMARK INTER + INTRA:         -10.734
REMARK INTER:                 -10.397
REMARK INTRA:                  -0.337
REMARK UNBOUND:                -1.901
REMARK  Name = 
REMARK  15 active torsions:
REMARK  status: ('A' for Active; 'I' for Inactive)
REMARK    1  A    between atoms: C_1  and  O_2
REMARK    2  A    between atoms: O_2  and  C_3
REMARK    3  A    between atoms: C_10  and  C_11
REMARK    4  A    between atoms: N_13  and  C_14
REMARK    5  A    between atoms: C_14  and  C_15
REMARK    6  A    between atoms: C_18  and  C_19
REMARK    7  A    between atoms: C_19  and  O_20
REMARK    8  A    between atoms: C_19  and  C_21
REMARK    9  A    between atoms: C_21  and  N_22
REMARK   10  A    between atoms: N_22  and  C_23
REMARK   11  A    between atoms: C_27  and  O_29
REMARK   12  A    between atoms: O_29  and  C_30
REMARK   13  A    between atoms: C_30  and  C_31
REMARK   14  A    between atoms: C_30  and  C_32
REMARK   15  A    between atoms: C_30  and  C_33
REMARK                            x       y       z     vdW  Elec       q    Type
REMARK                         _______ _______ _______ _____ _____    ______ ____
ROOT
ATOM      1  C   UNL     1      50.094   8.828  12.003  0.00  0.00    +0.000 A 
ATOM      2  C   UNL     1      49.284   9.604  12.842  0.00  0.00    +0.000 A 
ATOM      3  C   UNL     1      47.959   9.220  13.111  0.00  0.00    +0.000 A 
ATOM      4  C   UNL     1      47.417   8.046  12.561  0.00  0.00    +0.000 A 
ATOM      5  C   UNL     1      48.249   7.306  11.712  0.00  0.00    +0.000 A 
ATOM      6  C   UNL     1      49.563   7.675  11.447  0.00  0.00    +0.000 A 
ENDROOT
BRANCH   1   7
ATOM      7  C   UNL     1      51.535   9.146  11.746  0.00  0.00    +0.000 C 
BRANCH   7  10
ATOM      8  C   UNL     1      52.584   9.408   9.548  0.00  0.00    +0.000 C 
ATOM      9  O   UNL     1      52.887  10.572   9.803  0.00  0.00    +0.000 OA
ATOM     10  N   UNL     1      51.926   8.637  10.457  0.00  0.00    +0.000 N 
ATOM     11  H   UNL     1      51.673   7.683  10.232  0.00  0.00    +0.000 HD
BRANCH   8  19
ATOM     12  C   UNL     1      53.347   6.192   8.558  0.00  0.00    +0.000 A 
ATOM     13  N   UNL     1      53.612   5.050   7.891  0.00  0.00    +0.000 NA
ATOM     14  C   UNL     1      53.763   5.114   6.565  0.00  0.00    +0.000 A 
ATOM     15  N   UNL     1      53.688   6.200   5.802  0.00  0.00    +0.000 NA
ATOM     16  C   UNL     1      53.415   7.316   6.502  0.00  0.00    +0.000 A 
ATOM     17  S   UNL     1      53.287   8.798   5.685  0.00  0.00    +0.000 S 
ATOM     18  C   UNL     1      52.937   9.618   7.131  0.00  0.00    +0.000 A 
ATOM     19  C   UNL     1      52.909   8.797   8.252  0.00  0.00    +0.000 A 
ATOM     20  C   UNL     1      53.217   7.417   7.876  0.00  0.00    +0.000 A 
BRANCH  12  22
ATOM     21  C   UNL     1      54.166   5.272  10.563  0.00  0.00    +0.000 C 
ATOM     22  O   UNL     1      53.224   6.135   9.931  0.00  0.00    +0.000 OA
ENDBRANCH  12  22
ENDBRANCH   8  19
ENDBRANCH   7  10
ENDBRANCH   1   7
BRANCH   4  23
ATOM     23  C   UNL     1      45.971   7.665  12.867  0.00  0.00    +0.000 C 
BRANCH  23  24
ATOM     24  O   UNL     1      45.124   8.753  12.504  0.00  0.00    +0.000 OA
ATOM     25  H   UNL     1      44.899   9.213  13.336  0.00  0.00    +0.000 HD
ENDBRANCH  23  24
BRANCH  23  26
ATOM     26  C   UNL     1      45.432   6.314  12.271  0.00  0.00    +0.000 C 
BRANCH  26  27
ATOM     27  N   UNL     1      44.170   5.832  12.850  0.00  0.00    +0.000 NA
ATOM     28  H   UNL     1      43.678   6.560  13.331  0.00  0.00    +0.000 HD
BRANCH  27  29
ATOM     29  C   UNL     1      43.230   5.122  11.976  0.00  0.00    +0.000 C 
ATOM     30  C   UNL     1      43.180   3.582  12.066  0.00  0.00    +0.000 C 
ATOM     31  C   UNL     1      44.326   2.851  11.367  0.00  0.00    +0.000 C 
ATOM     32  N   UNL     1      44.569   3.377  10.022  0.00  0.00    +0.000 N 
ATOM     33  C   UNL     1      44.685   2.499   8.958  0.00  0.00    +0.000 C 
ATOM     34  O   UNL     1      44.526   1.290   9.074  0.00  0.00    +0.000 OA
ATOM     35  C   UNL     1      44.764   4.811   9.937  0.00  0.00    +0.000 C 
ATOM     36  C   UNL     1      43.555   5.545  10.522  0.00  0.00    +0.000 C 
BRANCH  33  37
ATOM     37  O   UNL     1      44.987   3.123   7.780  0.00  0.00    +0.000 OA
BRANCH  37  38
ATOM     38  C   UNL     1      46.330   2.991   7.218  0.00  0.00    +0.000 C 
ATOM     39  C   UNL     1      47.007   1.704   7.711  0.00  0.00    +0.000 C 
ATOM     40  C   UNL     1      46.147   2.873   5.693  0.00  0.00    +0.000 C 
ATOM     41  C   UNL     1      47.179   4.238   7.488  0.00  0.00    +0.000 C 
ENDBRANCH  37  38
ENDBRANCH  33  37
ENDBRANCH  27  29
ENDBRANCH  26  27
ENDBRANCH  23  26
ENDBRANCH   4  23
TORSDOF 11
ENDMDL
MODEL 6
REMARK VINA RESULT:    -5.464      5.140      9.836
REMARK INTER + INTRA:         -10.719
REMARK INTER:                  -9.687
REMARK INTRA:                  -1.031
REMARK UNBOUND:                -1.901
REMARK  Name = 
REMARK  15 active torsions:
REMARK  status: ('A' for Active; 'I' for Inactive)
REMARK    1  A    between atoms: C_1  and  O_2
REMARK    2  A    between atoms: O_2  and  C_3
REMARK    3  A    between atoms: C_10  and  C_11
REMARK    4  A    between atoms: N_13  and  C_14
REMARK    5  A    between atoms: C_14  and  C_15
REMARK    6  A    between atoms: C_18  and  C_19
REMARK    7  A    between atoms: C_19  and  O_20
REMARK    8  A    between atoms: C_19  and  C_21
REMARK    9  A    between atoms: C_21  and  N_22
REMARK   10  A    between atoms: N_22  and  C_23
REMARK   11  A    between atoms: C_27  and  O_29
REMARK   12  A    between atoms: O_29  and  C_30
REMARK   13  A    between atoms: C_30  and  C_31
REMARK   14  A    between atoms: C_30  and  C_32
REMARK   15  A    between atoms: C_30  and  C_33
REMARK                            x       y       z     vdW  Elec       q    Type
REMARK                         _______ _______ _______ _____ _____    ______ ____
ROOT
ATOM      1  C   UNL     1      50.789   9.433  11.487  0.00  0.00    +0.000 A 
ATOM      2  C   UNL     1      50.077  10.363  12.255  0.00  0.00    +0.000 A 
ATOM      3  C   UNL     1      48.883   9.994  12.897  0.00  0.00    +0.000 A 
ATOM      4  C   UNL     1      48.380   8.685  12.800  0.00  0.00    +0.000 A 
ATOM      5  C   UNL     1      49.107   7.789  12.009  0.00  0.00    +0.000 A 
ATOM      6  C   UNL     1      50.294   8.144  11.376  0.00  0.00    +0.000 A 
ENDROOT
BRANCH   1   7
ATOM      7  C   UNL     1      52.107   9.750  10.847  0.00  0.00    +0.000 C 
BRANCH   7  10
ATOM      8  C   UNL     1      53.474   8.055   9.726  0.00  0.00    +0.000 C 
ATOM      9  O   UNL     1      54.309   8.096  10.627  0.00  0.00    +0.000 OA
ATOM     10  N   UNL     1      52.357   8.833   9.766  0.00  0.00    +0.000 N 
ATOM     11  H   UNL     1      51.681   8.798   9.013  0.00  0.00    +0.000 HD
BRANCH   8  19
ATOM     12  C   UNL     1      53.850   8.632   6.344  0.00  0.00    +0.000 A 
ATOM     13  N   UNL     1      54.065   8.561   5.015  0.00  0.00    +0.000 NA
ATOM     14  C   UNL     1      54.226   7.354   4.465  0.00  0.00    +0.000 A 
ATOM     15  N   UNL     1      54.193   6.180   5.088  0.00  0.00    +0.000 NA
ATOM     16  C   UNL     1      53.985   6.293   6.411  0.00  0.00    +0.000 A 
ATOM     17  S   UNL     1      53.909   4.890   7.363  0.00  0.00    +0.000 S 
ATOM     18  C   UNL     1      53.671   5.803   8.775  0.00  0.00    +0.000 A 
ATOM     19  C   UNL     1      53.645   7.176   8.561  0.00  0.00    +0.000 A 
ATOM     20  C   UNL     1      53.813   7.468   7.136  0.00  0.00    +0.000 A 
BRANCH  12  22
ATOM     21  C   UNL     1      52.413  10.485   6.548  0.00  0.00    +0.000 C 
ATOM     22  O   UNL     1      53.650   9.875   6.910  0.00  0.00    +0.000 OA
ENDBRANCH  12  22
ENDBRANCH   8  19
ENDBRANCH   7  10
ENDBRANCH   1   7
BRANCH   4  23
ATOM     23  C   UNL     1      47.075   8.323  13.503  0.00  0.00    +0.000 C 
BRANCH  23  24
ATOM     24  O   UNL     1      47.076   8.910  14.802  0.00  0.00    +0.000 OA
ATOM     25  H   UNL     1      46.200   9.329  14.913  0.00  0.00    +0.000 HD
ENDBRANCH  23  24
BRANCH  23  26
ATOM     26  C   UNL     1      45.731   8.634  12.750  0.00  0.00    +0.000 C 
BRANCH  26  27
ATOM     27  N   UNL     1      44.738   7.551  12.763  0.00  0.00    +0.000 NA
ATOM     28  H   UNL     1      43.975   7.752  13.380  0.00  0.00    +0.000 HD
BRANCH  27  29
ATOM     29  C   UNL     1      44.201   7.084  11.481  0.00  0.00    +0.000 C 
ATOM     30  C   UNL     1      43.068   6.036  11.508  0.00  0.00    +0.000 C 
ATOM     31  C   UNL     1      43.512   4.604  11.802  0.00  0.00    +0.000 C 
ATOM     32  N   UNL     1      44.679   4.221  11.005  0.00  0.00    +0.000 N 
ATOM     33  C   UNL     1      44.672   3.018  10.320  0.00  0.00    +0.000 C 
ATOM     34  O   UNL     1      43.697   2.276  10.290  0.00  0.00    +0.000 OA
ATOM     35  C   UNL     1      45.812   5.122  11.082  0.00  0.00    +0.000 C 
ATOM     36  C   UNL     1      45.395   6.534  10.662  0.00  0.00    +0.000 C 
BRANCH  33  37
ATOM     37  O   UNL     1      45.853   2.756   9.685  0.00  0.00    +0.000 OA
BRANCH  37  38
ATOM     38  C   UNL     1      45.901   2.753   8.224  0.00  0.00    +0.000 C 
ATOM     39  C   UNL     1      46.447   1.419   7.696  0.00  0.00    +0.000 C 
ATOM     40  C   UNL     1      44.443   2.888   7.746  0.00  0.00    +0.000 C 
ATOM     41  C   UNL     1      46.680   3.958   7.683  0.00  0.00    +0.000 C 
ENDBRANCH  37  38
ENDBRANCH  33  37
ENDBRANCH  27  29
ENDBRANCH  26  27
ENDBRANCH  23  26
ENDBRANCH   4  23
TORSDOF 11
ENDMDL
MODEL 7
REMARK VINA RESULT:    -5.392      2.552      5.745
REMARK INTER + INTRA:         -10.603
REMARK INTER:                  -7.982
REMARK INTRA:                  -2.621
REMARK UNBOUND:                -1.901
REMARK  Name = 
REMARK  15 active torsions:
REMARK  status: ('A' for Active; 'I' for Inactive)
REMARK    1  A    between atoms: C_1  and  O_2
REMARK    2  A    between atoms: O_2  and  C_3
REMARK    3  A    between atoms: C_10  and  C_11
REMARK    4  A    between atoms: N_13  and  C_14
REMARK    5  A    between atoms: C_14  and  C_15
REMARK    6  A    between atoms: C_18  and  C_19
REMARK    7  A    between atoms: C_19  and  O_20
REMARK    8  A    between atoms: C_19  and  C_21
REMARK    9  A    between atoms: C_21  and  N_22
REMARK   10  A    between atoms: N_22  and  C_23
REMARK   11  A    between atoms: C_27  and  O_29
REMARK   12  A    between atoms: O_29  and  C_30
REMARK   13  A    between atoms: C_30  and  C_31
REMARK   14  A    between atoms: C_30  and  C_32
REMARK   15  A    between atoms: C_30  and  C_33
REMARK                            x       y       z     vdW  Elec       q    Type
REMARK                         _______ _______ _______ _____ _____    ______ ____
ROOT
ATOM      1  C   UNL     1      49.051   9.174  11.844  0.00  0.00    +0.000 A 
ATOM      2  C   UNL     1      49.529   7.895  11.533  0.00  0.00    +0.000 A 
ATOM      3  C   UNL     1      50.911   7.648  11.458  0.00  0.00    +0.000 A 
ATOM      4  C   UNL     1      51.847   8.667  11.704  0.00  0.00    +0.000 A 
ATOM      5  C   UNL     1      51.332   9.937  11.993  0.00  0.00    +0.000 A 
ATOM      6  C   UNL     1      49.967  10.187  12.077  0.00  0.00    +0.000 A 
ENDROOT
BRANCH   1   7
ATOM      7  C   UNL     1      47.593   9.475  12.017  0.00  0.00    +0.000 C 
BRANCH   7  10
ATOM      8  C   UNL     1      45.497   8.216  12.164  0.00  0.00    +0.000 C 
ATOM      9  O   UNL     1      44.897   9.213  12.562  0.00  0.00    +0.000 OA
ATOM     10  N   UNL     1      46.825   8.267  11.865  0.00  0.00    +0.000 N 
ATOM     11  H   UNL     1      47.310   7.438  11.547  0.00  0.00    +0.000 HD
BRANCH   8  19
ATOM     12  C   UNL     1      46.354   4.961  12.923  0.00  0.00    +0.000 A 
ATOM     13  N   UNL     1      46.397   3.633  13.155  0.00  0.00    +0.000 NA
ATOM     14  C   UNL     1      45.336   2.898  12.811  0.00  0.00    +0.000 A 
ATOM     15  N   UNL     1      44.212   3.329  12.245  0.00  0.00    +0.000 NA
ATOM     16  C   UNL     1      44.205   4.658  12.038  0.00  0.00    +0.000 A 
ATOM     17  S   UNL     1      42.847   5.378  11.320  0.00  0.00    +0.000 S 
ATOM     18  C   UNL     1      43.551   6.920  11.424  0.00  0.00    +0.000 A 
ATOM     19  C   UNL     1      44.816   6.925  12.000  0.00  0.00    +0.000 A 
ATOM     20  C   UNL     1      45.216   5.562  12.350  0.00  0.00    +0.000 A 
BRANCH  12  22
ATOM     21  C   UNL     1      47.794   5.700  14.632  0.00  0.00    +0.000 C 
ATOM     22  O   UNL     1      47.462   5.719  13.246  0.00  0.00    +0.000 OA
ENDBRANCH  12  22
ENDBRANCH   8  19
ENDBRANCH   7  10
ENDBRANCH   1   7
BRANCH   4  23
ATOM     23  C   UNL     1      53.338   8.364  11.603  0.00  0.00    +0.000 C 
BRANCH  23  24
ATOM     24  O   UNL     1      53.938   9.305  10.716  0.00  0.00    +0.000 OA
ATOM     25  H   UNL     1      53.446   9.239   9.875  0.00  0.00    +0.000 HD
ENDBRANCH  23  24
BRANCH  23  26
ATOM     26  C   UNL     1      54.153   8.262  12.943  0.00  0.00    +0.000 C 
BRANCH  26  27
ATOM     27  N   UNL     1      53.596   7.347  13.950  0.00  0.00    +0.000 NA
ATOM     28  H   UNL     1      54.102   6.483  13.988  0.00  0.00    +0.000 HD
BRANCH  27  29
ATOM     29  C   UNL     1      53.406   7.848  15.315  0.00  0.00    +0.000 C 
ATOM     30  C   UNL     1      53.358   6.819  16.464  0.00  0.00    +0.000 C 
ATOM     31  C   UNL     1      52.042   6.054  16.600  0.00  0.00    +0.000 C 
ATOM     32  N   UNL     1      50.884   6.946  16.532  0.00  0.00    +0.000 N 
ATOM     33  C   UNL     1      49.888   6.844  17.487  0.00  0.00    +0.000 C 
ATOM     34  O   UNL     1      49.959   6.079  18.442  0.00  0.00    +0.000 OA
ATOM     35  C   UNL     1      50.837   7.822  15.378  0.00  0.00    +0.000 C 
ATOM     36  C   UNL     1      52.101   8.682  15.315  0.00  0.00    +0.000 C 
BRANCH  33  37
ATOM     37  O   UNL     1      48.834   7.683  17.254  0.00  0.00    +0.000 OA
BRANCH  37  38
ATOM     38  C   UNL     1      48.538   8.750  18.208  0.00  0.00    +0.000 C 
ATOM     39  C   UNL     1      49.826   9.289  18.846  0.00  0.00    +0.000 C 
ATOM     40  C   UNL     1      47.902   9.892  17.392  0.00  0.00    +0.000 C 
ATOM     41  C   UNL     1      47.512   8.301  19.255  0.00  0.00    +0.000 C 
ENDBRANCH  37  38
ENDBRANCH  33  37
ENDBRANCH  27  29
ENDBRANCH  26  27
ENDBRANCH  23  26
ENDBRANCH   4  23
TORSDOF 11
ENDMDL
MODEL 8
REMARK VINA RESULT:    -5.389      2.429      6.047
REMARK INTER + INTRA:         -10.598
REMARK INTER:                  -8.319
REMARK INTRA:                  -2.279
REMARK UNBOUND:                -1.901
REMARK  Name = 
REMARK  15 active torsions:
REMARK  status: ('A' for Active; 'I' for Inactive)
REMARK    1  A    between atoms: C_1  and  O_2
REMARK    2  A    between atoms: O_2  and  C_3
REMARK    3  A    between atoms: C_10  and  C_11
REMARK    4  A    between atoms: N_13  and  C_14
REMARK    5  A    between atoms: C_14  and  C_15
REMARK    6  A    between atoms: C_18  and  C_19
REMARK    7  A    between atoms: C_19  and  O_20
REMARK    8  A    between atoms: C_19  and  C_21
REMARK    9  A    between atoms: C_21  and  N_22
REMARK   10  A    between atoms: N_22  and  C_23
REMARK   11  A    between atoms: C_27  and  O_29
REMARK   12  A    between atoms: O_29  and  C_30
REMARK   13  A    between atoms: C_30  and  C_31
REMARK   14  A    between atoms: C_30  and  C_32
REMARK   15  A    between atoms: C_30  and  C_33
REMARK                            x       y       z     vdW  Elec       q    Type
REMARK                         _______ _______ _______ _____ _____    ______ ____
ROOT
ATOM      1  C   UNL     1      49.323   9.569  12.499  0.00  0.00    +0.000 A 
ATOM      2  C   UNL     1      49.790  10.191  13.665  0.00  0.00    +0.000 A 
ATOM      3  C   UNL     1      51.137  10.072  14.046  0.00  0.00    +0.000 A 
ATOM      4  C   UNL     1      52.053   9.343  13.268  0.00  0.00    +0.000 A 
ATOM      5  C   UNL     1      51.546   8.719  12.121  0.00  0.00    +0.000 A 
ATOM      6  C   UNL     1      50.216   8.839  11.733  0.00  0.00    +0.000 A 
ENDROOT
BRANCH   1   7
ATOM      7  C   UNL     1      47.918   9.728  12.003  0.00  0.00    +0.000 C 
BRANCH   7  10
ATOM      8  C   UNL     1      46.000   8.261  12.410  0.00  0.00    +0.000 C 
ATOM      9  O   UNL     1      45.349   9.196  12.870  0.00  0.00    +0.000 OA
ATOM     10  N   UNL     1      47.270   8.444  11.953  0.00  0.00    +0.000 N 
ATOM     11  H   UNL     1      47.799   7.664  11.585  0.00  0.00    +0.000 HD
BRANCH   8  19
ATOM     12  C   UNL     1      47.190   5.153  13.323  0.00  0.00    +0.000 A 
ATOM     13  N   UNL     1      47.369   3.851  13.626  0.00  0.00    +0.000 NA
ATOM     14  C   UNL     1      46.378   2.998  13.355  0.00  0.00    +0.000 A 
ATOM     15  N   UNL     1      45.204   3.285  12.800  0.00  0.00    +0.000 NA
ATOM     16  C   UNL     1      45.061   4.592  12.520  0.00  0.00    +0.000 A 
ATOM     17  S   UNL     1      43.622   5.135  11.803  0.00  0.00    +0.000 S 
ATOM     18  C   UNL     1      44.174   6.742  11.801  0.00  0.00    +0.000 A 
ATOM     19  C   UNL     1      45.445   6.902  12.338  0.00  0.00    +0.000 A 
ATOM     20  C   UNL     1      45.986   5.606  12.751  0.00  0.00    +0.000 A 
BRANCH  12  22
ATOM     21  C   UNL     1      48.269   6.514  14.911  0.00  0.00    +0.000 C 
ATOM     22  O   UNL     1      48.226   6.032  13.570  0.00  0.00    +0.000 OA
ENDBRANCH  12  22
ENDBRANCH   8  19
ENDBRANCH   7  10
ENDBRANCH   1   7
BRANCH   4  23
ATOM     23  C   UNL     1      53.505   9.227  13.718  0.00  0.00    +0.000 C 
BRANCH  23  24
ATOM     24  O   UNL     1      53.746  10.190  14.742  0.00  0.00    +0.000 OA
ATOM     25  H   UNL     1      52.972  10.154  15.338  0.00  0.00    +0.000 HD
ENDBRANCH  23  24
BRANCH  23  26
ATOM     26  C   UNL     1      54.023   7.808  14.153  0.00  0.00    +0.000 C 
BRANCH  26  27
ATOM     27  N   UNL     1      53.100   7.034  14.997  0.00  0.00    +0.000 NA
ATOM     28  H   UNL     1      52.957   6.109  14.640  0.00  0.00    +0.000 HD
BRANCH  27  29
ATOM     29  C   UNL     1      53.376   6.951  16.435  0.00  0.00    +0.000 C 
ATOM     30  C   UNL     1      53.259   5.572  17.117  0.00  0.00    +0.000 C 
ATOM     31  C   UNL     1      51.831   5.105  17.400  0.00  0.00    +0.000 C 
ATOM     32  N   UNL     1      51.025   6.160  18.016  0.00  0.00    +0.000 N 
ATOM     33  C   UNL     1      50.278   5.876  19.146  0.00  0.00    +0.000 C 
ATOM     34  O   UNL     1      50.311   4.788  19.708  0.00  0.00    +0.000 OA
ATOM     35  C   UNL     1      51.006   7.425  17.308  0.00  0.00    +0.000 C 
ATOM     36  C   UNL     1      52.431   7.957  17.137  0.00  0.00    +0.000 C 
BRANCH  33  37
ATOM     37  O   UNL     1      49.517   6.931  19.563  0.00  0.00    +0.000 OA
BRANCH  37  38
ATOM     38  C   UNL     1      48.064   6.879  19.406  0.00  0.00    +0.000 C 
ATOM     39  C   UNL     1      47.652   5.709  18.501  0.00  0.00    +0.000 C 
ATOM     40  C   UNL     1      47.489   6.614  20.811  0.00  0.00    +0.000 C 
ATOM     41  C   UNL     1      47.502   8.220  18.920  0.00  0.00    +0.000 C 
ENDBRANCH  37  38
ENDBRANCH  33  37
ENDBRANCH  27  29
ENDBRANCH  26  27
ENDBRANCH  23  26
ENDBRANCH   4  23
TORSDOF 11
ENDMDL
MODEL 9
REMARK VINA RESULT:    -5.164      3.376      9.356
REMARK INTER + INTRA:         -10.234
REMARK INTER:                  -9.697
REMARK INTRA:                  -0.537
REMARK UNBOUND:                -1.901
REMARK  Name = 
REMARK  15 active torsions:
REMARK  status: ('A' for Active; 'I' for Inactive)
REMARK    1  A    between atoms: C_1  and  O_2
REMARK    2  A    between atoms: O_2  and  C_3
REMARK    3  A    between atoms: C_10  and  C_11
REMARK    4  A    between atoms: N_13  and  C_14
REMARK    5  A    between atoms: C_14  and  C_15
REMARK    6  A    between atoms: C_18  and  C_19
REMARK    7  A    between atoms: C_19  and  O_20
REMARK    8  A    between atoms: C_19  and  C_21
REMARK    9  A    between atoms: C_21  and  N_22
REMARK   10  A    between atoms: N_22  and  C_23
REMARK   11  A    between atoms: C_27  and  O_29
REMARK   12  A    between atoms: O_29  and  C_30
REMARK   13  A    between atoms: C_30  and  C_31
REMARK   14  A    between atoms: C_30  and  C_32
REMARK   15  A    between atoms: C_30  and  C_33
REMARK                            x       y       z     vdW  Elec       q    Type
REMARK                         _______ _______ _______ _____ _____    ______ ____
ROOT
ATOM      1  C   UNL     1      49.477   9.182  11.890  0.00  0.00    +0.000 A 
ATOM      2  C   UNL     1      48.361  10.008  12.077  0.00  0.00    +0.000 A 
ATOM      3  C   UNL     1      47.072   9.456  12.167  0.00  0.00    +0.000 A 
ATOM      4  C   UNL     1      46.867   8.067  12.087  0.00  0.00    +0.000 A 
ATOM      5  C   UNL     1      48.003   7.276  11.880  0.00  0.00    +0.000 A 
ATOM      6  C   UNL     1      49.283   7.814  11.798  0.00  0.00    +0.000 A 
ENDROOT
BRANCH   1   7
ATOM      7  C   UNL     1      50.880   9.709  11.868  0.00  0.00    +0.000 C 
BRANCH   7  10
ATOM      8  C   UNL     1      52.688   8.541  13.036  0.00  0.00    +0.000 C 
ATOM      9  O   UNL     1      53.167   8.162  11.969  0.00  0.00    +0.000 OA
ATOM     10  N   UNL     1      51.568   9.315  13.070  0.00  0.00    +0.000 N 
ATOM     11  H   UNL     1      51.177   9.613  13.954  0.00  0.00    +0.000 HD
BRANCH   8  19
ATOM     12  C   UNL     1      51.480   7.011  15.884  0.00  0.00    +0.000 A 
ATOM     13  N   UNL     1      51.302   6.402  17.073  0.00  0.00    +0.000 NA
ATOM     14  C   UNL     1      52.352   6.297  17.892  0.00  0.00    +0.000 A 
ATOM     15  N   UNL     1      53.586   6.741  17.673  0.00  0.00    +0.000 NA
ATOM     16  C   UNL     1      53.725   7.334  16.474  0.00  0.00    +0.000 A 
ATOM     17  S   UNL     1      55.237   7.964  16.030  0.00  0.00    +0.000 S 
ATOM     18  C   UNL     1      54.637   8.468  14.523  0.00  0.00    +0.000 A 
ATOM     19  C   UNL     1      53.293   8.173  14.323  0.00  0.00    +0.000 A 
ATOM     20  C   UNL     1      52.741   7.511  15.505  0.00  0.00    +0.000 A 
BRANCH  12  22
ATOM     21  C   UNL     1      49.343   7.954  15.590  0.00  0.00    +0.000 C 
ATOM     22  O   UNL     1      50.389   7.151  15.049  0.00  0.00    +0.000 OA
ENDBRANCH  12  22
ENDBRANCH   8  19
ENDBRANCH   7  10
ENDBRANCH   1   7
BRANCH   4  23
ATOM     23  C   UNL     1      45.453   7.505  12.179  0.00  0.00    +0.000 C 
BRANCH  23  24
ATOM     24  O   UNL     1      44.633   8.164  11.216  0.00  0.00    +0.000 OA
ATOM     25  H   UNL     1      43.939   7.525  10.965  0.00  0.00    +0.000 HD
ENDBRANCH  23  24
BRANCH  23  26
ATOM     26  C   UNL     1      45.281   5.945  12.084  0.00  0.00    +0.000 C 
BRANCH  26  27
ATOM     27  N   UNL     1      44.004   5.421  12.590  0.00  0.00    +0.000 NA
ATOM     28  H   UNL     1      43.414   6.152  12.940  0.00  0.00    +0.000 HD
BRANCH  27  29
ATOM     29  C   UNL     1      43.213   4.551  11.713  0.00  0.00    +0.000 C 
ATOM     30  C   UNL     1      43.444   3.028  11.804  0.00  0.00    +0.000 C 
ATOM     31  C   UNL     1      44.707   2.518  11.110  0.00  0.00    +0.000 C 
ATOM     32  N   UNL     1      44.855   3.079   9.766  0.00  0.00    +0.000 N 
ATOM     33  C   UNL     1      45.134   2.237   8.703  0.00  0.00    +0.000 C 
ATOM     34  O   UNL     1      45.197   1.019   8.819  0.00  0.00    +0.000 OA
ATOM     35  C   UNL     1      44.786   4.524   9.680  0.00  0.00    +0.000 C 
ATOM     36  C   UNL     1      43.461   5.026  10.259  0.00  0.00    +0.000 C 
BRANCH  33  37
ATOM     37  O   UNL     1      45.322   2.905   7.526  0.00  0.00    +0.000 OA
BRANCH  37  38
ATOM     38  C   UNL     1      46.628   2.857   6.870  0.00  0.00    +0.000 C 
ATOM     39  C   UNL     1      46.475   2.874   5.342  0.00  0.00    +0.000 C 
ATOM     40  C   UNL     1      47.364   4.145   7.285  0.00  0.00    +0.000 C 
ATOM     41  C   UNL     1      47.460   1.667   7.360  0.00  0.00    +0.000 C 
ENDBRANCH  37  38
ENDBRANCH  33  37
ENDBRANCH  27  29
ENDBRANCH  26  27
ENDBRANCH  23  26
ENDBRANCH   4  23
TORSDOF 11
ENDMDL
