MODEL 1
REMARK VINA RESULT:    -7.344      0.000      0.000
REMARK INTER + INTRA:         -10.868
REMARK INTER:                 -10.134
REMARK INTRA:                  -0.733
REMARK UNBOUND:                -0.733
REMARK  Name = 
REMARK  7 active torsions:
REMARK  status: ('A' for Active; 'I' for Inactive)
REMARK    1  A    between atoms: C_2  and  C_15
REMARK    2  A    between atoms: N_3  and  C_4
REMARK    3  A    between atoms: C_4  and  C_5
REMARK    4  A    between atoms: N_8  and  C_9
REMARK    5  A    between atoms: C_9  and  C_10
REMARK    6  A    between atoms: C_10  and  C_11
REMARK    7  A    between atoms: C_11  and  O_12
REMARK                            x       y       z     vdW  Elec       q    Type
REMARK                         _______ _______ _______ _____ _____    ______ ____
ROOT
ATOM      1  O   UNL     1      47.181   3.273  13.976  0.00  0.00    +0.000 OA
ATOM      2  C   UNL     1      46.844   4.399  14.325  0.00  0.00    +0.000 C 
ATOM      3  N   UNL     1      45.657   4.969  13.933  0.00  0.00    +0.000 N 
ATOM      4  H   UNL     1      45.527   5.965  14.082  0.00  0.00    +0.000 HD
ENDROOT
BRANCH   2   5
ATOM      5  C   UNL     1      47.659   5.200  15.245  0.00  0.00    +0.000 A 
ATOM      6  C   UNL     1      48.347   6.305  14.767  0.00  0.00    +0.000 A 
ATOM      7  S   UNL     1      49.263   7.105  15.963  0.00  0.00    +0.000 S 
ATOM      8  C   UNL     1      48.733   6.030  17.170  0.00  0.00    +0.000 A 
ATOM      9  N   UNL     1      49.129   6.174  18.463  0.00  0.00    +0.000 NA
ATOM     10  C   UNL     1      48.622   5.310  19.278  0.00  0.00    +0.000 A 
ATOM     11  N   UNL     1      47.757   4.308  18.916  0.00  0.00    +0.000 N 
ATOM     12  C   UNL     1      47.378   4.087  17.613  0.00  0.00    +0.000 A 
ATOM     13  O   UNL     1      46.688   3.120  17.309  0.00  0.00    +0.000 OA
ATOM     14  C   UNL     1      47.892   5.055  16.662  0.00  0.00    +0.000 A 
ATOM     15  H   UNL     1      47.418   3.649  19.599  0.00  0.00    +0.000 HD
ENDBRANCH   2   5
BRANCH   3  16
ATOM     16  C   UNL     1      44.757   4.344  12.991  0.00  0.00    +0.000 C 
BRANCH  16  17
ATOM     17  C   UNL     1      44.150   5.382  12.034  0.00  0.00    +0.000 C 
ATOM     18  C   UNL     1      43.166   4.755  11.036  0.00  0.00    +0.000 C 
ATOM     19  C   UNL     1      43.876   3.895   9.992  0.00  0.00    +0.000 C 
ATOM     20  N   UNL     1      44.884   4.680   9.261  0.00  0.00    +0.000 NA
ATOM     21  C   UNL     1      45.890   5.242  10.178  0.00  0.00    +0.000 C 
ATOM     22  C   UNL     1      45.243   6.121  11.254  0.00  0.00    +0.000 C 
BRANCH  20  23
ATOM     23  C   UNL     1      45.539   3.885   8.209  0.00  0.00    +0.000 C 
BRANCH  23  24
ATOM     24  C   UNL     1      45.588   2.378   8.494  0.00  0.00    +0.000 C 
BRANCH  24  25
ATOM     25  C   UNL     1      46.649   1.651   7.676  0.00  0.00    +0.000 C 
BRANCH  25  26
ATOM     26  O   UNL     1      46.620   0.259   7.979  0.00  0.00    +0.000 OA
ATOM     27  H   UNL     1      47.523  -0.085   7.868  0.00  0.00    +0.000 HD
ENDBRANCH  25  26
ENDBRANCH  24  25
ENDBRANCH  23  24
ENDBRANCH  20  23
ENDBRANCH  16  17
ENDBRANCH   3  16
TORSDOF 7
ENDMDL
MODEL 2
REMARK VINA RESULT:    -7.114      3.218      7.654
REMARK INTER + INTRA:         -10.551
REMARK INTER:                  -9.688
REMARK INTRA:                  -0.863
REMARK UNBOUND:                -0.733
REMARK  Name = 
REMARK  7 active torsions:
REMARK  status: ('A' for Active; 'I' for Inactive)
REMARK    1  A    between atoms: C_2  and  C_15
REMARK    2  A    between atoms: N_3  and  C_4
REMARK    3  A    between atoms: C_4  and  C_5
REMARK    4  A    between atoms: N_8  and  C_9
REMARK    5  A    between atoms: C_9  and  C_10
REMARK    6  A    between atoms: C_10  and  C_11
REMARK    7  A    between atoms: C_11  and  O_12
REMARK                            x       y       z     vdW  Elec       q    Type
REMARK                         _______ _______ _______ _____ _____    ______ ____
ROOT
ATOM      1  O   UNL     1      48.833   6.306  13.174  0.00  0.00    +0.000 OA
ATOM      2  C   UNL     1      47.740   6.103  13.690  0.00  0.00    +0.000 C 
ATOM      3  N   UNL     1      47.571   6.003  15.049  0.00  0.00    +0.000 N 
ATOM      4  H   UNL     1      46.693   5.637  15.402  0.00  0.00    +0.000 HD
ENDROOT
BRANCH   2   5
ATOM      5  C   UNL     1      46.513   6.013  12.890  0.00  0.00    +0.000 A 
ATOM      6  C   UNL     1      45.979   7.159  12.320  0.00  0.00    +0.000 A 
ATOM      7  S   UNL     1      44.541   6.878  11.447  0.00  0.00    +0.000 S 
ATOM      8  C   UNL     1      44.609   5.207  11.761  0.00  0.00    +0.000 A 
ATOM      9  N   UNL     1      43.669   4.360  11.263  0.00  0.00    +0.000 NA
ATOM     10  C   UNL     1      43.864   3.116  11.550  0.00  0.00    +0.000 A 
ATOM     11  N   UNL     1      44.913   2.641  12.297  0.00  0.00    +0.000 N 
ATOM     12  C   UNL     1      45.851   3.466  12.870  0.00  0.00    +0.000 A 
ATOM     13  O   UNL     1      46.715   3.019  13.618  0.00  0.00    +0.000 OA
ATOM     14  C   UNL     1      45.697   4.872  12.548  0.00  0.00    +0.000 A 
ATOM     15  H   UNL     1      44.992   1.658  12.506  0.00  0.00    +0.000 HD
ENDBRANCH   2   5
BRANCH   3  16
ATOM     16  C   UNL     1      48.675   6.019  15.982  0.00  0.00    +0.000 C 
BRANCH  16  17
ATOM     17  C   UNL     1      48.283   5.355  17.313  0.00  0.00    +0.000 C 
ATOM     18  C   UNL     1      49.481   5.184  18.257  0.00  0.00    +0.000 C 
ATOM     19  C   UNL     1      50.453   4.113  17.765  0.00  0.00    +0.000 C 
ATOM     20  N   UNL     1      49.770   2.819  17.597  0.00  0.00    +0.000 NA
ATOM     21  C   UNL     1      48.655   2.925  16.642  0.00  0.00    +0.000 C 
ATOM     22  C   UNL     1      47.638   3.985  17.078  0.00  0.00    +0.000 C 
BRANCH  20  23
ATOM     23  C   UNL     1      50.702   1.759  17.180  0.00  0.00    +0.000 C 
BRANCH  23  24
ATOM     24  C   UNL     1      52.132   1.929  17.710  0.00  0.00    +0.000 C 
BRANCH  24  25
ATOM     25  C   UNL     1      52.995   0.690  17.506  0.00  0.00    +0.000 C 
BRANCH  25  26
ATOM     26  O   UNL     1      52.602  -0.327  18.424  0.00  0.00    +0.000 OA
ATOM     27  H   UNL     1      51.654  -0.495  18.288  0.00  0.00    +0.000 HD
ENDBRANCH  25  26
ENDBRANCH  24  25
ENDBRANCH  23  24
ENDBRANCH  20  23
ENDBRANCH  16  17
ENDBRANCH   3  16
TORSDOF 7
ENDMDL
MODEL 3
REMARK VINA RESULT:    -7.010      1.778      2.443
REMARK INTER + INTRA:         -10.407
REMARK INTER:                  -9.614
REMARK INTRA:                  -0.793
REMARK UNBOUND:                -0.733
REMARK  Name = 
REMARK  7 active torsions:
REMARK  status: ('A' for Active; 'I' for Inactive)
REMARK    1  A    between atoms: C_2  and  C_15
REMARK    2  A    between atoms: N_3  and  C_4
REMARK    3  A    between atoms: C_4  and  C_5
REMARK    4  A    between atoms: N_8  and  C_9
REMARK    5  A    between atoms: C_9  and  C_10
REMARK    6  A    between atoms: C_10  and  C_11
REMARK    7  A    between atoms: C_11  and  O_12
REMARK                            x       y       z     vdW  Elec       q    Type
REMARK                         _______ _______ _______ _____ _____    ______ ____
ROOT
ATOM      1  O   UNL     1      47.646   2.842  14.737  0.00  0.00    +0.000 OA
ATOM      2  C   UNL     1      47.200   3.968  14.925  0.00  0.00    +0.000 C 
ATOM      3  N   UNL     1      46.262   4.539  14.100  0.00  0.00    +0.000 N 
ATOM      4  H   UNL     1      46.084   5.534  14.186  0.00  0.00    +0.000 HD
ENDROOT
BRANCH   2   5
ATOM      5  C   UNL     1      47.591   4.770  16.090  0.00  0.00    +0.000 A 
ATOM      6  C   UNL     1      47.183   4.384  17.358  0.00  0.00    +0.000 A 
ATOM      7  S   UNL     1      47.705   5.441  18.591  0.00  0.00    +0.000 S 
ATOM      8  C   UNL     1      48.535   6.423  17.477  0.00  0.00    +0.000 A 
ATOM      9  N   UNL     1      49.239   7.511  17.889  0.00  0.00    +0.000 NA
ATOM     10  C   UNL     1      49.848   8.144  16.942  0.00  0.00    +0.000 A 
ATOM     11  N   UNL     1      49.813   7.790  15.617  0.00  0.00    +0.000 N 
ATOM     12  C   UNL     1      49.067   6.736  15.148  0.00  0.00    +0.000 A 
ATOM     13  O   UNL     1      48.974   6.510  13.946  0.00  0.00    +0.000 OA
ATOM     14  C   UNL     1      48.391   5.969  16.178  0.00  0.00    +0.000 A 
ATOM     15  H   UNL     1      50.292   8.344  14.924  0.00  0.00    +0.000 HD
ENDBRANCH   2   5
BRANCH   3  16
ATOM     16  C   UNL     1      45.801   3.913  12.882  0.00  0.00    +0.000 C 
BRANCH  16  17
ATOM     17  C   UNL     1      44.496   4.559  12.387  0.00  0.00    +0.000 C 
ATOM     18  C   UNL     1      43.572   3.553  11.687  0.00  0.00    +0.000 C 
ATOM     19  C   UNL     1      44.119   3.117  10.330  0.00  0.00    +0.000 C 
ATOM     20  N   UNL     1      44.336   4.279   9.452  0.00  0.00    +0.000 NA
ATOM     21  C   UNL     1      45.275   5.238  10.058  0.00  0.00    +0.000 C 
ATOM     22  C   UNL     1      44.783   5.719  11.427  0.00  0.00    +0.000 C 
BRANCH  20  23
ATOM     23  C   UNL     1      44.808   3.876   8.117  0.00  0.00    +0.000 C 
BRANCH  23  24
ATOM     24  C   UNL     1      45.802   2.707   8.124  0.00  0.00    +0.000 C 
BRANCH  24  25
ATOM     25  C   UNL     1      47.031   2.965   7.259  0.00  0.00    +0.000 C 
BRANCH  25  26
ATOM     26  O   UNL     1      46.786   4.067   6.390  0.00  0.00    +0.000 OA
ATOM     27  H   UNL     1      47.436   4.022   5.669  0.00  0.00    +0.000 HD
ENDBRANCH  25  26
ENDBRANCH  24  25
ENDBRANCH  23  24
ENDBRANCH  20  23
ENDBRANCH  16  17
ENDBRANCH   3  16
TORSDOF 7
ENDMDL
MODEL 4
REMARK VINA RESULT:    -6.654      3.116      4.248
REMARK INTER + INTRA:          -9.916
REMARK INTER:                  -9.364
REMARK INTRA:                  -0.551
REMARK UNBOUND:                -0.733
REMARK  Name = 
REMARK  7 active torsions:
REMARK  status: ('A' for Active; 'I' for Inactive)
REMARK    1  A    between atoms: C_2  and  C_15
REMARK    2  A    between atoms: N_3  and  C_4
REMARK    3  A    between atoms: C_4  and  C_5
REMARK    4  A    between atoms: N_8  and  C_9
REMARK    5  A    between atoms: C_9  and  C_10
REMARK    6  A    between atoms: C_10  and  C_11
REMARK    7  A    between atoms: C_11  and  O_12
REMARK                            x       y       z     vdW  Elec       q    Type
REMARK                         _______ _______ _______ _____ _____    ______ ____
ROOT
ATOM      1  O   UNL     1      46.186   4.492  14.443  0.00  0.00    +0.000 OA
ATOM      2  C   UNL     1      46.417   5.079  13.392  0.00  0.00    +0.000 C 
ATOM      3  N   UNL     1      45.992   4.607  12.173  0.00  0.00    +0.000 N 
ATOM      4  H   UNL     1      46.382   5.021  11.332  0.00  0.00    +0.000 HD
ENDROOT
BRANCH   2   5
ATOM      5  C   UNL     1      47.115   6.369  13.364  0.00  0.00    +0.000 A 
ATOM      6  C   UNL     1      48.411   6.459  13.848  0.00  0.00    +0.000 A 
ATOM      7  S   UNL     1      49.060   8.034  13.763  0.00  0.00    +0.000 S 
ATOM      8  C   UNL     1      47.648   8.640  13.032  0.00  0.00    +0.000 A 
ATOM      9  N   UNL     1      47.552   9.945  12.664  0.00  0.00    +0.000 NA
ATOM     10  C   UNL     1      46.438  10.258  12.089  0.00  0.00    +0.000 A 
ATOM     11  N   UNL     1      45.407   9.384  11.854  0.00  0.00    +0.000 N 
ATOM     12  C   UNL     1      45.436   8.072  12.263  0.00  0.00    +0.000 A 
ATOM     13  O   UNL     1      44.457   7.345  12.131  0.00  0.00    +0.000 OA
ATOM     14  C   UNL     1      46.682   7.660  12.883  0.00  0.00    +0.000 A 
ATOM     15  H   UNL     1      44.553   9.700  11.422  0.00  0.00    +0.000 HD
ENDBRANCH   2   5
BRANCH   3  16
ATOM     16  C   UNL     1      45.336   3.331  12.009  0.00  0.00    +0.000 C 
BRANCH  16  17
ATOM     17  C   UNL     1      44.187   3.426  10.992  0.00  0.00    +0.000 C 
ATOM     18  C   UNL     1      44.182   2.253  10.002  0.00  0.00    +0.000 C 
ATOM     19  C   UNL     1      45.345   2.328   9.014  0.00  0.00    +0.000 C 
ATOM     20  N   UNL     1      45.324   3.599   8.272  0.00  0.00    +0.000 NA
ATOM     21  C   UNL     1      45.398   4.752   9.184  0.00  0.00    +0.000 C 
ATOM     22  C   UNL     1      44.254   4.738  10.204  0.00  0.00    +0.000 C 
BRANCH  20  23
ATOM     23  C   UNL     1      46.402   3.667   7.272  0.00  0.00    +0.000 C 
BRANCH  23  24
ATOM     24  C   UNL     1      46.495   2.439   6.358  0.00  0.00    +0.000 C 
BRANCH  24  25
ATOM     25  C   UNL     1      47.557   2.581   5.274  0.00  0.00    +0.000 C 
BRANCH  25  26
ATOM     26  O   UNL     1      48.695   1.790   5.607  0.00  0.00    +0.000 OA
ATOM     27  H   UNL     1      49.471   2.203   5.192  0.00  0.00    +0.000 HD
ENDBRANCH  25  26
ENDBRANCH  24  25
ENDBRANCH  23  24
ENDBRANCH  20  23
ENDBRANCH  16  17
ENDBRANCH   3  16
TORSDOF 7
ENDMDL
MODEL 5
REMARK VINA RESULT:    -6.434      1.751      2.143
REMARK INTER + INTRA:          -9.612
REMARK INTER:                  -8.854
REMARK INTRA:                  -0.758
REMARK UNBOUND:                -0.733
REMARK  Name = 
REMARK  7 active torsions:
REMARK  status: ('A' for Active; 'I' for Inactive)
REMARK    1  A    between atoms: C_2  and  C_15
REMARK    2  A    between atoms: N_3  and  C_4
REMARK    3  A    between atoms: C_4  and  C_5
REMARK    4  A    between atoms: N_8  and  C_9
REMARK    5  A    between atoms: C_9  and  C_10
REMARK    6  A    between atoms: C_10  and  C_11
REMARK    7  A    between atoms: C_11  and  O_12
REMARK                            x       y       z     vdW  Elec       q    Type
REMARK                         _______ _______ _______ _____ _____    ______ ____
ROOT
ATOM      1  O   UNL     1      49.244   6.633  14.277  0.00  0.00    +0.000 OA
ATOM      2  C   UNL     1      48.441   6.217  15.105  0.00  0.00    +0.000 C 
ATOM      3  N   UNL     1      47.318   5.509  14.753  0.00  0.00    +0.000 N 
ATOM      4  H   UNL     1      46.596   5.369  15.452  0.00  0.00    +0.000 HD
ENDROOT
BRANCH   2   5
ATOM      5  C   UNL     1      48.655   6.392  16.546  0.00  0.00    +0.000 A 
ATOM      6  C   UNL     1      48.846   7.665  17.062  0.00  0.00    +0.000 A 
ATOM      7  S   UNL     1      49.104   7.682  18.749  0.00  0.00    +0.000 S 
ATOM      8  C   UNL     1      48.922   5.994  18.852  0.00  0.00    +0.000 A 
ATOM      9  N   UNL     1      48.998   5.351  20.048  0.00  0.00    +0.000 NA
ATOM     10  C   UNL     1      48.806   4.076  19.984  0.00  0.00    +0.000 A 
ATOM     11  N   UNL     1      48.549   3.381  18.828  0.00  0.00    +0.000 N 
ATOM     12  C   UNL     1      48.523   3.980  17.591  0.00  0.00    +0.000 A 
ATOM     13  O   UNL     1      48.394   3.315  16.568  0.00  0.00    +0.000 OA
ATOM     14  C   UNL     1      48.697   5.420  17.613  0.00  0.00    +0.000 A 
ATOM     15  H   UNL     1      48.433   2.380  18.845  0.00  0.00    +0.000 HD
ENDBRANCH   2   5
BRANCH   3  16
ATOM     16  C   UNL     1      46.926   5.287  13.380  0.00  0.00    +0.000 C 
BRANCH  16  17
ATOM     17  C   UNL     1      45.500   5.800  13.123  0.00  0.00    +0.000 C 
ATOM     18  C   UNL     1      44.476   4.661  13.021  0.00  0.00    +0.000 C 
ATOM     19  C   UNL     1      44.643   3.851  11.737  0.00  0.00    +0.000 C 
ATOM     20  N   UNL     1      44.536   4.715  10.551  0.00  0.00    +0.000 NA
ATOM     21  C   UNL     1      45.550   5.782  10.575  0.00  0.00    +0.000 C 
ATOM     22  C   UNL     1      45.437   6.638  11.841  0.00  0.00    +0.000 C 
BRANCH  20  23
ATOM     23  C   UNL     1      44.636   3.944   9.301  0.00  0.00    +0.000 C 
BRANCH  23  24
ATOM     24  C   UNL     1      45.806   4.353   8.397  0.00  0.00    +0.000 C 
BRANCH  24  25
ATOM     25  C   UNL     1      45.984   3.430   7.197  0.00  0.00    +0.000 C 
BRANCH  25  26
ATOM     26  O   UNL     1      46.794   4.069   6.214  0.00  0.00    +0.000 OA
ATOM     27  H   UNL     1      46.203   4.402   5.517  0.00  0.00    +0.000 HD
ENDBRANCH  25  26
ENDBRANCH  24  25
ENDBRANCH  23  24
ENDBRANCH  20  23
ENDBRANCH  16  17
ENDBRANCH   3  16
TORSDOF 7
ENDMDL
MODEL 6
REMARK VINA RESULT:    -6.211      2.860      7.742
REMARK INTER + INTRA:          -9.304
REMARK INTER:                  -8.745
REMARK INTRA:                  -0.559
REMARK UNBOUND:                -0.733
REMARK  Name = 
REMARK  7 active torsions:
REMARK  status: ('A' for Active; 'I' for Inactive)
REMARK    1  A    between atoms: C_2  and  C_15
REMARK    2  A    between atoms: N_3  and  C_4
REMARK    3  A    between atoms: C_4  and  C_5
REMARK    4  A    between atoms: N_8  and  C_9
REMARK    5  A    between atoms: C_9  and  C_10
REMARK    6  A    between atoms: C_10  and  C_11
REMARK    7  A    between atoms: C_11  and  O_12
REMARK                            x       y       z     vdW  Elec       q    Type
REMARK                         _______ _______ _______ _____ _____    ______ ____
ROOT
ATOM      1  O   UNL     1      44.166   7.547  11.332  0.00  0.00    +0.000 OA
ATOM      2  C   UNL     1      44.803   6.602  11.785  0.00  0.00    +0.000 C 
ATOM      3  N   UNL     1      45.845   6.769  12.665  0.00  0.00    +0.000 N 
ATOM      4  H   UNL     1      46.457   5.978  12.844  0.00  0.00    +0.000 HD
ENDROOT
BRANCH   2   5
ATOM      5  C   UNL     1      44.456   5.212  11.469  0.00  0.00    +0.000 A 
ATOM      6  C   UNL     1      43.662   4.486  12.344  0.00  0.00    +0.000 A 
ATOM      7  S   UNL     1      43.378   2.884  11.834  0.00  0.00    +0.000 S 
ATOM      8  C   UNL     1      44.266   3.121  10.402  0.00  0.00    +0.000 A 
ATOM      9  N   UNL     1      44.394   2.127   9.483  0.00  0.00    +0.000 NA
ATOM     10  C   UNL     1      45.064   2.456   8.429  0.00  0.00    +0.000 A 
ATOM     11  N   UNL     1      45.624   3.690   8.213  0.00  0.00    +0.000 N 
ATOM     12  C   UNL     1      45.571   4.703   9.140  0.00  0.00    +0.000 A 
ATOM     13  O   UNL     1      46.171   5.759   8.960  0.00  0.00    +0.000 OA
ATOM     14  C   UNL     1      44.798   4.396  10.328  0.00  0.00    +0.000 A 
ATOM     15  H   UNL     1      46.157   3.874   7.377  0.00  0.00    +0.000 HD
ENDBRANCH   2   5
BRANCH   3  16
ATOM     16  C   UNL     1      46.353   8.066  13.046  0.00  0.00    +0.000 C 
BRANCH  16  17
ATOM     17  C   UNL     1      47.888   8.102  12.974  0.00  0.00    +0.000 C 
ATOM     18  C   UNL     1      48.503   6.701  12.851  0.00  0.00    +0.000 C 
ATOM     19  C   UNL     1      48.372   5.900  14.144  0.00  0.00    +0.000 C 
ATOM     20  N   UNL     1      48.996   6.613  15.271  0.00  0.00    +0.000 NA
ATOM     21  C   UNL     1      48.384   7.938  15.467  0.00  0.00    +0.000 C 
ATOM     22  C   UNL     1      48.483   8.797  14.203  0.00  0.00    +0.000 C 
BRANCH  20  23
ATOM     23  C   UNL     1      48.933   5.831  16.517  0.00  0.00    +0.000 C 
BRANCH  23  24
ATOM     24  C   UNL     1      48.087   4.555  16.419  0.00  0.00    +0.000 C 
BRANCH  24  25
ATOM     25  C   UNL     1      47.060   4.433  17.539  0.00  0.00    +0.000 C 
BRANCH  25  26
ATOM     26  O   UNL     1      46.597   3.088  17.624  0.00  0.00    +0.000 OA
ATOM     27  H   UNL     1      47.375   2.507  17.575  0.00  0.00    +0.000 HD
ENDBRANCH  25  26
ENDBRANCH  24  25
ENDBRANCH  23  24
ENDBRANCH  20  23
ENDBRANCH  16  17
ENDBRANCH   3  16
TORSDOF 7
ENDMDL
MODEL 7
REMARK VINA RESULT:    -6.197      3.113      8.198
REMARK INTER + INTRA:          -9.285
REMARK INTER:                  -8.457
REMARK INTRA:                  -0.828
REMARK UNBOUND:                -0.733
REMARK  Name = 
REMARK  7 active torsions:
REMARK  status: ('A' for Active; 'I' for Inactive)
REMARK    1  A    between atoms: C_2  and  C_15
REMARK    2  A    between atoms: N_3  and  C_4
REMARK    3  A    between atoms: C_4  and  C_5
REMARK    4  A    between atoms: N_8  and  C_9
REMARK    5  A    between atoms: C_9  and  C_10
REMARK    6  A    between atoms: C_10  and  C_11
REMARK    7  A    between atoms: C_11  and  O_12
REMARK                            x       y       z     vdW  Elec       q    Type
REMARK                         _______ _______ _______ _____ _____    ______ ____
ROOT
ATOM      1  O   UNL     1      47.337   3.325  13.639  0.00  0.00    +0.000 OA
ATOM      2  C   UNL     1      46.769   4.276  14.164  0.00  0.00    +0.000 C 
ATOM      3  N   UNL     1      46.770   4.478  15.523  0.00  0.00    +0.000 N 
ATOM      4  H   UNL     1      46.123   5.157  15.911  0.00  0.00    +0.000 HD
ENDROOT
BRANCH   2   5
ATOM      5  C   UNL     1      46.095   5.309  13.370  0.00  0.00    +0.000 A 
ATOM      6  C   UNL     1      46.746   6.504  13.103  0.00  0.00    +0.000 A 
ATOM      7  S   UNL     1      45.810   7.599  12.190  0.00  0.00    +0.000 S 
ATOM      8  C   UNL     1      44.521   6.495  12.079  0.00  0.00    +0.000 A 
ATOM      9  N   UNL     1      43.390   6.802  11.388  0.00  0.00    +0.000 NA
ATOM     10  C   UNL     1      42.509   5.858  11.358  0.00  0.00    +0.000 A 
ATOM     11  N   UNL     1      42.654   4.634  11.961  0.00  0.00    +0.000 N 
ATOM     12  C   UNL     1      43.751   4.303  12.719  0.00  0.00    +0.000 A 
ATOM     13  O   UNL     1      43.803   3.241  13.331  0.00  0.00    +0.000 OA
ATOM     14  C   UNL     1      44.789   5.318  12.756  0.00  0.00    +0.000 A 
ATOM     15  H   UNL     1      41.915   3.949  11.919  0.00  0.00    +0.000 HD
ENDBRANCH   2   5
BRANCH   3  16
ATOM     16  C   UNL     1      47.342   3.537  16.458  0.00  0.00    +0.000 C 
BRANCH  16  17
ATOM     17  C   UNL     1      47.650   4.212  17.804  0.00  0.00    +0.000 C 
ATOM     18  C   UNL     1      48.289   5.597  17.633  0.00  0.00    +0.000 C 
ATOM     19  C   UNL     1      49.721   5.510  17.109  0.00  0.00    +0.000 C 
ATOM     20  N   UNL     1      50.558   4.688  17.999  0.00  0.00    +0.000 NA
ATOM     21  C   UNL     1      50.016   3.327  18.134  0.00  0.00    +0.000 C 
ATOM     22  C   UNL     1      48.577   3.342  18.660  0.00  0.00    +0.000 C 
BRANCH  20  23
ATOM     23  C   UNL     1      51.957   4.640  17.543  0.00  0.00    +0.000 C 
BRANCH  23  24
ATOM     24  C   UNL     1      52.966   5.234  18.534  0.00  0.00    +0.000 C 
BRANCH  24  25
ATOM     25  C   UNL     1      53.351   4.265  19.646  0.00  0.00    +0.000 C 
BRANCH  25  26
ATOM     26  O   UNL     1      52.265   4.119  20.556  0.00  0.00    +0.000 OA
ATOM     27  H   UNL     1      52.482   3.387  21.158  0.00  0.00    +0.000 HD
ENDBRANCH  25  26
ENDBRANCH  24  25
ENDBRANCH  23  24
ENDBRANCH  20  23
ENDBRANCH  16  17
ENDBRANCH   3  16
TORSDOF 7
ENDMDL
MODEL 8
REMARK VINA RESULT:    -6.189      2.175      2.733
REMARK INTER + INTRA:          -9.274
REMARK INTER:                  -9.252
REMARK INTRA:                  -0.022
REMARK UNBOUND:                -0.733
REMARK  Name = 
REMARK  7 active torsions:
REMARK  status: ('A' for Active; 'I' for Inactive)
REMARK    1  A    between atoms: C_2  and  C_15
REMARK    2  A    between atoms: N_3  and  C_4
REMARK    3  A    between atoms: C_4  and  C_5
REMARK    4  A    between atoms: N_8  and  C_9
REMARK    5  A    between atoms: C_9  and  C_10
REMARK    6  A    between atoms: C_10  and  C_11
REMARK    7  A    between atoms: C_11  and  O_12
REMARK                            x       y       z     vdW  Elec       q    Type
REMARK                         _______ _______ _______ _____ _____    ______ ____
ROOT
ATOM      1  O   UNL     1      46.170   4.381  14.586  0.00  0.00    +0.000 OA
ATOM      2  C   UNL     1      46.417   5.027  13.573  0.00  0.00    +0.000 C 
ATOM      3  N   UNL     1      45.990   4.638  12.327  0.00  0.00    +0.000 N 
ATOM      4  H   UNL     1      46.391   5.095  11.514  0.00  0.00    +0.000 HD
ENDROOT
BRANCH   2   5
ATOM      5  C   UNL     1      47.139   6.303  13.627  0.00  0.00    +0.000 A 
ATOM      6  C   UNL     1      46.856   7.291  12.695  0.00  0.00    +0.000 A 
ATOM      7  S   UNL     1      47.803   8.697  12.888  0.00  0.00    +0.000 S 
ATOM      8  C   UNL     1      48.588   8.052  14.252  0.00  0.00    +0.000 A 
ATOM      9  N   UNL     1      49.520   8.772  14.933  0.00  0.00    +0.000 NA
ATOM     10  C   UNL     1      50.008   8.173  15.968  0.00  0.00    +0.000 A 
ATOM     11  N   UNL     1      49.653   6.914  16.382  0.00  0.00    +0.000 N 
ATOM     12  C   UNL     1      48.762   6.127  15.691  0.00  0.00    +0.000 A 
ATOM     13  O   UNL     1      48.545   4.968  16.030  0.00  0.00    +0.000 OA
ATOM     14  C   UNL     1      48.156   6.768  14.539  0.00  0.00    +0.000 A 
ATOM     15  H   UNL     1      50.092   6.493  17.186  0.00  0.00    +0.000 HD
ENDBRANCH   2   5
BRANCH   3  16
ATOM     16  C   UNL     1      45.311   3.386  12.083  0.00  0.00    +0.000 C 
BRANCH  16  17
ATOM     17  C   UNL     1      44.184   3.560  11.052  0.00  0.00    +0.000 C 
ATOM     18  C   UNL     1      44.127   2.404  10.044  0.00  0.00    +0.000 C 
ATOM     19  C   UNL     1      45.306   2.428   9.074  0.00  0.00    +0.000 C 
ATOM     20  N   UNL     1      45.365   3.709   8.350  0.00  0.00    +0.000 NA
ATOM     21  C   UNL     1      45.491   4.842   9.281  0.00  0.00    +0.000 C 
ATOM     22  C   UNL     1      44.335   4.878  10.285  0.00  0.00    +0.000 C 
BRANCH  20  23
ATOM     23  C   UNL     1      46.460   3.731   7.366  0.00  0.00    +0.000 C 
BRANCH  23  24
ATOM     24  C   UNL     1      46.450   2.553   6.383  0.00  0.00    +0.000 C 
BRANCH  24  25
ATOM     25  C   UNL     1      47.523   2.666   5.305  0.00  0.00    +0.000 C 
BRANCH  25  26
ATOM     26  O   UNL     1      48.607   1.794   5.612  0.00  0.00    +0.000 OA
ATOM     27  H   UNL     1      49.409   2.172   5.213  0.00  0.00    +0.000 HD
ENDBRANCH  25  26
ENDBRANCH  24  25
ENDBRANCH  23  24
ENDBRANCH  20  23
ENDBRANCH  16  17
ENDBRANCH   3  16
TORSDOF 7
ENDMDL
MODEL 9
REMARK VINA RESULT:    -6.182      2.842      8.380
REMARK INTER + INTRA:          -9.265
REMARK INTER:                  -8.193
REMARK INTRA:                  -1.072
REMARK UNBOUND:                -0.733
REMARK  Name = 
REMARK  7 active torsions:
REMARK  status: ('A' for Active; 'I' for Inactive)
REMARK    1  A    between atoms: C_2  and  C_15
REMARK    2  A    between atoms: N_3  and  C_4
REMARK    3  A    between atoms: C_4  and  C_5
REMARK    4  A    between atoms: N_8  and  C_9
REMARK    5  A    between atoms: C_9  and  C_10
REMARK    6  A    between atoms: C_10  and  C_11
REMARK    7  A    between atoms: C_11  and  O_12
REMARK                            x       y       z     vdW  Elec       q    Type
REMARK                         _______ _______ _______ _____ _____    ______ ____
ROOT
ATOM      1  O   UNL     1      49.176   6.635  13.531  0.00  0.00    +0.000 OA
ATOM      2  C   UNL     1      48.098   6.348  14.038  0.00  0.00    +0.000 C 
ATOM      3  N   UNL     1      47.938   6.188  15.393  0.00  0.00    +0.000 N 
ATOM      4  H   UNL     1      47.084   5.757  15.732  0.00  0.00    +0.000 HD
ENDROOT
BRANCH   2   5
ATOM      5  C   UNL     1      46.876   6.214  13.236  0.00  0.00    +0.000 A 
ATOM      6  C   UNL     1      46.303   7.341  12.665  0.00  0.00    +0.000 A 
ATOM      7  S   UNL     1      44.879   7.009  11.788  0.00  0.00    +0.000 S 
ATOM      8  C   UNL     1      45.005   5.341  12.102  0.00  0.00    +0.000 A 
ATOM      9  N   UNL     1      44.098   4.461  11.601  0.00  0.00    +0.000 NA
ATOM     10  C   UNL     1      44.336   3.225  11.888  0.00  0.00    +0.000 A 
ATOM     11  N   UNL     1      45.400   2.788  12.637  0.00  0.00    +0.000 N 
ATOM     12  C   UNL     1      46.306   3.645  13.213  0.00  0.00    +0.000 A 
ATOM     13  O   UNL     1      47.184   3.229  13.962  0.00  0.00    +0.000 OA
ATOM     14  C   UNL     1      46.103   5.045  12.890  0.00  0.00    +0.000 A 
ATOM     15  H   UNL     1      45.514   1.808  12.845  0.00  0.00    +0.000 HD
ENDBRANCH   2   5
BRANCH   3  16
ATOM     16  C   UNL     1      49.040   6.235  16.326  0.00  0.00    +0.000 C 
BRANCH  16  17
ATOM     17  C   UNL     1      49.400   4.827  16.828  0.00  0.00    +0.000 C 
ATOM     18  C   UNL     1      48.198   4.101  17.448  0.00  0.00    +0.000 C 
ATOM     19  C   UNL     1      47.790   4.706  18.790  0.00  0.00    +0.000 C 
ATOM     20  N   UNL     1      48.916   4.691  19.738  0.00  0.00    +0.000 NA
ATOM     21  C   UNL     1      50.068   5.439  19.209  0.00  0.00    +0.000 C 
ATOM     22  C   UNL     1      50.532   4.880  17.860  0.00  0.00    +0.000 C 
BRANCH  20  23
ATOM     23  C   UNL     1      48.527   5.216  21.058  0.00  0.00    +0.000 C 
BRANCH  23  24
ATOM     24  C   UNL     1      47.283   6.114  21.039  0.00  0.00    +0.000 C 
BRANCH  24  25
ATOM     25  C   UNL     1      47.617   7.598  21.137  0.00  0.00    +0.000 C 
BRANCH  25  26
ATOM     26  O   UNL     1      47.707   8.158  19.830  0.00  0.00    +0.000 OA
ATOM     27  H   UNL     1      46.827   8.496  19.594  0.00  0.00    +0.000 HD
ENDBRANCH  25  26
ENDBRANCH  24  25
ENDBRANCH  23  24
ENDBRANCH  20  23
ENDBRANCH  16  17
ENDBRANCH   3  16
TORSDOF 7
ENDMDL
