MODEL 1
REMARK VINA RESULT:    -7.303      0.000      0.000
REMARK INTER + INTRA:         -10.375
REMARK INTER:                  -9.865
REMARK INTRA:                  -0.510
REMARK UNBOUND:                -0.510
REMARK  Name = 
REMARK  7 active torsions:
REMARK  status: ('A' for Active; 'I' for Inactive)
REMARK    1  A    between atoms: N_1  and  C_2
REMARK    2  A    between atoms: C_2  and  C_3
REMARK    3  A    between atoms: C_6  and  C_7
REMARK    4  A    between atoms: C_7  and  S_8
REMARK    5  A    between atoms: S_8  and  C_9
REMARK    6  A    between atoms: C_12  and  C_13
REMARK    7  A    between atoms: C_13  and  O_14
REMARK                            x       y       z     vdW  Elec       q    Type
REMARK                         _______ _______ _______ _____ _____    ______ ____
ROOT
ATOM      1  C   UNL     1      44.120   2.924  10.357  0.00  0.00    +0.000 C 
ENDROOT
BRANCH   1   5
ATOM      2  C   UNL     1      46.604   2.733   6.797  0.00  0.00    +0.000 A 
ATOM      3  C   UNL     1      46.397   1.592   7.587  0.00  0.00    +0.000 A 
ATOM      4  C   UNL     1      45.618   1.657   8.748  0.00  0.00    +0.000 A 
ATOM      5  C   UNL     1      45.024   2.861   9.145  0.00  0.00    +0.000 A 
ATOM      6  C   UNL     1      45.266   4.010   8.378  0.00  0.00    +0.000 A 
ATOM      7  C   UNL     1      46.044   3.946   7.215  0.00  0.00    +0.000 A 
BRANCH   2   8
ATOM      8  C   UNL     1      47.421   2.655   5.531  0.00  0.00    +0.000 C 
BRANCH   8   9
ATOM      9  N   UNL     1      48.579   1.780   5.693  0.00  0.00    +0.000 NA
ATOM     10  H   UNL     1      48.335   1.015   6.318  0.00  0.00    +0.000 HD
ATOM     11  H   UNL     1      49.321   2.304   6.153  0.00  0.00    +0.000 HD
ENDBRANCH   8   9
ENDBRANCH   2   8
ENDBRANCH   1   5
BRANCH   1  12
ATOM     12  S   UNL     1      43.661   4.632  10.801  0.00  0.00    +0.000 S 
BRANCH  12  13
ATOM     13  C   UNL     1      45.079   5.198  11.741  0.00  0.00    +0.000 A 
ATOM     14  C   UNL     1      45.768   6.318  11.258  0.00  0.00    +0.000 A 
ATOM     15  C   UNL     1      46.867   6.848  11.949  0.00  0.00    +0.000 A 
ATOM     16  C   UNL     1      47.297   6.271  13.148  0.00  0.00    +0.000 A 
ATOM     17  C   UNL     1      46.595   5.164  13.644  0.00  0.00    +0.000 A 
ATOM     18  C   UNL     1      45.495   4.636  12.950  0.00  0.00    +0.000 A 
BRANCH  16  19
ATOM     19  C   UNL     1      48.502   6.806  13.877  0.00  0.00    +0.000 C 
BRANCH  19  20
ATOM     20  O   UNL     1      49.661   6.728  13.063  0.00  0.00    +0.000 OA
ATOM     21  H   UNL     1      50.428   6.817  13.655  0.00  0.00    +0.000 HD
ENDBRANCH  19  20
ENDBRANCH  16  19
ENDBRANCH  12  13
ENDBRANCH   1  12
TORSDOF 7
ENDMDL
MODEL 2
REMARK VINA RESULT:    -7.214      0.828      1.795
REMARK INTER + INTRA:         -10.254
REMARK INTER:                  -9.720
REMARK INTRA:                  -0.534
REMARK UNBOUND:                -0.510
REMARK  Name = 
REMARK  7 active torsions:
REMARK  status: ('A' for Active; 'I' for Inactive)
REMARK    1  A    between atoms: N_1  and  C_2
REMARK    2  A    between atoms: C_2  and  C_3
REMARK    3  A    between atoms: C_6  and  C_7
REMARK    4  A    between atoms: C_7  and  S_8
REMARK    5  A    between atoms: S_8  and  C_9
REMARK    6  A    between atoms: C_12  and  C_13
REMARK    7  A    between atoms: C_13  and  O_14
REMARK                            x       y       z     vdW  Elec       q    Type
REMARK                         _______ _______ _______ _____ _____    ______ ____
ROOT
ATOM      1  C   UNL     1      43.756   4.409  10.132  0.00  0.00    +0.000 C 
ENDROOT
BRANCH   1   5
ATOM      2  C   UNL     1      46.624   2.320   7.624  0.00  0.00    +0.000 A 
ATOM      3  C   UNL     1      46.474   3.712   7.533  0.00  0.00    +0.000 A 
ATOM      4  C   UNL     1      45.533   4.385   8.322  0.00  0.00    +0.000 A 
ATOM      5  C   UNL     1      44.723   3.684   9.223  0.00  0.00    +0.000 A 
ATOM      6  C   UNL     1      44.844   2.287   9.283  0.00  0.00    +0.000 A 
ATOM      7  C   UNL     1      45.786   1.614   8.496  0.00  0.00    +0.000 A 
BRANCH   2   8
ATOM      8  C   UNL     1      47.657   1.601   6.794  0.00  0.00    +0.000 C 
BRANCH   8   9
ATOM      9  N   UNL     1      48.634   2.529   6.232  0.00  0.00    +0.000 NA
ATOM     10  H   UNL     1      49.399   1.999   5.817  0.00  0.00    +0.000 HD
ATOM     11  H   UNL     1      49.039   3.076   6.990  0.00  0.00    +0.000 HD
ENDBRANCH   8   9
ENDBRANCH   2   8
ENDBRANCH   1   5
BRANCH   1  12
ATOM     12  S   UNL     1      43.942   3.929  11.881  0.00  0.00    +0.000 S 
BRANCH  12  13
ATOM     13  C   UNL     1      45.364   4.884  12.411  0.00  0.00    +0.000 A 
ATOM     14  C   UNL     1      45.988   4.503  13.606  0.00  0.00    +0.000 A 
ATOM     15  C   UNL     1      47.126   5.174  14.076  0.00  0.00    +0.000 A 
ATOM     16  C   UNL     1      47.672   6.239  13.354  0.00  0.00    +0.000 A 
ATOM     17  C   UNL     1      47.061   6.608  12.148  0.00  0.00    +0.000 A 
ATOM     18  C   UNL     1      45.922   5.934  11.679  0.00  0.00    +0.000 A 
BRANCH  16  19
ATOM     19  C   UNL     1      48.868   6.995  13.871  0.00  0.00    +0.000 C 
BRANCH  19  20
ATOM     20  O   UNL     1      49.955   6.902  12.964  0.00  0.00    +0.000 OA
ATOM     21  H   UNL     1      49.572   6.823  12.073  0.00  0.00    +0.000 HD
ENDBRANCH  19  20
ENDBRANCH  16  19
ENDBRANCH  12  13
ENDBRANCH   1  12
TORSDOF 7
ENDMDL
MODEL 3
REMARK VINA RESULT:    -7.189      3.141      6.520
REMARK INTER + INTRA:         -10.220
REMARK INTER:                  -9.728
REMARK INTRA:                  -0.492
REMARK UNBOUND:                -0.510
REMARK  Name = 
REMARK  7 active torsions:
REMARK  status: ('A' for Active; 'I' for Inactive)
REMARK    1  A    between atoms: N_1  and  C_2
REMARK    2  A    between atoms: C_2  and  C_3
REMARK    3  A    between atoms: C_6  and  C_7
REMARK    4  A    between atoms: C_7  and  S_8
REMARK    5  A    between atoms: S_8  and  C_9
REMARK    6  A    between atoms: C_12  and  C_13
REMARK    7  A    between atoms: C_13  and  O_14
REMARK                            x       y       z     vdW  Elec       q    Type
REMARK                         _______ _______ _______ _____ _____    ______ ____
ROOT
ATOM      1  C   UNL     1      44.195   4.911  10.804  0.00  0.00    +0.000 C 
ENDROOT
BRANCH   1   5
ATOM      2  C   UNL     1      47.443   6.242  13.366  0.00  0.00    +0.000 A 
ATOM      3  C   UNL     1      47.180   6.889  12.149  0.00  0.00    +0.000 A 
ATOM      4  C   UNL     1      46.150   6.447  11.310  0.00  0.00    +0.000 A 
ATOM      5  C   UNL     1      45.356   5.351  11.668  0.00  0.00    +0.000 A 
ATOM      6  C   UNL     1      45.647   4.678  12.865  0.00  0.00    +0.000 A 
ATOM      7  C   UNL     1      46.676   5.121  13.705  0.00  0.00    +0.000 A 
BRANCH   2   8
ATOM      8  C   UNL     1      48.534   6.738  14.281  0.00  0.00    +0.000 C 
BRANCH   8   9
ATOM      9  N   UNL     1      49.780   6.968  13.555  0.00  0.00    +0.000 NA
ATOM     10  H   UNL     1      49.929   6.206  12.896  0.00  0.00    +0.000 HD
ATOM     11  H   UNL     1      50.554   6.934  14.216  0.00  0.00    +0.000 HD
ENDBRANCH   8   9
ENDBRANCH   2   8
ENDBRANCH   1   5
BRANCH   1  12
ATOM     12  S   UNL     1      44.139   3.104  10.572  0.00  0.00    +0.000 S 
BRANCH  12  13
ATOM     13  C   UNL     1      45.122   2.857   9.093  0.00  0.00    +0.000 A 
ATOM     14  C   UNL     1      45.439   3.990   8.333  0.00  0.00    +0.000 A 
ATOM     15  C   UNL     1      46.233   3.892   7.180  0.00  0.00    +0.000 A 
ATOM     16  C   UNL     1      46.735   2.655   6.767  0.00  0.00    +0.000 A 
ATOM     17  C   UNL     1      46.437   1.523   7.539  0.00  0.00    +0.000 A 
ATOM     18  C   UNL     1      45.643   1.625   8.692  0.00  0.00    +0.000 A 
BRANCH  16  19
ATOM     19  C   UNL     1      47.552   2.531   5.507  0.00  0.00    +0.000 C 
BRANCH  19  20
ATOM     20  O   UNL     1      48.633   1.632   5.693  0.00  0.00    +0.000 OA
ATOM     21  H   UNL     1      48.256   0.735   5.694  0.00  0.00    +0.000 HD
ENDBRANCH  19  20
ENDBRANCH  16  19
ENDBRANCH  12  13
ENDBRANCH   1  12
TORSDOF 7
ENDMDL
MODEL 4
REMARK VINA RESULT:    -6.889      3.518      6.634
REMARK INTER + INTRA:          -9.816
REMARK INTER:                  -9.315
REMARK INTRA:                  -0.501
REMARK UNBOUND:                -0.510
REMARK  Name = 
REMARK  7 active torsions:
REMARK  status: ('A' for Active; 'I' for Inactive)
REMARK    1  A    between atoms: N_1  and  C_2
REMARK    2  A    between atoms: C_2  and  C_3
REMARK    3  A    between atoms: C_6  and  C_7
REMARK    4  A    between atoms: C_7  and  S_8
REMARK    5  A    between atoms: S_8  and  C_9
REMARK    6  A    between atoms: C_12  and  C_13
REMARK    7  A    between atoms: C_13  and  O_14
REMARK                            x       y       z     vdW  Elec       q    Type
REMARK                         _______ _______ _______ _____ _____    ______ ____
ROOT
ATOM      1  C   UNL     1      44.674   3.392  11.926  0.00  0.00    +0.000 C 
ENDROOT
BRANCH   1   5
ATOM      2  C   UNL     1      47.029   6.814  13.200  0.00  0.00    +0.000 A 
ATOM      3  C   UNL     1      47.151   5.579  13.852  0.00  0.00    +0.000 A 
ATOM      4  C   UNL     1      46.375   4.481  13.461  0.00  0.00    +0.000 A 
ATOM      5  C   UNL     1      45.463   4.591  12.404  0.00  0.00    +0.000 A 
ATOM      6  C   UNL     1      45.311   5.838  11.780  0.00  0.00    +0.000 A 
ATOM      7  C   UNL     1      46.088   6.935  12.170  0.00  0.00    +0.000 A 
BRANCH   2   8
ATOM      8  C   UNL     1      47.886   7.987  13.606  0.00  0.00    +0.000 C 
BRANCH   8   9
ATOM      9  N   UNL     1      47.205   8.839  14.576  0.00  0.00    +0.000 NA
ATOM     10  H   UNL     1      47.779   8.918  15.413  0.00  0.00    +0.000 HD
ATOM     11  H   UNL     1      46.340   8.382  14.861  0.00  0.00    +0.000 HD
ENDBRANCH   8   9
ENDBRANCH   2   8
ENDBRANCH   1   5
BRANCH   1  12
ATOM     12  S   UNL     1      43.816   3.702  10.347  0.00  0.00    +0.000 S 
BRANCH  12  13
ATOM     13  C   UNL     1      45.059   3.283   9.124  0.00  0.00    +0.000 A 
ATOM     14  C   UNL     1      45.375   1.927   8.964  0.00  0.00    +0.000 A 
ATOM     15  C   UNL     1      46.311   1.509   8.007  0.00  0.00    +0.000 A 
ATOM     16  C   UNL     1      46.947   2.440   7.181  0.00  0.00    +0.000 A 
ATOM     17  C   UNL     1      46.615   3.794   7.325  0.00  0.00    +0.000 A 
ATOM     18  C   UNL     1      45.678   4.210   8.284  0.00  0.00    +0.000 A 
BRANCH  16  19
ATOM     19  C   UNL     1      47.985   2.006   6.178  0.00  0.00    +0.000 C 
BRANCH  19  20
ATOM     20  O   UNL     1      48.047   2.913   5.090  0.00  0.00    +0.000 OA
ATOM     21  H   UNL     1      48.018   2.380   4.277  0.00  0.00    +0.000 HD
ENDBRANCH  19  20
ENDBRANCH  16  19
ENDBRANCH  12  13
ENDBRANCH   1  12
TORSDOF 7
ENDMDL
MODEL 5
REMARK VINA RESULT:    -6.003      1.684      2.004
REMARK INTER + INTRA:          -8.619
REMARK INTER:                  -8.064
REMARK INTRA:                  -0.554
REMARK UNBOUND:                -0.510
REMARK  Name = 
REMARK  7 active torsions:
REMARK  status: ('A' for Active; 'I' for Inactive)
REMARK    1  A    between atoms: N_1  and  C_2
REMARK    2  A    between atoms: C_2  and  C_3
REMARK    3  A    between atoms: C_6  and  C_7
REMARK    4  A    between atoms: C_7  and  S_8
REMARK    5  A    between atoms: S_8  and  C_9
REMARK    6  A    between atoms: C_12  and  C_13
REMARK    7  A    between atoms: C_13  and  O_14
REMARK                            x       y       z     vdW  Elec       q    Type
REMARK                         _______ _______ _______ _____ _____    ______ ____
ROOT
ATOM      1  C   UNL     1      43.930   4.393  11.094  0.00  0.00    +0.000 C 
ENDROOT
BRANCH   1   5
ATOM      2  C   UNL     1      46.218   2.937   7.699  0.00  0.00    +0.000 A 
ATOM      3  C   UNL     1      45.648   2.040   8.615  0.00  0.00    +0.000 A 
ATOM      4  C   UNL     1      44.932   2.507   9.724  0.00  0.00    +0.000 A 
ATOM      5  C   UNL     1      44.764   3.880   9.940  0.00  0.00    +0.000 A 
ATOM      6  C   UNL     1      45.370   4.776   9.047  0.00  0.00    +0.000 A 
ATOM      7  C   UNL     1      46.085   4.310   7.937  0.00  0.00    +0.000 A 
BRANCH   2   8
ATOM      8  C   UNL     1      46.965   2.431   6.490  0.00  0.00    +0.000 C 
BRANCH   8   9
ATOM      9  N   UNL     1      47.731   1.227   6.798  0.00  0.00    +0.000 NA
ATOM     10  H   UNL     1      47.383   0.455   6.233  0.00  0.00    +0.000 HD
ATOM     11  H   UNL     1      47.563   0.973   7.770  0.00  0.00    +0.000 HD
ENDBRANCH   8   9
ENDBRANCH   2   8
ENDBRANCH   1   5
BRANCH   1  12
ATOM     12  S   UNL     1      44.864   4.462  12.658  0.00  0.00    +0.000 S 
BRANCH  12  13
ATOM     13  C   UNL     1      45.762   6.008  12.523  0.00  0.00    +0.000 A 
ATOM     14  C   UNL     1      45.011   7.189  12.480  0.00  0.00    +0.000 A 
ATOM     15  C   UNL     1      45.635   8.443  12.409  0.00  0.00    +0.000 A 
ATOM     16  C   UNL     1      47.028   8.544  12.387  0.00  0.00    +0.000 A 
ATOM     17  C   UNL     1      47.782   7.364  12.452  0.00  0.00    +0.000 A 
ATOM     18  C   UNL     1      47.155   6.109  12.523  0.00  0.00    +0.000 A 
BRANCH  16  19
ATOM     19  C   UNL     1      47.708   9.883  12.268  0.00  0.00    +0.000 C 
BRANCH  19  20
ATOM     20  O   UNL     1      48.862   9.793  11.449  0.00  0.00    +0.000 OA
ATOM     21  H   UNL     1      49.205  10.697  11.344  0.00  0.00    +0.000 HD
ENDBRANCH  19  20
ENDBRANCH  16  19
ENDBRANCH  12  13
ENDBRANCH   1  12
TORSDOF 7
ENDMDL
MODEL 6
REMARK VINA RESULT:    -5.251      3.100      4.532
REMARK INTER + INTRA:          -7.603
REMARK INTER:                  -7.162
REMARK INTRA:                  -0.440
REMARK UNBOUND:                -0.510
REMARK  Name = 
REMARK  7 active torsions:
REMARK  status: ('A' for Active; 'I' for Inactive)
REMARK    1  A    between atoms: N_1  and  C_2
REMARK    2  A    between atoms: C_2  and  C_3
REMARK    3  A    between atoms: C_6  and  C_7
REMARK    4  A    between atoms: C_7  and  S_8
REMARK    5  A    between atoms: S_8  and  C_9
REMARK    6  A    between atoms: C_12  and  C_13
REMARK    7  A    between atoms: C_13  and  O_14
REMARK                            x       y       z     vdW  Elec       q    Type
REMARK                         _______ _______ _______ _____ _____    ______ ____
ROOT
ATOM      1  C   UNL     1      45.772   6.549  12.838  0.00  0.00    +0.000 C 
ENDROOT
BRANCH   1   5
ATOM      2  C   UNL     1      44.794   3.456   9.948  0.00  0.00    +0.000 A 
ATOM      3  C   UNL     1      45.311   4.690   9.527  0.00  0.00    +0.000 A 
ATOM      4  C   UNL     1      45.604   5.698  10.454  0.00  0.00    +0.000 A 
ATOM      5  C   UNL     1      45.390   5.494  11.823  0.00  0.00    +0.000 A 
ATOM      6  C   UNL     1      44.833   4.276  12.238  0.00  0.00    +0.000 A 
ATOM      7  C   UNL     1      44.542   3.267  11.312  0.00  0.00    +0.000 A 
BRANCH   2   8
ATOM      8  C   UNL     1      44.505   2.362   8.950  0.00  0.00    +0.000 C 
BRANCH   8   9
ATOM      9  N   UNL     1      45.612   1.414   8.859  0.00  0.00    +0.000 NA
ATOM     10  H   UNL     1      45.345   0.544   9.314  0.00  0.00    +0.000 HD
ATOM     11  H   UNL     1      46.403   1.784   9.383  0.00  0.00    +0.000 HD
ENDBRANCH   8   9
ENDBRANCH   2   8
ENDBRANCH   1   5
BRANCH   1  12
ATOM     12  S   UNL     1      47.576   6.681  13.067  0.00  0.00    +0.000 S 
BRANCH  12  13
ATOM     13  C   UNL     1      47.845   5.841  14.628  0.00  0.00    +0.000 A 
ATOM     14  C   UNL     1      48.695   6.458  15.556  0.00  0.00    +0.000 A 
ATOM     15  C   UNL     1      48.933   5.887  16.814  0.00  0.00    +0.000 A 
ATOM     16  C   UNL     1      48.319   4.684  17.176  0.00  0.00    +0.000 A 
ATOM     17  C   UNL     1      47.452   4.076  16.258  0.00  0.00    +0.000 A 
ATOM     18  C   UNL     1      47.215   4.651  14.999  0.00  0.00    +0.000 A 
BRANCH  16  19
ATOM     19  C   UNL     1      48.601   4.040  18.508  0.00  0.00    +0.000 C 
BRANCH  19  20
ATOM     20  O   UNL     1      47.714   2.959  18.745  0.00  0.00    +0.000 OA
ATOM     21  H   UNL     1      47.250   2.787  17.907  0.00  0.00    +0.000 HD
ENDBRANCH  19  20
ENDBRANCH  16  19
ENDBRANCH  12  13
ENDBRANCH   1  12
TORSDOF 7
ENDMDL
MODEL 7
REMARK VINA RESULT:    -5.189      3.519      6.412
REMARK INTER + INTRA:          -7.519
REMARK INTER:                  -7.023
REMARK INTRA:                  -0.496
REMARK UNBOUND:                -0.510
REMARK  Name = 
REMARK  7 active torsions:
REMARK  status: ('A' for Active; 'I' for Inactive)
REMARK    1  A    between atoms: N_1  and  C_2
REMARK    2  A    between atoms: C_2  and  C_3
REMARK    3  A    between atoms: C_6  and  C_7
REMARK    4  A    between atoms: C_7  and  S_8
REMARK    5  A    between atoms: S_8  and  C_9
REMARK    6  A    between atoms: C_12  and  C_13
REMARK    7  A    between atoms: C_13  and  O_14
REMARK                            x       y       z     vdW  Elec       q    Type
REMARK                         _______ _______ _______ _____ _____    ______ ____
ROOT
ATOM      1  C   UNL     1      46.420   5.294  13.572  0.00  0.00    +0.000 C 
ENDROOT
BRANCH   1   5
ATOM      2  C   UNL     1      48.336   8.843  11.956  0.00  0.00    +0.000 A 
ATOM      3  C   UNL     1      49.077   7.677  12.197  0.00  0.00    +0.000 A 
ATOM      4  C   UNL     1      48.468   6.540  12.741  0.00  0.00    +0.000 A 
ATOM      5  C   UNL     1      47.103   6.540  13.053  0.00  0.00    +0.000 A 
ATOM      6  C   UNL     1      46.372   7.720  12.851  0.00  0.00    +0.000 A 
ATOM      7  C   UNL     1      46.980   8.857  12.305  0.00  0.00    +0.000 A 
BRANCH   2   8
ATOM      8  C   UNL     1      48.989  10.057  11.343  0.00  0.00    +0.000 C 
BRANCH   8   9
ATOM      9  N   UNL     1      48.040  11.156  11.187  0.00  0.00    +0.000 NA
ATOM     10  H   UNL     1      47.549  11.050  10.302  0.00  0.00    +0.000 HD
ATOM     11  H   UNL     1      48.559  12.030  11.127  0.00  0.00    +0.000 HD
ENDBRANCH   8   9
ENDBRANCH   2   8
ENDBRANCH   1   5
BRANCH   1  12
ATOM     12  S   UNL     1      44.709   5.128  12.965  0.00  0.00    +0.000 S 
BRANCH  12  13
ATOM     13  C   UNL     1      44.932   4.499  11.301  0.00  0.00    +0.000 A 
ATOM     14  C   UNL     1      45.439   5.383  10.339  0.00  0.00    +0.000 A 
ATOM     15  C   UNL     1      45.676   4.964   9.022  0.00  0.00    +0.000 A 
ATOM     16  C   UNL     1      45.418   3.645   8.638  0.00  0.00    +0.000 A 
ATOM     17  C   UNL     1      44.931   2.754   9.604  0.00  0.00    +0.000 A 
ATOM     18  C   UNL     1      44.695   3.176  10.922  0.00  0.00    +0.000 A 
BRANCH  16  19
ATOM     19  C   UNL     1      45.628   3.196   7.216  0.00  0.00    +0.000 C 
BRANCH  19  20
ATOM     20  O   UNL     1      46.954   2.730   7.024  0.00  0.00    +0.000 OA
ATOM     21  H   UNL     1      47.341   2.608   7.909  0.00  0.00    +0.000 HD
ENDBRANCH  19  20
ENDBRANCH  16  19
ENDBRANCH  12  13
ENDBRANCH   1  12
TORSDOF 7
ENDMDL
MODEL 8
REMARK VINA RESULT:    -5.064      4.120      7.253
REMARK INTER + INTRA:          -7.350
REMARK INTER:                  -6.990
REMARK INTRA:                  -0.360
REMARK UNBOUND:                -0.510
REMARK  Name = 
REMARK  7 active torsions:
REMARK  status: ('A' for Active; 'I' for Inactive)
REMARK    1  A    between atoms: N_1  and  C_2
REMARK    2  A    between atoms: C_2  and  C_3
REMARK    3  A    between atoms: C_6  and  C_7
REMARK    4  A    between atoms: C_7  and  S_8
REMARK    5  A    between atoms: S_8  and  C_9
REMARK    6  A    between atoms: C_12  and  C_13
REMARK    7  A    between atoms: C_13  and  O_14
REMARK                            x       y       z     vdW  Elec       q    Type
REMARK                         _______ _______ _______ _____ _____    ______ ____
ROOT
ATOM      1  C   UNL     1      47.834   7.242  13.215  0.00  0.00    +0.000 C 
ENDROOT
BRANCH   1   5
ATOM      2  C   UNL     1      47.945   4.442  16.536  0.00  0.00    +0.000 A 
ATOM      3  C   UNL     1      47.144   4.189  15.412  0.00  0.00    +0.000 A 
ATOM      4  C   UNL     1      47.086   5.101  14.352  0.00  0.00    +0.000 A 
ATOM      5  C   UNL     1      47.831   6.286  14.387  0.00  0.00    +0.000 A 
ATOM      6  C   UNL     1      48.599   6.559  15.529  0.00  0.00    +0.000 A 
ATOM      7  C   UNL     1      48.658   5.646  16.589  0.00  0.00    +0.000 A 
BRANCH   2   8
ATOM      8  C   UNL     1      48.026   3.445  17.664  0.00  0.00    +0.000 C 
BRANCH   8   9
ATOM      9  N   UNL     1      46.768   2.726  17.836  0.00  0.00    +0.000 NA
ATOM     10  H   UNL     1      46.400   2.912  18.767  0.00  0.00    +0.000 HD
ATOM     11  H   UNL     1      46.955   1.725  17.795  0.00  0.00    +0.000 HD
ENDBRANCH   8   9
ENDBRANCH   2   8
ENDBRANCH   1   5
BRANCH   1  12
ATOM     12  S   UNL     1      46.161   7.827  12.784  0.00  0.00    +0.000 S 
BRANCH  12  13
ATOM     13  C   UNL     1      45.510   6.486  11.788  0.00  0.00    +0.000 A 
ATOM     14  C   UNL     1      46.170   6.195  10.587  0.00  0.00    +0.000 A 
ATOM     15  C   UNL     1      45.747   5.140   9.764  0.00  0.00    +0.000 A 
ATOM     16  C   UNL     1      44.657   4.345  10.131  0.00  0.00    +0.000 A 
ATOM     17  C   UNL     1      44.010   4.621  11.344  0.00  0.00    +0.000 A 
ATOM     18  C   UNL     1      44.435   5.677  12.165  0.00  0.00    +0.000 A 
BRANCH  16  19
ATOM     19  C   UNL     1      44.169   3.237   9.235  0.00  0.00    +0.000 C 
BRANCH  19  20
ATOM     20  O   UNL     1      44.562   1.970   9.738  0.00  0.00    +0.000 OA
ATOM     21  H   UNL     1      45.145   2.138  10.499  0.00  0.00    +0.000 HD
ENDBRANCH  19  20
ENDBRANCH  16  19
ENDBRANCH  12  13
ENDBRANCH   1  12
TORSDOF 7
ENDMDL
MODEL 9
REMARK VINA RESULT:    -4.846      2.893      4.398
REMARK INTER + INTRA:          -7.055
REMARK INTER:                  -6.583
REMARK INTRA:                  -0.472
REMARK UNBOUND:                -0.510
REMARK  Name = 
REMARK  7 active torsions:
REMARK  status: ('A' for Active; 'I' for Inactive)
REMARK    1  A    between atoms: N_1  and  C_2
REMARK    2  A    between atoms: C_2  and  C_3
REMARK    3  A    between atoms: C_6  and  C_7
REMARK    4  A    between atoms: C_7  and  S_8
REMARK    5  A    between atoms: S_8  and  C_9
REMARK    6  A    between atoms: C_12  and  C_13
REMARK    7  A    between atoms: C_13  and  O_14
REMARK                            x       y       z     vdW  Elec       q    Type
REMARK                         _______ _______ _______ _____ _____    ______ ____
ROOT
ATOM      1  C   UNL     1      46.073   6.521  12.964  0.00  0.00    +0.000 C 
ENDROOT
BRANCH   1   5
ATOM      2  C   UNL     1      44.877   3.479  10.102  0.00  0.00    +0.000 A 
ATOM      3  C   UNL     1      45.275   4.752   9.669  0.00  0.00    +0.000 A 
ATOM      4  C   UNL     1      45.637   5.742  10.590  0.00  0.00    +0.000 A 
ATOM      5  C   UNL     1      45.613   5.483  11.965  0.00  0.00    +0.000 A 
ATOM      6  C   UNL     1      45.175   4.223  12.400  0.00  0.00    +0.000 A 
ATOM      7  C   UNL     1      44.814   3.231  11.479  0.00  0.00    +0.000 A 
BRANCH   2   8
ATOM      8  C   UNL     1      44.514   2.405   9.107  0.00  0.00    +0.000 C 
BRANCH   8   9
ATOM      9  N   UNL     1      45.630   1.495   8.869  0.00  0.00    +0.000 NA
ATOM     10  H   UNL     1      46.152   1.812   8.055  0.00  0.00    +0.000 HD
ATOM     11  H   UNL     1      45.258   0.576   8.634  0.00  0.00    +0.000 HD
ENDBRANCH   8   9
ENDBRANCH   2   8
ENDBRANCH   1   5
BRANCH   1  12
ATOM     12  S   UNL     1      46.088   8.206  12.267  0.00  0.00    +0.000 S 
BRANCH  12  13
ATOM     13  C   UNL     1      47.823   8.474  11.900  0.00  0.00    +0.000 A 
ATOM     14  C   UNL     1      48.260   9.799  11.780  0.00  0.00    +0.000 A 
ATOM     15  C   UNL     1      49.607  10.099  11.528  0.00  0.00    +0.000 A 
ATOM     16  C   UNL     1      50.550   9.076  11.399  0.00  0.00    +0.000 A 
ATOM     17  C   UNL     1      50.119   7.750  11.541  0.00  0.00    +0.000 A 
ATOM     18  C   UNL     1      48.770   7.453  11.793  0.00  0.00    +0.000 A 
BRANCH  16  19
ATOM     19  C   UNL     1      51.991   9.385  11.086  0.00  0.00    +0.000 C 
BRANCH  19  20
ATOM     20  O   UNL     1      52.824   8.281  11.400  0.00  0.00    +0.000 OA
ATOM     21  H   UNL     1      53.151   8.423  12.306  0.00  0.00    +0.000 HD
ENDBRANCH  19  20
ENDBRANCH  16  19
ENDBRANCH  12  13
ENDBRANCH   1  12
TORSDOF 7
ENDMDL
