MODEL 1
REMARK VINA RESULT:    -6.568      0.000      0.000
REMARK INTER + INTRA:         -10.348
REMARK INTER:                  -9.255
REMARK INTRA:                  -1.093
REMARK UNBOUND:                -1.093
REMARK  Name = 
REMARK  7 active torsions:
REMARK  status: ('A' for Active; 'I' for Inactive)
REMARK    1  A    between atoms: C_2  and  C_3
REMARK    2  A    between atoms: C_3  and  N_4
REMARK    3  A    between atoms: C_3  and  C_27
REMARK    4  A    between atoms: C_5  and  C_7
REMARK    5  A    between atoms: C_10  and  C_11
REMARK    6  A    between atoms: C_11  and  N_12
REMARK    7  A    between atoms: C_13  and  C_15
REMARK                            x       y       z     vdW  Elec       q    Type
REMARK                         _______ _______ _______ _____ _____    ______ ____
ROOT
ATOM      1  C   UNL     1      50.645   4.720  17.607  0.00  0.00    +0.000 C 
ATOM      2  C   UNL     1      50.108   3.288  17.779  0.00  0.00    +0.000 C 
ATOM      3  C   UNL     1      48.753   3.263  18.497  0.00  0.00    +0.000 C 
ATOM      4  C   UNL     1      47.699   4.137  17.797  0.00  0.00    +0.000 C 
ATOM      5  C   UNL     1      48.246   5.563  17.602  0.00  0.00    +0.000 C 
ATOM      6  C   UNL     1      49.602   5.593  16.892  0.00  0.00    +0.000 C 
ENDROOT
BRANCH   1   8
ATOM      7  N   UNL     1      50.697   6.579  19.212  0.00  0.00    +0.000 N 
ATOM      8  C   UNL     1      51.088   5.290  18.960  0.00  0.00    +0.000 C 
ATOM      9  O   UNL     1      51.769   4.660  19.766  0.00  0.00    +0.000 OA
ATOM     10  H   UNL     1      50.148   7.088  18.531  0.00  0.00    +0.000 HD
BRANCH   7  11
ATOM     11  C   UNL     1      51.096   7.269  20.440  0.00  0.00    +0.000 C 
BRANCH  11  12
ATOM     12  C   UNL     1      49.880   8.012  21.029  0.00  0.00    +0.000 C 
ATOM     13  C   UNL     1      48.592   7.184  21.061  0.00  0.00    +0.000 C 
ATOM     14  C   UNL     1      47.457   8.203  21.139  0.00  0.00    +0.000 C 
ATOM     15  C   UNL     1      48.047   9.547  20.721  0.00  0.00    +0.000 C 
ATOM     16  C   UNL     1      49.460   9.254  20.233  0.00  0.00    +0.000 C 
ENDBRANCH  11  12
BRANCH  11  18
ATOM     17  N   UNL     1      53.113   8.904  19.911  0.00  0.00    +0.000 NA
ATOM     18  C   UNL     1      52.217   8.191  20.151  0.00  0.00    +0.000 C 
ENDBRANCH  11  18
ENDBRANCH   7  11
ENDBRANCH   1   8
BRANCH   4  19
ATOM     19  C   UNL     1      47.266   3.498  16.466  0.00  0.00    +0.000 C 
BRANCH  19  20
ATOM     20  N   UNL     1      46.729   4.473  15.541  0.00  0.00    +0.000 N 
ATOM     21  C   UNL     1      46.761   4.243  14.189  0.00  0.00    +0.000 C 
ATOM     22  O   UNL     1      47.224   3.213  13.706  0.00  0.00    +0.000 OA
ATOM     23  H   UNL     1      46.572   5.421  15.877  0.00  0.00    +0.000 HD
BRANCH  21  24
ATOM     24  C   UNL     1      46.141   5.263  13.345  0.00  0.00    +0.000 A 
ATOM     25  C   UNL     1      46.826   6.435  13.059  0.00  0.00    +0.000 A 
ATOM     26  S   UNL     1      45.946   7.503  12.062  0.00  0.00    +0.000 S 
ATOM     27  C   UNL     1      44.612   6.447  12.013  0.00  0.00    +0.000 A 
ATOM     28  N   UNL     1      43.477   6.779  11.343  0.00  0.00    +0.000 NA
ATOM     29  C   UNL     1      42.538   5.897  11.417  0.00  0.00    +0.000 A 
ATOM     30  N   UNL     1      42.631   4.707  12.095  0.00  0.00    +0.000 N 
ATOM     31  C   UNL     1      43.769   4.313  12.759  0.00  0.00    +0.000 A 
ATOM     32  O   UNL     1      43.844   3.216  13.299  0.00  0.00    +0.000 OA
ATOM     33  C   UNL     1      44.844   5.285  12.723  0.00  0.00    +0.000 A 
ATOM     34  H   UNL     1      41.864   4.051  12.098  0.00  0.00    +0.000 HD
ENDBRANCH  21  24
ENDBRANCH  19  20
ENDBRANCH   4  19
TORSDOF 7
ENDMDL
MODEL 2
REMARK VINA RESULT:    -6.384      5.540      7.659
REMARK INTER + INTRA:         -10.090
REMARK INTER:                  -8.862
REMARK INTRA:                  -1.228
REMARK UNBOUND:                -1.093
REMARK  Name = 
REMARK  7 active torsions:
REMARK  status: ('A' for Active; 'I' for Inactive)
REMARK    1  A    between atoms: C_2  and  C_3
REMARK    2  A    between atoms: C_3  and  N_4
REMARK    3  A    between atoms: C_3  and  C_27
REMARK    4  A    between atoms: C_5  and  C_7
REMARK    5  A    between atoms: C_10  and  C_11
REMARK    6  A    between atoms: C_11  and  N_12
REMARK    7  A    between atoms: C_13  and  C_15
REMARK                            x       y       z     vdW  Elec       q    Type
REMARK                         _______ _______ _______ _____ _____    ______ ____
ROOT
ATOM      1  C   UNL     1      50.019   8.548  13.678  0.00  0.00    +0.000 C 
ATOM      2  C   UNL     1      48.929   9.621  13.842  0.00  0.00    +0.000 C 
ATOM      3  C   UNL     1      48.141   9.845  12.545  0.00  0.00    +0.000 C 
ATOM      4  C   UNL     1      47.520   8.548  12.002  0.00  0.00    +0.000 C 
ATOM      5  C   UNL     1      48.607   7.465  11.862  0.00  0.00    +0.000 C 
ATOM      6  C   UNL     1      49.401   7.244  13.151  0.00  0.00    +0.000 C 
ENDROOT
BRANCH   1   8
ATOM      7  N   UNL     1      51.950   8.117  12.220  0.00  0.00    +0.000 N 
ATOM      8  C   UNL     1      51.160   9.076  12.799  0.00  0.00    +0.000 C 
ATOM      9  O   UNL     1      51.384  10.273  12.633  0.00  0.00    +0.000 OA
ATOM     10  H   UNL     1      51.759   7.136  12.378  0.00  0.00    +0.000 HD
BRANCH   7  11
ATOM     11  C   UNL     1      53.109   8.477  11.401  0.00  0.00    +0.000 C 
BRANCH  11  12
ATOM     12  C   UNL     1      52.743   8.344   9.909  0.00  0.00    +0.000 C 
ATOM     13  C   UNL     1      52.384   6.921   9.473  0.00  0.00    +0.000 C 
ATOM     14  C   UNL     1      52.595   6.895   7.961  0.00  0.00    +0.000 C 
ATOM     15  C   UNL     1      53.457   8.107   7.618  0.00  0.00    +0.000 C 
ATOM     16  C   UNL     1      53.883   8.710   8.951  0.00  0.00    +0.000 C 
ENDBRANCH  11  12
BRANCH  11  18
ATOM     17  N   UNL     1      55.182   6.964  12.054  0.00  0.00    +0.000 NA
ATOM     18  C   UNL     1      54.260   7.622  11.765  0.00  0.00    +0.000 C 
ENDBRANCH  11  18
ENDBRANCH   7  11
ENDBRANCH   1   8
BRANCH   4  19
ATOM     19  C   UNL     1      46.359   8.086  12.901  0.00  0.00    +0.000 C 
BRANCH  19  20
ATOM     20  N   UNL     1      45.910   6.750  12.571  0.00  0.00    +0.000 N 
ATOM     21  C   UNL     1      44.777   6.561  11.821  0.00  0.00    +0.000 C 
ATOM     22  O   UNL     1      44.109   7.496  11.390  0.00  0.00    +0.000 OA
ATOM     23  H   UNL     1      46.284   5.970  13.106  0.00  0.00    +0.000 HD
BRANCH  21  24
ATOM     24  C   UNL     1      44.443   5.177  11.494  0.00  0.00    +0.000 A 
ATOM     25  C   UNL     1      43.677   4.423  12.371  0.00  0.00    +0.000 A 
ATOM     26  S   UNL     1      43.390   2.834  11.822  0.00  0.00    +0.000 S 
ATOM     27  C   UNL     1      44.310   3.095  10.414  0.00  0.00    +0.000 A 
ATOM     28  N   UNL     1      44.502   2.103   9.505  0.00  0.00    +0.000 NA
ATOM     29  C   UNL     1      45.245   2.435   8.503  0.00  0.00    +0.000 A 
ATOM     30  N   UNL     1      45.809   3.673   8.320  0.00  0.00    +0.000 N 
ATOM     31  C   UNL     1      45.615   4.717   9.194  0.00  0.00    +0.000 A 
ATOM     32  O   UNL     1      46.077   5.829   8.970  0.00  0.00    +0.000 OA
ATOM     33  C   UNL     1      44.806   4.384  10.350  0.00  0.00    +0.000 A 
ATOM     34  H   UNL     1      46.366   3.873   7.503  0.00  0.00    +0.000 HD
ENDBRANCH  21  24
ENDBRANCH  19  20
ENDBRANCH   4  19
TORSDOF 7
ENDMDL
MODEL 3
REMARK VINA RESULT:    -6.188      2.682      4.431
REMARK INTER + INTRA:          -9.813
REMARK INTER:                  -8.812
REMARK INTRA:                  -1.001
REMARK UNBOUND:                -1.093
REMARK  Name = 
REMARK  7 active torsions:
REMARK  status: ('A' for Active; 'I' for Inactive)
REMARK    1  A    between atoms: C_2  and  C_3
REMARK    2  A    between atoms: C_3  and  N_4
REMARK    3  A    between atoms: C_3  and  C_27
REMARK    4  A    between atoms: C_5  and  C_7
REMARK    5  A    between atoms: C_10  and  C_11
REMARK    6  A    between atoms: C_11  and  N_12
REMARK    7  A    between atoms: C_13  and  C_15
REMARK                            x       y       z     vdW  Elec       q    Type
REMARK                         _______ _______ _______ _____ _____    ______ ____
ROOT
ATOM      1  C   UNL     1      50.331   8.162  17.015  0.00  0.00    +0.000 C 
ATOM      2  C   UNL     1      50.585   8.822  15.648  0.00  0.00    +0.000 C 
ATOM      3  C   UNL     1      50.353   7.848  14.487  0.00  0.00    +0.000 C 
ATOM      4  C   UNL     1      48.949   7.223  14.513  0.00  0.00    +0.000 C 
ATOM      5  C   UNL     1      48.685   6.585  15.889  0.00  0.00    +0.000 C 
ATOM      6  C   UNL     1      48.922   7.551  17.053  0.00  0.00    +0.000 C 
ENDROOT
BRANCH   1   8
ATOM      7  N   UNL     1      51.056   6.078  18.096  0.00  0.00    +0.000 N 
ATOM      8  C   UNL     1      51.439   7.151  17.334  0.00  0.00    +0.000 C 
ATOM      9  O   UNL     1      52.603   7.287  16.963  0.00  0.00    +0.000 OA
ATOM     10  H   UNL     1      50.095   5.988  18.404  0.00  0.00    +0.000 HD
BRANCH   7  11
ATOM     11  C   UNL     1      52.020   5.063  18.522  0.00  0.00    +0.000 C 
BRANCH  11  12
ATOM     12  C   UNL     1      51.838   3.792  17.669  0.00  0.00    +0.000 C 
ATOM     13  C   UNL     1      50.399   3.270  17.616  0.00  0.00    +0.000 C 
ATOM     14  C   UNL     1      50.516   1.798  17.227  0.00  0.00    +0.000 C 
ATOM     15  C   UNL     1      51.964   1.391  17.482  0.00  0.00    +0.000 C 
ATOM     16  C   UNL     1      52.616   2.575  18.185  0.00  0.00    +0.000 C 
ENDBRANCH  11  12
BRANCH  11  18
ATOM     17  N   UNL     1      51.707   4.548  21.102  0.00  0.00    +0.000 NA
ATOM     18  C   UNL     1      51.848   4.787  19.966  0.00  0.00    +0.000 C 
ENDBRANCH  11  18
ENDBRANCH   7  11
ENDBRANCH   1   8
BRANCH   4  19
ATOM     19  C   UNL     1      47.884   8.273  14.150  0.00  0.00    +0.000 C 
BRANCH  19  20
ATOM     20  N   UNL     1      46.671   7.668  13.641  0.00  0.00    +0.000 N 
ATOM     21  C   UNL     1      46.673   7.009  12.438  0.00  0.00    +0.000 C 
ATOM     22  O   UNL     1      47.685   6.890  11.753  0.00  0.00    +0.000 OA
ATOM     23  H   UNL     1      45.783   7.954  14.046  0.00  0.00    +0.000 HD
BRANCH  21  24
ATOM     24  C   UNL     1      45.413   6.383  12.042  0.00  0.00    +0.000 A 
ATOM     25  C   UNL     1      44.396   7.155  11.499  0.00  0.00    +0.000 A 
ATOM     26  S   UNL     1      43.005   6.254  11.099  0.00  0.00    +0.000 S 
ATOM     27  C   UNL     1      43.706   4.812  11.673  0.00  0.00    +0.000 A 
ATOM     28  N   UNL     1      43.018   3.641  11.657  0.00  0.00    +0.000 NA
ATOM     29  C   UNL     1      43.663   2.637  12.150  0.00  0.00    +0.000 A 
ATOM     30  N   UNL     1      44.938   2.695  12.653  0.00  0.00    +0.000 N 
ATOM     31  C   UNL     1      45.686   3.850  12.661  0.00  0.00    +0.000 A 
ATOM     32  O   UNL     1      46.845   3.856  13.056  0.00  0.00    +0.000 OA
ATOM     33  C   UNL     1      44.993   5.010  12.137  0.00  0.00    +0.000 A 
ATOM     34  H   UNL     1      45.393   1.868  13.009  0.00  0.00    +0.000 HD
ENDBRANCH  21  24
ENDBRANCH  19  20
ENDBRANCH   4  19
TORSDOF 7
ENDMDL
MODEL 4
REMARK VINA RESULT:    -5.993      1.400      2.052
REMARK INTER + INTRA:          -9.538
REMARK INTER:                  -8.088
REMARK INTRA:                  -1.450
REMARK UNBOUND:                -1.093
REMARK  Name = 
REMARK  7 active torsions:
REMARK  status: ('A' for Active; 'I' for Inactive)
REMARK    1  A    between atoms: C_2  and  C_3
REMARK    2  A    between atoms: C_3  and  N_4
REMARK    3  A    between atoms: C_3  and  C_27
REMARK    4  A    between atoms: C_5  and  C_7
REMARK    5  A    between atoms: C_10  and  C_11
REMARK    6  A    between atoms: C_11  and  N_12
REMARK    7  A    between atoms: C_13  and  C_15
REMARK                            x       y       z     vdW  Elec       q    Type
REMARK                         _______ _______ _______ _____ _____    ______ ____
ROOT
ATOM      1  C   UNL     1      50.799   5.253  17.486  0.00  0.00    +0.000 C 
ATOM      2  C   UNL     1      50.339   3.803  17.720  0.00  0.00    +0.000 C 
ATOM      3  C   UNL     1      48.943   3.737  18.353  0.00  0.00    +0.000 C 
ATOM      4  C   UNL     1      47.887   4.495  17.531  0.00  0.00    +0.000 C 
ATOM      5  C   UNL     1      48.360   5.938  17.274  0.00  0.00    +0.000 C 
ATOM      6  C   UNL     1      49.755   6.009  16.650  0.00  0.00    +0.000 C 
ENDROOT
BRANCH   1   8
ATOM      7  N   UNL     1      50.599   7.195  18.977  0.00  0.00    +0.000 N 
ATOM      8  C   UNL     1      51.116   5.935  18.822  0.00  0.00    +0.000 C 
ATOM      9  O   UNL     1      51.806   5.416  19.697  0.00  0.00    +0.000 OA
ATOM     10  H   UNL     1      50.044   7.612  18.241  0.00  0.00    +0.000 HD
BRANCH   7  11
ATOM     11  C   UNL     1      50.868   7.986  20.179  0.00  0.00    +0.000 C 
BRANCH  11  12
ATOM     12  C   UNL     1      49.535   8.367  20.851  0.00  0.00    +0.000 C 
ATOM     13  C   UNL     1      48.543   7.209  20.985  0.00  0.00    +0.000 C 
ATOM     14  C   UNL     1      47.172   7.864  21.139  0.00  0.00    +0.000 C 
ATOM     15  C   UNL     1      47.322   9.308  20.669  0.00  0.00    +0.000 C 
ATOM     16  C   UNL     1      48.723   9.415  20.080  0.00  0.00    +0.000 C 
ENDBRANCH  11  12
BRANCH  11  18
ATOM     17  N   UNL     1      52.282  10.129  19.525  0.00  0.00    +0.000 NA
ATOM     18  C   UNL     1      51.666   9.179  19.822  0.00  0.00    +0.000 C 
ENDBRANCH  11  18
ENDBRANCH   7  11
ENDBRANCH   1   8
BRANCH   4  19
ATOM     19  C   UNL     1      47.582   3.746  16.222  0.00  0.00    +0.000 C 
BRANCH  19  20
ATOM     20  N   UNL     1      46.770   4.533  15.319  0.00  0.00    +0.000 N 
ATOM     21  C   UNL     1      46.499   4.082  14.052  0.00  0.00    +0.000 C 
ATOM     22  O   UNL     1      46.912   3.004  13.634  0.00  0.00    +0.000 OA
ATOM     23  H   UNL     1      46.625   5.517  15.534  0.00  0.00    +0.000 HD
BRANCH  21  24
ATOM     24  C   UNL     1      45.622   4.923  13.240  0.00  0.00    +0.000 A 
ATOM     25  C   UNL     1      44.473   4.384  12.677  0.00  0.00    +0.000 A 
ATOM     26  S   UNL     1      43.577   5.513  11.765  0.00  0.00    +0.000 S 
ATOM     27  C   UNL     1      44.714   6.743  12.066  0.00  0.00    +0.000 A 
ATOM     28  N   UNL     1      44.565   7.984  11.533  0.00  0.00    +0.000 NA
ATOM     29  C   UNL     1      45.519   8.806  11.821  0.00  0.00    +0.000 A 
ATOM     30  N   UNL     1      46.607   8.503  12.600  0.00  0.00    +0.000 N 
ATOM     31  C   UNL     1      46.784   7.272  13.188  0.00  0.00    +0.000 A 
ATOM     32  O   UNL     1      47.732   7.052  13.932  0.00  0.00    +0.000 OA
ATOM     33  C   UNL     1      45.748   6.308  12.873  0.00  0.00    +0.000 A 
ATOM     34  H   UNL     1      47.309   9.198  12.802  0.00  0.00    +0.000 HD
ENDBRANCH  21  24
ENDBRANCH  19  20
ENDBRANCH   4  19
TORSDOF 7
ENDMDL
MODEL 5
REMARK VINA RESULT:    -5.870      2.386      3.945
REMARK INTER + INTRA:          -9.364
REMARK INTER:                  -8.105
REMARK INTRA:                  -1.259
REMARK UNBOUND:                -1.093
REMARK  Name = 
REMARK  7 active torsions:
REMARK  status: ('A' for Active; 'I' for Inactive)
REMARK    1  A    between atoms: C_2  and  C_3
REMARK    2  A    between atoms: C_3  and  N_4
REMARK    3  A    between atoms: C_3  and  C_27
REMARK    4  A    between atoms: C_5  and  C_7
REMARK    5  A    between atoms: C_10  and  C_11
REMARK    6  A    between atoms: C_11  and  N_12
REMARK    7  A    between atoms: C_13  and  C_15
REMARK                            x       y       z     vdW  Elec       q    Type
REMARK                         _______ _______ _______ _____ _____    ______ ____
ROOT
ATOM      1  C   UNL     1      48.730   4.422  19.591  0.00  0.00    +0.000 C 
ATOM      2  C   UNL     1      47.796   5.415  18.877  0.00  0.00    +0.000 C 
ATOM      3  C   UNL     1      48.305   5.783  17.479  0.00  0.00    +0.000 C 
ATOM      4  C   UNL     1      48.534   4.549  16.591  0.00  0.00    +0.000 C 
ATOM      5  C   UNL     1      49.449   3.544  17.315  0.00  0.00    +0.000 C 
ATOM      6  C   UNL     1      48.947   3.179  18.714  0.00  0.00    +0.000 C 
ENDROOT
BRANCH   1   8
ATOM      7  N   UNL     1      51.178   4.383  19.795  0.00  0.00    +0.000 N 
ATOM      8  C   UNL     1      50.037   5.115  19.995  0.00  0.00    +0.000 C 
ATOM      9  O   UNL     1      50.079   6.240  20.489  0.00  0.00    +0.000 OA
ATOM     10  H   UNL     1      51.124   3.453  19.399  0.00  0.00    +0.000 HD
BRANCH   7  11
ATOM     11  C   UNL     1      52.492   4.898  20.186  0.00  0.00    +0.000 C 
BRANCH  11  12
ATOM     12  C   UNL     1      53.095   5.702  19.018  0.00  0.00    +0.000 C 
ATOM     13  C   UNL     1      52.921   5.046  17.645  0.00  0.00    +0.000 C 
ATOM     14  C   UNL     1      54.003   5.663  16.761  0.00  0.00    +0.000 C 
ATOM     15  C   UNL     1      55.022   6.303  17.698  0.00  0.00    +0.000 C 
ATOM     16  C   UNL     1      54.614   5.892  19.108  0.00  0.00    +0.000 C 
ENDBRANCH  11  12
BRANCH  11  18
ATOM     17  N   UNL     1      54.067   2.888  20.893  0.00  0.00    +0.000 NA
ATOM     18  C   UNL     1      53.366   3.775  20.591  0.00  0.00    +0.000 C 
ENDBRANCH  11  18
ENDBRANCH   7  11
ENDBRANCH   1   8
BRANCH   4  19
ATOM     19  C   UNL     1      47.189   3.918  16.187  0.00  0.00    +0.000 C 
BRANCH  19  20
ATOM     20  N   UNL     1      46.463   4.739  15.242  0.00  0.00    +0.000 N 
ATOM     21  C   UNL     1      46.291   4.324  13.946  0.00  0.00    +0.000 C 
ATOM     22  O   UNL     1      46.724   3.252  13.534  0.00  0.00    +0.000 OA
ATOM     23  H   UNL     1      46.311   5.719  15.471  0.00  0.00    +0.000 HD
BRANCH  21  24
ATOM     24  C   UNL     1      45.492   5.197  13.088  0.00  0.00    +0.000 A 
ATOM     25  C   UNL     1      44.387   4.689  12.420  0.00  0.00    +0.000 A 
ATOM     26  S   UNL     1      43.581   5.853  11.469  0.00  0.00    +0.000 S 
ATOM     27  C   UNL     1      44.704   7.059  11.893  0.00  0.00    +0.000 A 
ATOM     28  N   UNL     1      44.613   8.316  11.383  0.00  0.00    +0.000 NA
ATOM     29  C   UNL     1      45.549   9.116  11.768  0.00  0.00    +0.000 A 
ATOM     30  N   UNL     1      46.567   8.779  12.625  0.00  0.00    +0.000 N 
ATOM     31  C   UNL     1      46.682   7.531  13.192  0.00  0.00    +0.000 A 
ATOM     32  O   UNL     1      47.563   7.279  14.005  0.00  0.00    +0.000 OA
ATOM     33  C   UNL     1      45.664   6.589  12.769  0.00  0.00    +0.000 A 
ATOM     34  H   UNL     1      47.259   9.459  12.901  0.00  0.00    +0.000 HD
ENDBRANCH  21  24
ENDBRANCH  19  20
ENDBRANCH   4  19
TORSDOF 7
ENDMDL
MODEL 6
REMARK VINA RESULT:    -5.339      5.595      8.044
REMARK INTER + INTRA:          -8.616
REMARK INTER:                  -7.398
REMARK INTRA:                  -1.218
REMARK UNBOUND:                -1.093
REMARK  Name = 
REMARK  7 active torsions:
REMARK  status: ('A' for Active; 'I' for Inactive)
REMARK    1  A    between atoms: C_2  and  C_3
REMARK    2  A    between atoms: C_3  and  N_4
REMARK    3  A    between atoms: C_3  and  C_27
REMARK    4  A    between atoms: C_5  and  C_7
REMARK    5  A    between atoms: C_10  and  C_11
REMARK    6  A    between atoms: C_11  and  N_12
REMARK    7  A    between atoms: C_13  and  C_15
REMARK                            x       y       z     vdW  Elec       q    Type
REMARK                         _______ _______ _______ _____ _____    ______ ____
ROOT
ATOM      1  C   UNL     1      51.301   8.568  13.211  0.00  0.00    +0.000 C 
ATOM      2  C   UNL     1      50.674   9.953  13.444  0.00  0.00    +0.000 C 
ATOM      3  C   UNL     1      50.069  10.535  12.161  0.00  0.00    +0.000 C 
ATOM      4  C   UNL     1      49.037   9.596  11.516  0.00  0.00    +0.000 C 
ATOM      5  C   UNL     1      49.657   8.202  11.307  0.00  0.00    +0.000 C 
ATOM      6  C   UNL     1      50.268   7.619  12.584  0.00  0.00    +0.000 C 
ENDROOT
BRANCH   1   8
ATOM      7  N   UNL     1      52.916   7.598  11.634  0.00  0.00    +0.000 N 
ATOM      8  C   UNL     1      52.587   8.696  12.385  0.00  0.00    +0.000 C 
ATOM      9  O   UNL     1      53.301   9.696  12.401  0.00  0.00    +0.000 OA
ATOM     10  H   UNL     1      52.323   6.778  11.643  0.00  0.00    +0.000 HD
BRANCH   7  11
ATOM     11  C   UNL     1      54.145   7.559  10.840  0.00  0.00    +0.000 C 
BRANCH  11  12
ATOM     12  C   UNL     1      53.791   7.656   9.343  0.00  0.00    +0.000 C 
ATOM     13  C   UNL     1      52.445   7.027   8.972  0.00  0.00    +0.000 C 
ATOM     14  C   UNL     1      52.532   6.736   7.475  0.00  0.00    +0.000 C 
ATOM     15  C   UNL     1      54.012   6.785   7.105  0.00  0.00    +0.000 C 
ATOM     16  C   UNL     1      54.770   6.920   8.420  0.00  0.00    +0.000 C 
ENDBRANCH  11  12
BRANCH  11  18
ATOM     17  N   UNL     1      55.512   5.360  11.398  0.00  0.00    +0.000 NA
ATOM     18  C   UNL     1      54.899   6.324  11.149  0.00  0.00    +0.000 C 
ENDBRANCH  11  18
ENDBRANCH   7  11
ENDBRANCH   1   8
BRANCH   4  19
ATOM     19  C   UNL     1      47.756   9.535  12.367  0.00  0.00    +0.000 C 
BRANCH  19  20
ATOM     20  N   UNL     1      47.012   8.314  12.149  0.00  0.00    +0.000 N 
ATOM     21  C   UNL     1      45.673   8.252  12.440  0.00  0.00    +0.000 C 
ATOM     22  O   UNL     1      45.048   9.213  12.879  0.00  0.00    +0.000 OA
ATOM     23  H   UNL     1      47.531   7.447  12.028  0.00  0.00    +0.000 HD
BRANCH  21  24
ATOM     24  C   UNL     1      45.001   6.992  12.128  0.00  0.00    +0.000 A 
ATOM     25  C   UNL     1      43.797   7.001  11.437  0.00  0.00    +0.000 A 
ATOM     26  S   UNL     1      43.164   5.442  11.165  0.00  0.00    +0.000 S 
ATOM     27  C   UNL     1      44.460   4.710  11.991  0.00  0.00    +0.000 A 
ATOM     28  N   UNL     1      44.517   3.363  12.159  0.00  0.00    +0.000 NA
ATOM     29  C   UNL     1      45.540   2.952  12.830  0.00  0.00    +0.000 A 
ATOM     30  N   UNL     1      46.518   3.765  13.346  0.00  0.00    +0.000 N 
ATOM     31  C   UNL     1      46.521   5.129  13.174  0.00  0.00    +0.000 A 
ATOM     32  O   UNL     1      47.442   5.822  13.589  0.00  0.00    +0.000 OA
ATOM     33  C   UNL     1      45.377   5.640  12.445  0.00  0.00    +0.000 A 
ATOM     34  H   UNL     1      47.303   3.378  13.847  0.00  0.00    +0.000 HD
ENDBRANCH  21  24
ENDBRANCH  19  20
ENDBRANCH   4  19
TORSDOF 7
ENDMDL
MODEL 7
REMARK VINA RESULT:    -5.282      4.972      6.957
REMARK INTER + INTRA:          -8.536
REMARK INTER:                  -7.283
REMARK INTRA:                  -1.253
REMARK UNBOUND:                -1.093
REMARK  Name = 
REMARK  7 active torsions:
REMARK  status: ('A' for Active; 'I' for Inactive)
REMARK    1  A    between atoms: C_2  and  C_3
REMARK    2  A    between atoms: C_3  and  N_4
REMARK    3  A    between atoms: C_3  and  C_27
REMARK    4  A    between atoms: C_5  and  C_7
REMARK    5  A    between atoms: C_10  and  C_11
REMARK    6  A    between atoms: C_11  and  N_12
REMARK    7  A    between atoms: C_13  and  C_15
REMARK                            x       y       z     vdW  Elec       q    Type
REMARK                         _______ _______ _______ _____ _____    ______ ____
ROOT
ATOM      1  C   UNL     1      50.406   8.590  14.608  0.00  0.00    +0.000 C 
ATOM      2  C   UNL     1      49.280   9.639  14.646  0.00  0.00    +0.000 C 
ATOM      3  C   UNL     1      48.738   9.953  13.247  0.00  0.00    +0.000 C 
ATOM      4  C   UNL     1      48.257   8.696  12.504  0.00  0.00    +0.000 C 
ATOM      5  C   UNL     1      49.375   7.637  12.488  0.00  0.00    +0.000 C 
ATOM      6  C   UNL     1      49.924   7.325  13.882  0.00  0.00    +0.000 C 
ENDROOT
BRANCH   1   8
ATOM      7  N   UNL     1      52.374   8.368  13.153  0.00  0.00    +0.000 N 
ATOM      8  C   UNL     1      51.676   9.193  13.996  0.00  0.00    +0.000 C 
ATOM      9  O   UNL     1      52.073  10.329  14.250  0.00  0.00    +0.000 OA
ATOM     10  H   UNL     1      52.039   7.431  12.966  0.00  0.00    +0.000 HD
BRANCH   7  11
ATOM     11  C   UNL     1      53.634   8.792  12.542  0.00  0.00    +0.000 C 
BRANCH  11  12
ATOM     12  C   UNL     1      53.485   8.792  11.008  0.00  0.00    +0.000 C 
ATOM     13  C   UNL     1      52.593   7.674  10.461  0.00  0.00    +0.000 C 
ATOM     14  C   UNL     1      53.001   7.507   8.999  0.00  0.00    +0.000 C 
ATOM     15  C   UNL     1      54.360   8.184   8.844  0.00  0.00    +0.000 C 
ATOM     16  C   UNL     1      54.800   8.571  10.251  0.00  0.00    +0.000 C 
ENDBRANCH  11  12
BRANCH  11  18
ATOM     17  N   UNL     1      55.602   7.199  13.322  0.00  0.00    +0.000 NA
ATOM     18  C   UNL     1      54.729   7.902  12.989  0.00  0.00    +0.000 C 
ENDBRANCH  11  18
ENDBRANCH   7  11
ENDBRANCH   1   8
BRANCH   4  19
ATOM     19  C   UNL     1      46.961   8.158  13.137  0.00  0.00    +0.000 C 
BRANCH  19  20
ATOM     20  N   UNL     1      46.495   6.952  12.486  0.00  0.00    +0.000 N 
ATOM     21  C   UNL     1      45.588   7.021  11.459  0.00  0.00    +0.000 C 
ATOM     22  O   UNL     1      45.145   8.087  11.041  0.00  0.00    +0.000 OA
ATOM     23  H   UNL     1      46.642   6.062  12.957  0.00  0.00    +0.000 HD
BRANCH  21  24
ATOM     24  C   UNL     1      45.227   5.752  10.830  0.00  0.00    +0.000 A 
ATOM     25  C   UNL     1      45.497   5.545   9.485  0.00  0.00    +0.000 A 
ATOM     26  S   UNL     1      45.005   4.010   8.928  0.00  0.00    +0.000 S 
ATOM     27  C   UNL     1      44.386   3.591  10.457  0.00  0.00    +0.000 A 
ATOM     28  N   UNL     1      43.777   2.394  10.666  0.00  0.00    +0.000 NA
ATOM     29  C   UNL     1      43.330   2.226  11.865  0.00  0.00    +0.000 A 
ATOM     30  N   UNL     1      43.441   3.143  12.880  0.00  0.00    +0.000 N 
ATOM     31  C   UNL     1      44.077   4.353  12.726  0.00  0.00    +0.000 A 
ATOM     32  O   UNL     1      44.218   5.123  13.668  0.00  0.00    +0.000 OA
ATOM     33  C   UNL     1      44.576   4.597  11.386  0.00  0.00    +0.000 A 
ATOM     34  H   UNL     1      43.085   2.942  13.802  0.00  0.00    +0.000 HD
ENDBRANCH  21  24
ENDBRANCH  19  20
ENDBRANCH   4  19
TORSDOF 7
ENDMDL
MODEL 8
REMARK VINA RESULT:    -5.219      5.634      8.095
REMARK INTER + INTRA:          -8.448
REMARK INTER:                  -8.314
REMARK INTRA:                  -0.134
REMARK UNBOUND:                -1.093
REMARK  Name = 
REMARK  7 active torsions:
REMARK  status: ('A' for Active; 'I' for Inactive)
REMARK    1  A    between atoms: C_2  and  C_3
REMARK    2  A    between atoms: C_3  and  N_4
REMARK    3  A    between atoms: C_3  and  C_27
REMARK    4  A    between atoms: C_5  and  C_7
REMARK    5  A    between atoms: C_10  and  C_11
REMARK    6  A    between atoms: C_11  and  N_12
REMARK    7  A    between atoms: C_13  and  C_15
REMARK                            x       y       z     vdW  Elec       q    Type
REMARK                         _______ _______ _______ _____ _____    ______ ____
ROOT
ATOM      1  C   UNL     1      51.317   9.844  12.339  0.00  0.00    +0.000 C 
ATOM      2  C   UNL     1      50.075   9.293  11.618  0.00  0.00    +0.000 C 
ATOM      3  C   UNL     1      49.845   7.807  11.918  0.00  0.00    +0.000 C 
ATOM      4  C   UNL     1      49.746   7.518  13.425  0.00  0.00    +0.000 C 
ATOM      5  C   UNL     1      50.978   8.091  14.150  0.00  0.00    +0.000 C 
ATOM      6  C   UNL     1      51.215   9.573  13.848  0.00  0.00    +0.000 C 
ENDROOT
BRANCH   1   8
ATOM      7  N   UNL     1      52.511   8.982  10.371  0.00  0.00    +0.000 N 
ATOM      8  C   UNL     1      52.595   9.278  11.707  0.00  0.00    +0.000 C 
ATOM      9  O   UNL     1      53.628   9.074  12.342  0.00  0.00    +0.000 OA
ATOM     10  H   UNL     1      51.649   9.145   9.867  0.00  0.00    +0.000 HD
BRANCH   7  11
ATOM     11  C   UNL     1      53.637   8.385   9.651  0.00  0.00    +0.000 C 
BRANCH  11  12
ATOM     12  C   UNL     1      53.639   8.890   8.195  0.00  0.00    +0.000 C 
ATOM     13  C   UNL     1      52.657  10.033   7.922  0.00  0.00    +0.000 C 
ATOM     14  C   UNL     1      52.413  10.007   6.415  0.00  0.00    +0.000 C 
ATOM     15  C   UNL     1      52.881   8.642   5.919  0.00  0.00    +0.000 C 
ATOM     16  C   UNL     1      53.217   7.833   7.166  0.00  0.00    +0.000 C 
ENDBRANCH  11  12
BRANCH  11  18
ATOM     17  N   UNL     1      53.470   5.744   9.760  0.00  0.00    +0.000 NA
ATOM     18  C   UNL     1      53.548   6.910   9.723  0.00  0.00    +0.000 C 
ENDBRANCH  11  18
ENDBRANCH   7  11
ENDBRANCH   1   8
BRANCH   4  19
ATOM     19  C   UNL     1      48.430   8.074  13.996  0.00  0.00    +0.000 C 
BRANCH  19  20
ATOM     20  N   UNL     1      47.277   7.631  13.241  0.00  0.00    +0.000 N 
ATOM     21  C   UNL     1      46.781   6.363  13.407  0.00  0.00    +0.000 C 
ATOM     22  O   UNL     1      47.271   5.562  14.198  0.00  0.00    +0.000 OA
ATOM     23  H   UNL     1      47.005   8.164  12.418  0.00  0.00    +0.000 HD
BRANCH  21  24
ATOM     24  C   UNL     1      45.579   6.034  12.643  0.00  0.00    +0.000 A 
ATOM     25  C   UNL     1      44.816   7.048  12.082  0.00  0.00    +0.000 A 
ATOM     26  S   UNL     1      43.455   6.475  11.230  0.00  0.00    +0.000 S 
ATOM     27  C   UNL     1      43.825   4.858  11.615  0.00  0.00    +0.000 A 
ATOM     28  N   UNL     1      43.023   3.838  11.213  0.00  0.00    +0.000 NA
ATOM     29  C   UNL     1      43.410   2.670  11.602  0.00  0.00    +0.000 A 
ATOM     30  N   UNL     1      44.533   2.426  12.352  0.00  0.00    +0.000 N 
ATOM     31  C   UNL     1      45.393   3.421  12.754  0.00  0.00    +0.000 A 
ATOM     32  O   UNL     1      46.423   3.165  13.366  0.00  0.00    +0.000 OA
ATOM     33  C   UNL     1      44.985   4.755  12.359  0.00  0.00    +0.000 A 
ATOM     34  H   UNL     1      44.791   1.485  12.609  0.00  0.00    +0.000 HD
ENDBRANCH  21  24
ENDBRANCH  19  20
ENDBRANCH   4  19
TORSDOF 7
ENDMDL
MODEL 9
REMARK VINA RESULT:    -5.019      5.568      7.909
REMARK INTER + INTRA:          -8.166
REMARK INTER:                  -8.071
REMARK INTRA:                  -0.094
REMARK UNBOUND:                -1.093
REMARK  Name = 
REMARK  7 active torsions:
REMARK  status: ('A' for Active; 'I' for Inactive)
REMARK    1  A    between atoms: C_2  and  C_3
REMARK    2  A    between atoms: C_3  and  N_4
REMARK    3  A    between atoms: C_3  and  C_27
REMARK    4  A    between atoms: C_5  and  C_7
REMARK    5  A    between atoms: C_10  and  C_11
REMARK    6  A    between atoms: C_11  and  N_12
REMARK    7  A    between atoms: C_13  and  C_15
REMARK                            x       y       z     vdW  Elec       q    Type
REMARK                         _______ _______ _______ _____ _____    ______ ____
ROOT
ATOM      1  C   UNL     1      49.853   8.652  11.441  0.00  0.00    +0.000 C 
ATOM      2  C   UNL     1      50.595   7.995  12.618  0.00  0.00    +0.000 C 
ATOM      3  C   UNL     1      50.445   8.801  13.915  0.00  0.00    +0.000 C 
ATOM      4  C   UNL     1      48.975   9.043  14.293  0.00  0.00    +0.000 C 
ATOM      5  C   UNL     1      48.226   9.677  13.105  0.00  0.00    +0.000 C 
ATOM      6  C   UNL     1      48.378   8.880  11.807  0.00  0.00    +0.000 C 
ENDROOT
BRANCH   1   8
ATOM      7  N   UNL     1      51.899   9.784  10.686  0.00  0.00    +0.000 N 
ATOM      8  C   UNL     1      50.574   9.933  11.003  0.00  0.00    +0.000 C 
ATOM      9  O   UNL     1      50.026  11.032  10.957  0.00  0.00    +0.000 OA
ATOM     10  H   UNL     1      52.337   8.873  10.742  0.00  0.00    +0.000 HD
BRANCH   7  11
ATOM     11  C   UNL     1      52.724  10.931  10.305  0.00  0.00    +0.000 C 
BRANCH  11  12
ATOM     12  C   UNL     1      53.418  10.639   8.959  0.00  0.00    +0.000 C 
ATOM     13  C   UNL     1      52.937  11.516   7.800  0.00  0.00    +0.000 C 
ATOM     14  C   UNL     1      53.300  10.746   6.532  0.00  0.00    +0.000 C 
ATOM     15  C   UNL     1      53.568   9.305   6.957  0.00  0.00    +0.000 C 
ATOM     16  C   UNL     1      53.180   9.221   8.428  0.00  0.00    +0.000 C 
ENDBRANCH  11  12
BRANCH  11  18
ATOM     17  N   UNL     1      54.458  11.447  12.240  0.00  0.00    +0.000 NA
ATOM     18  C   UNL     1      53.701  11.219  11.377  0.00  0.00    +0.000 C 
ENDBRANCH  11  18
ENDBRANCH   7  11
ENDBRANCH   1   8
BRANCH   4  19
ATOM     19  C   UNL     1      48.315   7.733  14.758  0.00  0.00    +0.000 C 
BRANCH  19  20
ATOM     20  N   UNL     1      47.128   7.417  13.993  0.00  0.00    +0.000 N 
ATOM     21  C   UNL     1      47.066   6.269  13.245  0.00  0.00    +0.000 C 
ATOM     22  O   UNL     1      47.989   5.461  13.199  0.00  0.00    +0.000 OA
ATOM     23  H   UNL     1      46.459   8.162  13.809  0.00  0.00    +0.000 HD
BRANCH  21  24
ATOM     24  C   UNL     1      45.802   6.014  12.556  0.00  0.00    +0.000 A 
ATOM     25  C   UNL     1      45.087   7.069  12.007  0.00  0.00    +0.000 A 
ATOM     26  S   UNL     1      43.642   6.579  11.246  0.00  0.00    +0.000 S 
ATOM     27  C   UNL     1      43.910   4.950  11.659  0.00  0.00    +0.000 A 
ATOM     28  N   UNL     1      43.012   3.984  11.331  0.00  0.00    +0.000 NA
ATOM     29  C   UNL     1      43.332   2.800  11.734  0.00  0.00    +0.000 A 
ATOM     30  N   UNL     1      44.474   2.490  12.430  0.00  0.00    +0.000 N 
ATOM     31  C   UNL     1      45.427   3.426  12.755  0.00  0.00    +0.000 A 
ATOM     32  O   UNL     1      46.467   3.108  13.318  0.00  0.00    +0.000 OA
ATOM     33  C   UNL     1      45.099   4.777  12.343  0.00  0.00    +0.000 A 
ATOM     34  H   UNL     1      44.674   1.539  12.700  0.00  0.00    +0.000 HD
ENDBRANCH  21  24
ENDBRANCH  19  20
ENDBRANCH   4  19
TORSDOF 7
ENDMDL
