MODEL 1
REMARK VINA RESULT:    -8.267      0.000      0.000
REMARK INTER + INTRA:         -11.930
REMARK INTER:                 -11.167
REMARK INTRA:                  -0.763
REMARK UNBOUND:                -0.763
REMARK  Name = 
REMARK  8 active torsions:
REMARK  status: ('A' for Active; 'I' for Inactive)
REMARK    1  A    between atoms: C_1  and  C_2
REMARK    2  A    between atoms: C_2  and  C_3
REMARK    3  A    between atoms: C_2  and  C_14
REMARK    4  A    between atoms: C_3  and  N_4
REMARK    5  A    between atoms: N_4  and  C_5
REMARK    6  A    between atoms: C_8  and  C_9
REMARK    7  A    between atoms: C_18  and  N_19
REMARK    8  A    between atoms: N_22  and  C_23
REMARK                            x       y       z     vdW  Elec       q    Type
REMARK                         _______ _______ _______ _____ _____    ______ ____
ROOT
ATOM      1  C   UNL     1      42.861   5.492  12.323  0.00  0.00    +0.000 C 
ATOM      2  C   UNL     1      43.877   4.405  12.694  0.00  0.00    +0.000 C 
ENDROOT
BRANCH   2   3
ATOM      3  C   UNL     1      45.272   5.008  12.863  0.00  0.00    +0.000 A 
ATOM      4  C   UNL     1      45.803   5.877  11.905  0.00  0.00    +0.000 A 
ATOM      5  C   UNL     1      47.053   6.464  12.107  0.00  0.00    +0.000 A 
ATOM      6  C   UNL     1      47.775   6.210  13.276  0.00  0.00    +0.000 A 
ATOM      7  C   UNL     1      47.274   5.364  14.271  0.00  0.00    +0.000 A 
ATOM      8  C   UNL     1      46.037   4.749  14.018  0.00  0.00    +0.000 A 
BRANCH   7   9
ATOM      9  N   UNL     1      47.919   5.234  15.484  0.00  0.00    +0.000 N 
ATOM     10  C   UNL     1      48.693   6.346  16.051  0.00  0.00    +0.000 C 
ATOM     11  C   UNL     1      49.949   5.788  16.750  0.00  0.00    +0.000 C 
ATOM     12  N   UNL     1      49.618   4.803  17.802  0.00  0.00    +0.000 NA
ATOM     13  C   UNL     1      50.842   4.291  18.413  0.00  0.00    +0.000 C 
ATOM     14  C   UNL     1      48.822   3.702  17.205  0.00  0.00    +0.000 C 
ATOM     15  C   UNL     1      47.552   4.199  16.463  0.00  0.00    +0.000 C 
ENDBRANCH   7   9
ENDBRANCH   2   3
BRANCH   2  16
ATOM     16  C   UNL     1      43.925   3.258  11.652  0.00  0.00    +0.000 C 
BRANCH  16  17
ATOM     17  N   UNL     1      43.601   3.701  10.282  0.00  0.00    +0.000 N 
ATOM     18  H   UNL     1      43.368   4.692  10.233  0.00  0.00    +0.000 HD
BRANCH  17  19
ATOM     19  C   UNL     1      44.552   3.370   9.301  0.00  0.00    +0.000 A 
ATOM     20  C   UNL     1      45.140   4.282   8.431  0.00  0.00    +0.000 A 
ATOM     21  N   UNL     1      46.079   3.985   7.509  0.00  0.00    +0.000 NA
ATOM     22  C   UNL     1      46.480   2.694   7.490  0.00  0.00    +0.000 A 
ATOM     23  N   UNL     1      46.039   1.722   8.307  0.00  0.00    +0.000 NA
ATOM     24  C   UNL     1      45.101   2.098   9.205  0.00  0.00    +0.000 A 
BRANCH  22  25
ATOM     25  C   UNL     1      47.514   2.342   6.447  0.00  0.00    +0.000 C 
ATOM     26  N   UNL     1      47.549   3.170   5.348  0.00  0.00    +0.000 N 
ATOM     27  O   UNL     1      48.288   1.391   6.533  0.00  0.00    +0.000 OA
ATOM     28  H   UNL     1      46.915   3.957   5.286  0.00  0.00    +0.000 HD
ATOM     29  H   UNL     1      48.226   2.994   4.621  0.00  0.00    +0.000 HD
ENDBRANCH  22  25
ENDBRANCH  17  19
ENDBRANCH  16  17
ENDBRANCH   2  16
TORSDOF 6
ENDMDL
MODEL 2
REMARK VINA RESULT:    -7.632      3.050      4.291
REMARK INTER + INTRA:         -11.071
REMARK INTER:                 -10.361
REMARK INTRA:                  -0.710
REMARK UNBOUND:                -0.763
REMARK  Name = 
REMARK  8 active torsions:
REMARK  status: ('A' for Active; 'I' for Inactive)
REMARK    1  A    between atoms: C_1  and  C_2
REMARK    2  A    between atoms: C_2  and  C_3
REMARK    3  A    between atoms: C_2  and  C_14
REMARK    4  A    between atoms: C_3  and  N_4
REMARK    5  A    between atoms: N_4  and  C_5
REMARK    6  A    between atoms: C_8  and  C_9
REMARK    7  A    between atoms: C_18  and  N_19
REMARK    8  A    between atoms: N_22  and  C_23
REMARK                            x       y       z     vdW  Elec       q    Type
REMARK                         _______ _______ _______ _____ _____    ______ ____
ROOT
ATOM      1  C   UNL     1      45.947   4.168  13.024  0.00  0.00    +0.000 C 
ATOM      2  C   UNL     1      45.569   5.017  11.805  0.00  0.00    +0.000 C 
ENDROOT
BRANCH   2   3
ATOM      3  C   UNL     1      45.956   6.479  12.027  0.00  0.00    +0.000 A 
ATOM      4  C   UNL     1      45.050   7.391  12.576  0.00  0.00    +0.000 A 
ATOM      5  C   UNL     1      45.443   8.706  12.826  0.00  0.00    +0.000 A 
ATOM      6  C   UNL     1      46.750   9.120  12.554  0.00  0.00    +0.000 A 
ATOM      7  C   UNL     1      47.697   8.237  12.024  0.00  0.00    +0.000 A 
ATOM      8  C   UNL     1      47.258   6.934  11.736  0.00  0.00    +0.000 A 
BRANCH   7   9
ATOM      9  N   UNL     1      49.020   8.607  11.898  0.00  0.00    +0.000 N 
ATOM     10  C   UNL     1      49.426  10.013  12.013  0.00  0.00    +0.000 C 
ATOM     11  C   UNL     1      50.557  10.301  11.005  0.00  0.00    +0.000 C 
ATOM     12  N   UNL     1      51.722   9.412  11.197  0.00  0.00    +0.000 NA
ATOM     13  C   UNL     1      52.751   9.712  10.204  0.00  0.00    +0.000 C 
ATOM     14  C   UNL     1      51.280   8.000  11.093  0.00  0.00    +0.000 C 
ATOM     15  C   UNL     1      50.124   7.648  12.067  0.00  0.00    +0.000 C 
ENDBRANCH   7   9
ENDBRANCH   2   3
BRANCH   2  16
ATOM     16  C   UNL     1      44.059   4.922  11.462  0.00  0.00    +0.000 C 
BRANCH  16  17
ATOM     17  N   UNL     1      43.797   4.784  10.016  0.00  0.00    +0.000 N 
ATOM     18  H   UNL     1      43.717   5.683   9.543  0.00  0.00    +0.000 HD
BRANCH  17  19
ATOM     19  C   UNL     1      44.681   3.940   9.321  0.00  0.00    +0.000 A 
ATOM     20  C   UNL     1      44.695   2.553   9.424  0.00  0.00    +0.000 A 
ATOM     21  N   UNL     1      45.513   1.729   8.738  0.00  0.00    +0.000 NA
ATOM     22  C   UNL     1      46.343   2.339   7.862  0.00  0.00    +0.000 A 
ATOM     23  N   UNL     1      46.398   3.661   7.621  0.00  0.00    +0.000 NA
ATOM     24  C   UNL     1      45.546   4.419   8.346  0.00  0.00    +0.000 A 
BRANCH  22  25
ATOM     25  C   UNL     1      47.282   1.431   7.103  0.00  0.00    +0.000 C 
ATOM     26  N   UNL     1      48.389   2.046   6.564  0.00  0.00    +0.000 N 
ATOM     27  O   UNL     1      47.106   0.224   6.952  0.00  0.00    +0.000 OA
ATOM     28  H   UNL     1      48.532   3.039   6.698  0.00  0.00    +0.000 HD
ATOM     29  H   UNL     1      49.060   1.491   6.055  0.00  0.00    +0.000 HD
ENDBRANCH  22  25
ENDBRANCH  17  19
ENDBRANCH  16  17
ENDBRANCH   2  16
TORSDOF 6
ENDMDL
MODEL 3
REMARK VINA RESULT:    -7.482      2.092      2.804
REMARK INTER + INTRA:         -10.870
REMARK INTER:                 -10.244
REMARK INTRA:                  -0.626
REMARK UNBOUND:                -0.763
REMARK  Name = 
REMARK  8 active torsions:
REMARK  status: ('A' for Active; 'I' for Inactive)
REMARK    1  A    between atoms: C_1  and  C_2
REMARK    2  A    between atoms: C_2  and  C_3
REMARK    3  A    between atoms: C_2  and  C_14
REMARK    4  A    between atoms: C_3  and  N_4
REMARK    5  A    between atoms: N_4  and  C_5
REMARK    6  A    between atoms: C_8  and  C_9
REMARK    7  A    between atoms: C_18  and  N_19
REMARK    8  A    between atoms: N_22  and  C_23
REMARK                            x       y       z     vdW  Elec       q    Type
REMARK                         _______ _______ _______ _____ _____    ______ ____
ROOT
ATOM      1  C   UNL     1      45.899   3.888  12.975  0.00  0.00    +0.000 C 
ATOM      2  C   UNL     1      45.528   4.889  11.875  0.00  0.00    +0.000 C 
ENDROOT
BRANCH   2   3
ATOM      3  C   UNL     1      45.877   6.314  12.306  0.00  0.00    +0.000 A 
ATOM      4  C   UNL     1      45.042   7.389  11.987  0.00  0.00    +0.000 A 
ATOM      5  C   UNL     1      45.347   8.673  12.441  0.00  0.00    +0.000 A 
ATOM      6  C   UNL     1      46.475   8.894  13.237  0.00  0.00    +0.000 A 
ATOM      7  C   UNL     1      47.328   7.845  13.598  0.00  0.00    +0.000 A 
ATOM      8  C   UNL     1      47.022   6.574  13.085  0.00  0.00    +0.000 A 
BRANCH   7   9
ATOM      9  N   UNL     1      48.351   8.041  14.503  0.00  0.00    +0.000 N 
ATOM     10  C   UNL     1      48.242   9.057  15.558  0.00  0.00    +0.000 C 
ATOM     11  C   UNL     1      49.619   9.719  15.770  0.00  0.00    +0.000 C 
ATOM     12  N   UNL     1      50.671   8.736  16.108  0.00  0.00    +0.000 NA
ATOM     13  C   UNL     1      51.954   9.413  16.276  0.00  0.00    +0.000 C 
ATOM     14  C   UNL     1      50.746   7.714  15.036  0.00  0.00    +0.000 C 
ATOM     15  C   UNL     1      49.384   7.024  14.754  0.00  0.00    +0.000 C 
ENDBRANCH   7   9
ENDBRANCH   2   3
BRANCH   2  16
ATOM     16  C   UNL     1      44.029   4.812  11.486  0.00  0.00    +0.000 C 
BRANCH  16  17
ATOM     17  N   UNL     1      43.805   4.799  10.027  0.00  0.00    +0.000 N 
ATOM     18  H   UNL     1      43.716   5.735   9.633  0.00  0.00    +0.000 HD
BRANCH  17  19
ATOM     19  C   UNL     1      44.725   4.038   9.283  0.00  0.00    +0.000 A 
ATOM     20  C   UNL     1      44.788   2.649   9.288  0.00  0.00    +0.000 A 
ATOM     21  N   UNL     1      45.640   1.905   8.554  0.00  0.00    +0.000 NA
ATOM     22  C   UNL     1      46.455   2.604   7.732  0.00  0.00    +0.000 A 
ATOM     23  N   UNL     1      46.463   3.941   7.586  0.00  0.00    +0.000 NA
ATOM     24  C   UNL     1      45.579   4.616   8.353  0.00  0.00    +0.000 A 
BRANCH  22  25
ATOM     25  C   UNL     1      47.431   1.786   6.921  0.00  0.00    +0.000 C 
ATOM     26  N   UNL     1      48.515   2.479   6.430  0.00  0.00    +0.000 N 
ATOM     27  O   UNL     1      47.305   0.586   6.690  0.00  0.00    +0.000 OA
ATOM     28  H   UNL     1      48.618   3.466   6.630  0.00  0.00    +0.000 HD
ATOM     29  H   UNL     1      49.209   1.986   5.890  0.00  0.00    +0.000 HD
ENDBRANCH  22  25
ENDBRANCH  17  19
ENDBRANCH  16  17
ENDBRANCH   2  16
TORSDOF 6
ENDMDL
MODEL 4
REMARK VINA RESULT:    -7.357      2.496      7.895
REMARK INTER + INTRA:         -10.701
REMARK INTER:                  -9.812
REMARK INTRA:                  -0.889
REMARK UNBOUND:                -0.763
REMARK  Name = 
REMARK  8 active torsions:
REMARK  status: ('A' for Active; 'I' for Inactive)
REMARK    1  A    between atoms: C_1  and  C_2
REMARK    2  A    between atoms: C_2  and  C_3
REMARK    3  A    between atoms: C_2  and  C_14
REMARK    4  A    between atoms: C_3  and  N_4
REMARK    5  A    between atoms: N_4  and  C_5
REMARK    6  A    between atoms: C_8  and  C_9
REMARK    7  A    between atoms: C_18  and  N_19
REMARK    8  A    between atoms: N_22  and  C_23
REMARK                            x       y       z     vdW  Elec       q    Type
REMARK                         _______ _______ _______ _____ _____    ______ ____
ROOT
ATOM      1  C   UNL     1      45.541   8.919  12.892  0.00  0.00    +0.000 C 
ATOM      2  C   UNL     1      46.220   7.965  11.904  0.00  0.00    +0.000 C 
ENDROOT
BRANCH   2   3
ATOM      3  C   UNL     1      45.306   6.781  11.586  0.00  0.00    +0.000 A 
ATOM      4  C   UNL     1      44.031   6.681  12.151  0.00  0.00    +0.000 A 
ATOM      5  C   UNL     1      43.190   5.625  11.801  0.00  0.00    +0.000 A 
ATOM      6  C   UNL     1      43.601   4.670  10.866  0.00  0.00    +0.000 A 
ATOM      7  C   UNL     1      44.859   4.741  10.259  0.00  0.00    +0.000 A 
ATOM      8  C   UNL     1      45.703   5.787  10.668  0.00  0.00    +0.000 A 
BRANCH   7   9
ATOM      9  N   UNL     1      45.201   3.887   9.231  0.00  0.00    +0.000 N 
ATOM     10  C   UNL     1      44.631   2.536   9.150  0.00  0.00    +0.000 C 
ATOM     11  C   UNL     1      45.708   1.559   8.637  0.00  0.00    +0.000 C 
ATOM     12  N   UNL     1      46.259   1.965   7.326  0.00  0.00    +0.000 NA
ATOM     13  C   UNL     1      47.288   1.020   6.900  0.00  0.00    +0.000 C 
ATOM     14  C   UNL     1      46.811   3.338   7.433  0.00  0.00    +0.000 C 
ATOM     15  C   UNL     1      45.781   4.370   7.968  0.00  0.00    +0.000 C 
ENDBRANCH   7   9
ENDBRANCH   2   3
BRANCH   2  16
ATOM     16  C   UNL     1      47.586   7.447  12.423  0.00  0.00    +0.000 C 
BRANCH  16  17
ATOM     17  N   UNL     1      47.744   7.581  13.884  0.00  0.00    +0.000 N 
ATOM     18  H   UNL     1      47.028   8.172  14.305  0.00  0.00    +0.000 HD
BRANCH  17  19
ATOM     19  C   UNL     1      47.860   6.370  14.591  0.00  0.00    +0.000 A 
ATOM     20  C   UNL     1      48.550   6.218  15.789  0.00  0.00    +0.000 A 
ATOM     21  N   UNL     1      48.641   5.073  16.495  0.00  0.00    +0.000 NA
ATOM     22  C   UNL     1      47.960   4.024  15.983  0.00  0.00    +0.000 A 
ATOM     23  N   UNL     1      47.209   4.044  14.867  0.00  0.00    +0.000 NA
ATOM     24  C   UNL     1      47.166   5.228  14.217  0.00  0.00    +0.000 A 
BRANCH  22  25
ATOM     25  C   UNL     1      48.072   2.728  16.750  0.00  0.00    +0.000 C 
ATOM     26  N   UNL     1      47.131   2.546  17.739  0.00  0.00    +0.000 N 
ATOM     27  O   UNL     1      48.926   1.870  16.541  0.00  0.00    +0.000 OA
ATOM     28  H   UNL     1      46.424   3.252  17.902  0.00  0.00    +0.000 HD
ATOM     29  H   UNL     1      47.146   1.695  18.280  0.00  0.00    +0.000 HD
ENDBRANCH  22  25
ENDBRANCH  17  19
ENDBRANCH  16  17
ENDBRANCH   2  16
TORSDOF 6
ENDMDL
MODEL 5
REMARK VINA RESULT:    -6.583      2.829      8.299
REMARK INTER + INTRA:          -9.655
REMARK INTER:                  -8.875
REMARK INTRA:                  -0.780
REMARK UNBOUND:                -0.763
REMARK  Name = 
REMARK  8 active torsions:
REMARK  status: ('A' for Active; 'I' for Inactive)
REMARK    1  A    between atoms: C_1  and  C_2
REMARK    2  A    between atoms: C_2  and  C_3
REMARK    3  A    between atoms: C_2  and  C_14
REMARK    4  A    between atoms: C_3  and  N_4
REMARK    5  A    between atoms: N_4  and  C_5
REMARK    6  A    between atoms: C_8  and  C_9
REMARK    7  A    between atoms: C_18  and  N_19
REMARK    8  A    between atoms: N_22  and  C_23
REMARK                            x       y       z     vdW  Elec       q    Type
REMARK                         _______ _______ _______ _____ _____    ______ ____
ROOT
ATOM      1  C   UNL     1      49.837   7.851  12.518  0.00  0.00    +0.000 C 
ATOM      2  C   UNL     1      48.780   7.324  13.494  0.00  0.00    +0.000 C 
ENDROOT
BRANCH   2   3
ATOM      3  C   UNL     1      47.384   7.416  12.877  0.00  0.00    +0.000 A 
ATOM      4  C   UNL     1      46.635   8.593  12.961  0.00  0.00    +0.000 A 
ATOM      5  C   UNL     1      45.389   8.677  12.338  0.00  0.00    +0.000 A 
ATOM      6  C   UNL     1      44.887   7.596  11.607  0.00  0.00    +0.000 A 
ATOM      7  C   UNL     1      45.611   6.406  11.479  0.00  0.00    +0.000 A 
ATOM      8  C   UNL     1      46.839   6.334  12.157  0.00  0.00    +0.000 A 
BRANCH   7   9
ATOM      9  N   UNL     1      45.182   5.401  10.637  0.00  0.00    +0.000 N 
ATOM     10  C   UNL     1      43.957   4.644  10.925  0.00  0.00    +0.000 C 
ATOM     11  C   UNL     1      44.164   3.169  10.525  0.00  0.00    +0.000 C 
ATOM     12  N   UNL     1      44.539   3.018   9.103  0.00  0.00    +0.000 NA
ATOM     13  C   UNL     1      44.745   1.608   8.785  0.00  0.00    +0.000 C 
ATOM     14  C   UNL     1      45.767   3.807   8.836  0.00  0.00    +0.000 C 
ATOM     15  C   UNL     1      45.634   5.300   9.240  0.00  0.00    +0.000 C 
ENDBRANCH   7   9
ENDBRANCH   2   3
BRANCH   2  16
ATOM     16  C   UNL     1      48.802   8.072  14.852  0.00  0.00    +0.000 C 
BRANCH  16  17
ATOM     17  N   UNL     1      48.194   7.301  15.953  0.00  0.00    +0.000 N 
ATOM     18  H   UNL     1      47.202   7.118  15.805  0.00  0.00    +0.000 HD
BRANCH  17  19
ATOM     19  C   UNL     1      48.866   6.115  16.303  0.00  0.00    +0.000 A 
ATOM     20  C   UNL     1      50.181   6.055  16.749  0.00  0.00    +0.000 A 
ATOM     21  N   UNL     1      50.827   4.931  17.119  0.00  0.00    +0.000 NA
ATOM     22  C   UNL     1      50.087   3.800  17.077  0.00  0.00    +0.000 A 
ATOM     23  N   UNL     1      48.793   3.721  16.720  0.00  0.00    +0.000 NA
ATOM     24  C   UNL     1      48.216   4.890  16.364  0.00  0.00    +0.000 A 
BRANCH  22  25
ATOM     25  C   UNL     1      50.804   2.529  17.467  0.00  0.00    +0.000 C 
ATOM     26  N   UNL     1      51.850   2.689  18.347  0.00  0.00    +0.000 N 
ATOM     27  O   UNL     1      50.508   1.411  17.051  0.00  0.00    +0.000 OA
ATOM     28  H   UNL     1      52.085   3.611  18.693  0.00  0.00    +0.000 HD
ATOM     29  H   UNL     1      52.361   1.876  18.655  0.00  0.00    +0.000 HD
ENDBRANCH  22  25
ENDBRANCH  17  19
ENDBRANCH  16  17
ENDBRANCH   2  16
TORSDOF 6
ENDMDL
MODEL 6
REMARK VINA RESULT:    -6.486      3.505      7.918
REMARK INTER + INTRA:          -9.524
REMARK INTER:                  -8.531
REMARK INTRA:                  -0.993
REMARK UNBOUND:                -0.763
REMARK  Name = 
REMARK  8 active torsions:
REMARK  status: ('A' for Active; 'I' for Inactive)
REMARK    1  A    between atoms: C_1  and  C_2
REMARK    2  A    between atoms: C_2  and  C_3
REMARK    3  A    between atoms: C_2  and  C_14
REMARK    4  A    between atoms: C_3  and  N_4
REMARK    5  A    between atoms: N_4  and  C_5
REMARK    6  A    between atoms: C_8  and  C_9
REMARK    7  A    between atoms: C_18  and  N_19
REMARK    8  A    between atoms: N_22  and  C_23
REMARK                            x       y       z     vdW  Elec       q    Type
REMARK                         _______ _______ _______ _____ _____    ______ ____
ROOT
ATOM      1  C   UNL     1      48.630  10.596  13.533  0.00  0.00    +0.000 C 
ATOM      2  C   UNL     1      48.442   9.490  12.488  0.00  0.00    +0.000 C 
ENDROOT
BRANCH   2   3
ATOM      3  C   UNL     1      46.964   9.336  12.128  0.00  0.00    +0.000 A 
ATOM      4  C   UNL     1      46.170  10.451  11.845  0.00  0.00    +0.000 A 
ATOM      5  C   UNL     1      44.839  10.285  11.459  0.00  0.00    +0.000 A 
ATOM      6  C   UNL     1      44.293   9.004  11.329  0.00  0.00    +0.000 A 
ATOM      7  C   UNL     1      45.056   7.859  11.581  0.00  0.00    +0.000 A 
ATOM      8  C   UNL     1      46.377   8.059  12.015  0.00  0.00    +0.000 A 
BRANCH   7   9
ATOM      9  N   UNL     1      44.560   6.601  11.307  0.00  0.00    +0.000 N 
ATOM     10  C   UNL     1      43.115   6.340  11.318  0.00  0.00    +0.000 C 
ATOM     11  C   UNL     1      42.855   4.938  11.908  0.00  0.00    +0.000 C 
ATOM     12  N   UNL     1      43.565   3.875  11.165  0.00  0.00    +0.000 NA
ATOM     13  C   UNL     1      43.303   2.575  11.778  0.00  0.00    +0.000 C 
ATOM     14  C   UNL     1      45.018   4.174  11.155  0.00  0.00    +0.000 C 
ATOM     15  C   UNL     1      45.348   5.584  10.594  0.00  0.00    +0.000 C 
ENDBRANCH   7   9
ENDBRANCH   2   3
BRANCH   2  16
ATOM     16  C   UNL     1      49.011   8.127  12.959  0.00  0.00    +0.000 C 
BRANCH  16  17
ATOM     17  N   UNL     1      49.348   8.100  14.395  0.00  0.00    +0.000 N 
ATOM     18  H   UNL     1      49.040   8.938  14.888  0.00  0.00    +0.000 HD
BRANCH  17  19
ATOM     19  C   UNL     1      48.942   6.945  15.088  0.00  0.00    +0.000 A 
ATOM     20  C   UNL     1      49.210   6.693  16.429  0.00  0.00    +0.000 A 
ATOM     21  N   UNL     1      48.799   5.607  17.115  0.00  0.00    +0.000 NA
ATOM     22  C   UNL     1      48.034   4.739  16.416  0.00  0.00    +0.000 A 
ATOM     23  N   UNL     1      47.652   4.884  15.134  0.00  0.00    +0.000 NA
ATOM     24  C   UNL     1      48.103   5.999  14.516  0.00  0.00    +0.000 A 
BRANCH  22  25
ATOM     25  C   UNL     1      47.584   3.507  17.164  0.00  0.00    +0.000 C 
ATOM     26  N   UNL     1      48.593   2.760  17.728  0.00  0.00    +0.000 N 
ATOM     27  O   UNL     1      46.412   3.158  17.283  0.00  0.00    +0.000 OA
ATOM     28  H   UNL     1      49.557   3.056  17.634  0.00  0.00    +0.000 HD
ATOM     29  H   UNL     1      48.356   1.930  18.251  0.00  0.00    +0.000 HD
ENDBRANCH  22  25
ENDBRANCH  17  19
ENDBRANCH  16  17
ENDBRANCH   2  16
TORSDOF 6
ENDMDL
MODEL 7
REMARK VINA RESULT:    -6.329      3.770      8.032
REMARK INTER + INTRA:          -9.312
REMARK INTER:                  -8.292
REMARK INTRA:                  -1.019
REMARK UNBOUND:                -0.763
REMARK  Name = 
REMARK  8 active torsions:
REMARK  status: ('A' for Active; 'I' for Inactive)
REMARK    1  A    between atoms: C_1  and  C_2
REMARK    2  A    between atoms: C_2  and  C_3
REMARK    3  A    between atoms: C_2  and  C_14
REMARK    4  A    between atoms: C_3  and  N_4
REMARK    5  A    between atoms: N_4  and  C_5
REMARK    6  A    between atoms: C_8  and  C_9
REMARK    7  A    between atoms: C_18  and  N_19
REMARK    8  A    between atoms: N_22  and  C_23
REMARK                            x       y       z     vdW  Elec       q    Type
REMARK                         _______ _______ _______ _____ _____    ______ ____
ROOT
ATOM      1  C   UNL     1      49.490  10.560  15.177  0.00  0.00    +0.000 C 
ATOM      2  C   UNL     1      49.374   9.040  15.332  0.00  0.00    +0.000 C 
ENDROOT
BRANCH   2   3
ATOM      3  C   UNL     1      48.826   8.409  14.051  0.00  0.00    +0.000 A 
ATOM      4  C   UNL     1      49.469   8.594  12.824  0.00  0.00    +0.000 A 
ATOM      5  C   UNL     1      48.988   7.960  11.678  0.00  0.00    +0.000 A 
ATOM      6  C   UNL     1      47.875   7.116  11.748  0.00  0.00    +0.000 A 
ATOM      7  C   UNL     1      47.213   6.886  12.958  0.00  0.00    +0.000 A 
ATOM      8  C   UNL     1      47.690   7.576  14.084  0.00  0.00    +0.000 A 
BRANCH   7   9
ATOM      9  N   UNL     1      46.212   5.941  13.050  0.00  0.00    +0.000 N 
ATOM     10  C   UNL     1      46.475   4.615  13.623  0.00  0.00    +0.000 C 
ATOM     11  C   UNL     1      45.676   3.553  12.839  0.00  0.00    +0.000 C 
ATOM     12  N   UNL     1      44.224   3.833  12.834  0.00  0.00    +0.000 NA
ATOM     13  C   UNL     1      43.520   2.812  12.061  0.00  0.00    +0.000 C 
ATOM     14  C   UNL     1      43.989   5.183  12.267  0.00  0.00    +0.000 C 
ATOM     15  C   UNL     1      44.785   6.299  12.997  0.00  0.00    +0.000 C 
ENDBRANCH   7   9
ENDBRANCH   2   3
BRANCH   2  16
ATOM     16  C   UNL     1      48.486   8.634  16.537  0.00  0.00    +0.000 C 
BRANCH  16  17
ATOM     17  N   UNL     1      49.236   7.957  17.612  0.00  0.00    +0.000 N 
ATOM     18  H   UNL     1      48.851   8.142  18.538  0.00  0.00    +0.000 HD
BRANCH  17  19
ATOM     19  C   UNL     1      49.438   6.577  17.430  0.00  0.00    +0.000 A 
ATOM     20  C   UNL     1      50.675   5.981  17.210  0.00  0.00    +0.000 A 
ATOM     21  N   UNL     1      50.888   4.657  17.068  0.00  0.00    +0.000 NA
ATOM     22  C   UNL     1      49.790   3.880  17.197  0.00  0.00    +0.000 A 
ATOM     23  N   UNL     1      48.545   4.315  17.464  0.00  0.00    +0.000 NA
ATOM     24  C   UNL     1      48.413   5.654  17.594  0.00  0.00    +0.000 A 
BRANCH  22  25
ATOM     25  C   UNL     1      50.008   2.396  17.017  0.00  0.00    +0.000 C 
ATOM     26  N   UNL     1      50.889   1.819  17.904  0.00  0.00    +0.000 N 
ATOM     27  O   UNL     1      49.461   1.715  16.153  0.00  0.00    +0.000 OA
ATOM     28  H   UNL     1      51.331   2.383  18.619  0.00  0.00    +0.000 HD
ATOM     29  H   UNL     1      51.068   0.828  17.843  0.00  0.00    +0.000 HD
ENDBRANCH  22  25
ENDBRANCH  17  19
ENDBRANCH  16  17
ENDBRANCH   2  16
TORSDOF 6
ENDMDL
MODEL 8
REMARK VINA RESULT:    -6.087      3.379      8.827
REMARK INTER + INTRA:          -8.984
REMARK INTER:                  -8.383
REMARK INTRA:                  -0.602
REMARK UNBOUND:                -0.763
REMARK  Name = 
REMARK  8 active torsions:
REMARK  status: ('A' for Active; 'I' for Inactive)
REMARK    1  A    between atoms: C_1  and  C_2
REMARK    2  A    between atoms: C_2  and  C_3
REMARK    3  A    between atoms: C_2  and  C_14
REMARK    4  A    between atoms: C_3  and  N_4
REMARK    5  A    between atoms: N_4  and  C_5
REMARK    6  A    between atoms: C_8  and  C_9
REMARK    7  A    between atoms: C_18  and  N_19
REMARK    8  A    between atoms: N_22  and  C_23
REMARK                            x       y       z     vdW  Elec       q    Type
REMARK                         _______ _______ _______ _____ _____    ______ ____
ROOT
ATOM      1  C   UNL     1      47.405   3.795  16.328  0.00  0.00    +0.000 C 
ATOM      2  C   UNL     1      48.004   5.206  16.313  0.00  0.00    +0.000 C 
ENDROOT
BRANCH   2   3
ATOM      3  C   UNL     1      47.862   5.836  14.926  0.00  0.00    +0.000 A 
ATOM      4  C   UNL     1      48.728   6.847  14.501  0.00  0.00    +0.000 A 
ATOM      5  C   UNL     1      48.621   7.365  13.210  0.00  0.00    +0.000 A 
ATOM      6  C   UNL     1      47.663   6.865  12.322  0.00  0.00    +0.000 A 
ATOM      7  C   UNL     1      46.789   5.840  12.697  0.00  0.00    +0.000 A 
ATOM      8  C   UNL     1      46.888   5.372  14.018  0.00  0.00    +0.000 A 
BRANCH   7   9
ATOM      9  N   UNL     1      45.950   5.249  11.775  0.00  0.00    +0.000 N 
ATOM     10  C   UNL     1      44.977   4.227  12.184  0.00  0.00    +0.000 C 
ATOM     11  C   UNL     1      44.882   3.148  11.086  0.00  0.00    +0.000 C 
ATOM     12  N   UNL     1      44.512   3.714   9.771  0.00  0.00    +0.000 NA
ATOM     13  C   UNL     1      44.458   2.654   8.767  0.00  0.00    +0.000 C 
ATOM     14  C   UNL     1      45.500   4.753   9.392  0.00  0.00    +0.000 C 
ATOM     15  C   UNL     1      45.663   5.861  10.468  0.00  0.00    +0.000 C 
ENDBRANCH   7   9
ENDBRANCH   2   3
BRANCH   2  16
ATOM     16  C   UNL     1      49.493   5.223  16.745  0.00  0.00    +0.000 C 
BRANCH  16  17
ATOM     17  N   UNL     1      49.753   4.445  17.972  0.00  0.00    +0.000 N 
ATOM     18  H   UNL     1      48.902   4.068  18.388  0.00  0.00    +0.000 HD
BRANCH  17  19
ATOM     19  C   UNL     1      50.729   3.440  17.853  0.00  0.00    +0.000 A 
ATOM     20  C   UNL     1      52.049   3.567  18.270  0.00  0.00    +0.000 A 
ATOM     21  N   UNL     1      52.987   2.600  18.193  0.00  0.00    +0.000 NA
ATOM     22  C   UNL     1      52.556   1.416  17.703  0.00  0.00    +0.000 A 
ATOM     23  N   UNL     1      51.299   1.138  17.315  0.00  0.00    +0.000 NA
ATOM     24  C   UNL     1      50.417   2.156  17.423  0.00  0.00    +0.000 A 
BRANCH  22  25
ATOM     25  C   UNL     1      53.600   0.331  17.589  0.00  0.00    +0.000 C 
ATOM     26  N   UNL     1      53.385  -0.778  18.376  0.00  0.00    +0.000 N 
ATOM     27  O   UNL     1      54.588   0.394  16.861  0.00  0.00    +0.000 OA
ATOM     28  H   UNL     1      52.565  -0.828  18.969  0.00  0.00    +0.000 HD
ATOM     29  H   UNL     1      54.041  -1.543  18.336  0.00  0.00    +0.000 HD
ENDBRANCH  22  25
ENDBRANCH  17  19
ENDBRANCH  16  17
ENDBRANCH   2  16
TORSDOF 6
ENDMDL
MODEL 9
REMARK VINA RESULT:    -6.014      1.745      2.561
REMARK INTER + INTRA:          -8.886
REMARK INTER:                  -8.228
REMARK INTRA:                  -0.658
REMARK UNBOUND:                -0.763
REMARK  Name = 
REMARK  8 active torsions:
REMARK  status: ('A' for Active; 'I' for Inactive)
REMARK    1  A    between atoms: C_1  and  C_2
REMARK    2  A    between atoms: C_2  and  C_3
REMARK    3  A    between atoms: C_2  and  C_14
REMARK    4  A    between atoms: C_3  and  N_4
REMARK    5  A    between atoms: N_4  and  C_5
REMARK    6  A    between atoms: C_8  and  C_9
REMARK    7  A    between atoms: C_18  and  N_19
REMARK    8  A    between atoms: N_22  and  C_23
REMARK                            x       y       z     vdW  Elec       q    Type
REMARK                         _______ _______ _______ _____ _____    ______ ____
ROOT
ATOM      1  C   UNL     1      45.727   4.609  13.557  0.00  0.00    +0.000 C 
ATOM      2  C   UNL     1      46.309   5.503  12.456  0.00  0.00    +0.000 C 
ENDROOT
BRANCH   2   3
ATOM      3  C   UNL     1      47.190   6.597  13.060  0.00  0.00    +0.000 A 
ATOM      4  C   UNL     1      47.290   7.856  12.460  0.00  0.00    +0.000 A 
ATOM      5  C   UNL     1      48.051   8.859  13.060  0.00  0.00    +0.000 A 
ATOM      6  C   UNL     1      48.701   8.626  14.276  0.00  0.00    +0.000 A 
ATOM      7  C   UNL     1      48.612   7.389  14.922  0.00  0.00    +0.000 A 
ATOM      8  C   UNL     1      47.880   6.383  14.270  0.00  0.00    +0.000 A 
BRANCH   7   9
ATOM      9  N   UNL     1      49.129   7.211  16.189  0.00  0.00    +0.000 N 
ATOM     10  C   UNL     1      48.593   7.956  17.335  0.00  0.00    +0.000 C 
ATOM     11  C   UNL     1      49.750   8.334  18.282  0.00  0.00    +0.000 C 
ATOM     12  N   UNL     1      50.508   7.152  18.746  0.00  0.00    +0.000 NA
ATOM     13  C   UNL     1      51.603   7.569  19.619  0.00  0.00    +0.000 C 
ATOM     14  C   UNL     1      51.021   6.410  17.569  0.00  0.00    +0.000 C 
ATOM     15  C   UNL     1      49.908   6.018  16.560  0.00  0.00    +0.000 C 
ENDBRANCH   7   9
ENDBRANCH   2   3
BRANCH   2  16
ATOM     16  C   UNL     1      45.208   6.146  11.572  0.00  0.00    +0.000 C 
BRANCH  16  17
ATOM     17  N   UNL     1      44.352   5.154  10.893  0.00  0.00    +0.000 N 
ATOM     18  H   UNL     1      43.486   5.558  10.538  0.00  0.00    +0.000 HD
BRANCH  17  19
ATOM     19  C   UNL     1      44.986   4.394   9.893  0.00  0.00    +0.000 A 
ATOM     20  C   UNL     1      44.885   3.013   9.766  0.00  0.00    +0.000 A 
ATOM     21  N   UNL     1      45.459   2.277   8.793  0.00  0.00    +0.000 NA
ATOM     22  C   UNL     1      46.145   2.980   7.865  0.00  0.00    +0.000 A 
ATOM     23  N   UNL     1      46.278   4.319   7.834  0.00  0.00    +0.000 NA
ATOM     24  C   UNL     1      45.673   4.987   8.841  0.00  0.00    +0.000 A 
BRANCH  22  25
ATOM     25  C   UNL     1      46.813   2.167   6.782  0.00  0.00    +0.000 C 
ATOM     26  N   UNL     1      47.241   0.916   7.164  0.00  0.00    +0.000 N 
ATOM     27  O   UNL     1      46.983   2.556   5.629  0.00  0.00    +0.000 OA
ATOM     28  H   UNL     1      47.092   0.597   8.114  0.00  0.00    +0.000 HD
ATOM     29  H   UNL     1      47.685   0.320   6.483  0.00  0.00    +0.000 HD
ENDBRANCH  22  25
ENDBRANCH  17  19
ENDBRANCH  16  17
ENDBRANCH   2  16
TORSDOF 6
ENDMDL
