MODEL 1
REMARK VINA RESULT:    -8.412      0.000      0.000
REMARK INTER + INTRA:         -12.801
REMARK INTER:                 -11.362
REMARK INTRA:                  -1.439
REMARK UNBOUND:                -1.439
REMARK  Name = 
REMARK  6 active torsions:
REMARK  status: ('A' for Active; 'I' for Inactive)
REMARK    1  A    between atoms: C_2  and  C_3
REMARK    2  A    between atoms: C_6  and  N_7
REMARK    3  A    between atoms: N_7  and  C_8
REMARK    4  A    between atoms: C_8  and  C_9
REMARK    5  A    between atoms: C_13  and  C_14
REMARK    6  A    between atoms: C_18  and  C_19
REMARK                            x       y       z     vdW  Elec       q    Type
REMARK                         _______ _______ _______ _____ _____    ______ ____
ROOT
ATOM      1  C   UNL     1      45.046   5.298  12.153  0.00  0.00    +0.000 A 
ATOM      2  C   UNL     1      45.516   4.301  13.022  0.00  0.00    +0.000 A 
ATOM      3  C   UNL     1      46.783   4.372  13.592  0.00  0.00    +0.000 A 
ATOM      4  C   UNL     1      47.610   5.455  13.304  0.00  0.00    +0.000 A 
ATOM      5  C   UNL     1      47.167   6.507  12.488  0.00  0.00    +0.000 A 
ATOM      6  C   UNL     1      45.863   6.427  11.965  0.00  0.00    +0.000 A 
ENDROOT
BRANCH   5   7
ATOM      7  C   UNL     1      48.066   7.611  12.097  0.00  0.00    +0.000 A 
ATOM      8  C   UNL     1      47.601   8.939  12.082  0.00  0.00    +0.000 A 
ATOM      9  C   UNL     1      48.444  10.002  11.753  0.00  0.00    +0.000 A 
ATOM     10  C   UNL     1      49.779   9.759  11.443  0.00  0.00    +0.000 A 
ATOM     11  C   UNL     1      50.270   8.451  11.461  0.00  0.00    +0.000 A 
ATOM     12  C   UNL     1      49.417   7.388  11.781  0.00  0.00    +0.000 A 
BRANCH  11  13
ATOM     13  C   UNL     1      51.651   8.200  11.171  0.00  0.00    +0.000 C 
ATOM     14  N   UNL     1      52.767   7.992  10.926  0.00  0.00    +0.000 NA
ENDBRANCH  11  13
ENDBRANCH   5   7
BRANCH   1  15
ATOM     15  C   UNL     1      43.792   5.076  11.313  0.00  0.00    +0.000 C 
ATOM     16  C   UNL     1      42.416   5.363  11.918  0.00  0.00    +0.000 C 
ATOM     17  C   UNL     1      43.034   6.356  10.997  0.00  0.00    +0.000 C 
BRANCH  15  18
ATOM     18  N   UNL     1      43.795   3.874  10.472  0.00  0.00    +0.000 N 
ATOM     19  H   UNL     1      43.275   3.081  10.834  0.00  0.00    +0.000 HD
BRANCH  18  23
ATOM     20  C   UNL     1      46.585   2.575   7.579  0.00  0.00    +0.000 A 
ATOM     21  C   UNL     1      46.307   3.939   7.695  0.00  0.00    +0.000 A 
ATOM     22  C   UNL     1      45.378   4.391   8.643  0.00  0.00    +0.000 A 
ATOM     23  C   UNL     1      44.762   3.503   9.524  0.00  0.00    +0.000 A 
ATOM     24  C   UNL     1      45.030   2.133   9.375  0.00  0.00    +0.000 A 
ATOM     25  C   UNL     1      45.938   1.669   8.414  0.00  0.00    +0.000 A 
BRANCH  20  27
ATOM     26  N   UNL     1      48.276   1.727   5.804  0.00  0.00    +0.000 NA
ATOM     27  C   UNL     1      47.519   2.107   6.599  0.00  0.00    +0.000 C 
ENDBRANCH  20  27
ENDBRANCH  18  23
ENDBRANCH  15  18
ENDBRANCH   1  15
TORSDOF 6
ENDMDL
MODEL 2
REMARK VINA RESULT:    -8.135      2.399      3.914
REMARK INTER + INTRA:         -12.427
REMARK INTER:                 -11.440
REMARK INTRA:                  -0.987
REMARK UNBOUND:                -1.439
REMARK  Name = 
REMARK  6 active torsions:
REMARK  status: ('A' for Active; 'I' for Inactive)
REMARK    1  A    between atoms: C_2  and  C_3
REMARK    2  A    between atoms: C_6  and  N_7
REMARK    3  A    between atoms: N_7  and  C_8
REMARK    4  A    between atoms: C_8  and  C_9
REMARK    5  A    between atoms: C_13  and  C_14
REMARK    6  A    between atoms: C_18  and  C_19
REMARK                            x       y       z     vdW  Elec       q    Type
REMARK                         _______ _______ _______ _____ _____    ______ ____
ROOT
ATOM      1  C   UNL     1      45.337   5.422  11.827  0.00  0.00    +0.000 A 
ATOM      2  C   UNL     1      46.026   6.461  11.182  0.00  0.00    +0.000 A 
ATOM      3  C   UNL     1      47.174   7.024  11.730  0.00  0.00    +0.000 A 
ATOM      4  C   UNL     1      47.663   6.548  12.944  0.00  0.00    +0.000 A 
ATOM      5  C   UNL     1      47.046   5.473  13.602  0.00  0.00    +0.000 A 
ATOM      6  C   UNL     1      45.914   4.897  12.997  0.00  0.00    +0.000 A 
ENDROOT
BRANCH   5   7
ATOM      7  C   UNL     1      47.495   5.024  14.935  0.00  0.00    +0.000 A 
ATOM      8  C   UNL     1      47.171   3.737  15.402  0.00  0.00    +0.000 A 
ATOM      9  C   UNL     1      47.618   3.278  16.643  0.00  0.00    +0.000 A 
ATOM     10  C   UNL     1      48.412   4.096  17.439  0.00  0.00    +0.000 A 
ATOM     11  C   UNL     1      48.759   5.375  16.997  0.00  0.00    +0.000 A 
ATOM     12  C   UNL     1      48.298   5.834  15.756  0.00  0.00    +0.000 A 
BRANCH  11  13
ATOM     13  C   UNL     1      49.601   6.210  17.802  0.00  0.00    +0.000 C 
ATOM     14  N   UNL     1      50.275   6.886  18.462  0.00  0.00    +0.000 NA
ENDBRANCH  11  13
ENDBRANCH   5   7
BRANCH   1  15
ATOM     15  C   UNL     1      43.938   5.012  11.377  0.00  0.00    +0.000 C 
ATOM     16  C   UNL     1      42.780   5.053  12.377  0.00  0.00    +0.000 C 
ATOM     17  C   UNL     1      42.934   6.155  11.388  0.00  0.00    +0.000 C 
BRANCH  15  18
ATOM     18  N   UNL     1      43.872   3.847  10.489  0.00  0.00    +0.000 N 
ATOM     19  H   UNL     1      43.316   3.067  10.826  0.00  0.00    +0.000 HD
BRANCH  18  23
ATOM     20  C   UNL     1      46.574   2.516   7.528  0.00  0.00    +0.000 A 
ATOM     21  C   UNL     1      46.273   3.877   7.615  0.00  0.00    +0.000 A 
ATOM     22  C   UNL     1      45.372   4.339   8.585  0.00  0.00    +0.000 A 
ATOM     23  C   UNL     1      44.808   3.467   9.515  0.00  0.00    +0.000 A 
ATOM     24  C   UNL     1      45.099   2.098   9.396  0.00  0.00    +0.000 A 
ATOM     25  C   UNL     1      45.978   1.623   8.413  0.00  0.00    +0.000 A 
BRANCH  20  27
ATOM     26  N   UNL     1      48.212   1.648   5.714  0.00  0.00    +0.000 NA
ATOM     27  C   UNL     1      47.479   2.037   6.526  0.00  0.00    +0.000 C 
ENDBRANCH  20  27
ENDBRANCH  18  23
ENDBRANCH  15  18
ENDBRANCH   1  15
TORSDOF 6
ENDMDL
MODEL 3
REMARK VINA RESULT:    -7.490      1.850      2.545
REMARK INTER + INTRA:         -11.556
REMARK INTER:                 -10.680
REMARK INTRA:                  -0.875
REMARK UNBOUND:                -1.439
REMARK  Name = 
REMARK  6 active torsions:
REMARK  status: ('A' for Active; 'I' for Inactive)
REMARK    1  A    between atoms: C_2  and  C_3
REMARK    2  A    between atoms: C_6  and  N_7
REMARK    3  A    between atoms: N_7  and  C_8
REMARK    4  A    between atoms: C_8  and  C_9
REMARK    5  A    between atoms: C_13  and  C_14
REMARK    6  A    between atoms: C_18  and  C_19
REMARK                            x       y       z     vdW  Elec       q    Type
REMARK                         _______ _______ _______ _____ _____    ______ ____
ROOT
ATOM      1  C   UNL     1      44.828   5.874  11.539  0.00  0.00    +0.000 A 
ATOM      2  C   UNL     1      44.007   7.002  11.377  0.00  0.00    +0.000 A 
ATOM      3  C   UNL     1      44.494   8.290  11.575  0.00  0.00    +0.000 A 
ATOM      4  C   UNL     1      45.826   8.476  11.937  0.00  0.00    +0.000 A 
ATOM      5  C   UNL     1      46.703   7.387  12.057  0.00  0.00    +0.000 A 
ATOM      6  C   UNL     1      46.190   6.101  11.804  0.00  0.00    +0.000 A 
ENDROOT
BRANCH   5   7
ATOM      7  C   UNL     1      48.088   7.561  12.534  0.00  0.00    +0.000 A 
ATOM      8  C   UNL     1      49.059   8.157  11.707  0.00  0.00    +0.000 A 
ATOM      9  C   UNL     1      50.366   8.366  12.152  0.00  0.00    +0.000 A 
ATOM     10  C   UNL     1      50.727   7.995  13.444  0.00  0.00    +0.000 A 
ATOM     11  C   UNL     1      49.781   7.412  14.290  0.00  0.00    +0.000 A 
ATOM     12  C   UNL     1      48.475   7.193  13.834  0.00  0.00    +0.000 A 
BRANCH  11  13
ATOM     13  C   UNL     1      50.141   7.054  15.631  0.00  0.00    +0.000 C 
ATOM     14  N   UNL     1      50.424   6.759  16.717  0.00  0.00    +0.000 NA
ENDBRANCH  11  13
ENDBRANCH   5   7
BRANCH   1  15
ATOM     15  C   UNL     1      44.227   4.473  11.607  0.00  0.00    +0.000 C 
ATOM     16  C   UNL     1      44.727   3.487  12.664  0.00  0.00    +0.000 C 
ATOM     17  C   UNL     1      43.442   4.206  12.881  0.00  0.00    +0.000 C 
BRANCH  15  18
ATOM     18  N   UNL     1      43.972   3.829  10.314  0.00  0.00    +0.000 N 
ATOM     19  H   UNL     1      43.112   3.292  10.251  0.00  0.00    +0.000 HD
BRANCH  18  23
ATOM     20  C   UNL     1      46.708   2.507   7.381  0.00  0.00    +0.000 A 
ATOM     21  C   UNL     1      46.420   3.869   7.481  0.00  0.00    +0.000 A 
ATOM     22  C   UNL     1      45.509   4.329   8.442  0.00  0.00    +0.000 A 
ATOM     23  C   UNL     1      44.920   3.451   9.351  0.00  0.00    +0.000 A 
ATOM     24  C   UNL     1      45.198   2.080   9.218  0.00  0.00    +0.000 A 
ATOM     25  C   UNL     1      46.089   1.609   8.245  0.00  0.00    +0.000 A 
BRANCH  20  27
ATOM     26  N   UNL     1      48.367   1.644   5.583  0.00  0.00    +0.000 NA
ATOM     27  C   UNL     1      47.625   2.030   6.388  0.00  0.00    +0.000 C 
ENDBRANCH  20  27
ENDBRANCH  18  23
ENDBRANCH  15  18
ENDBRANCH   1  15
TORSDOF 6
ENDMDL
MODEL 4
REMARK VINA RESULT:    -7.276      1.180      1.996
REMARK INTER + INTRA:         -11.268
REMARK INTER:                 -10.363
REMARK INTRA:                  -0.904
REMARK UNBOUND:                -1.439
REMARK  Name = 
REMARK  6 active torsions:
REMARK  status: ('A' for Active; 'I' for Inactive)
REMARK    1  A    between atoms: C_2  and  C_3
REMARK    2  A    between atoms: C_6  and  N_7
REMARK    3  A    between atoms: N_7  and  C_8
REMARK    4  A    between atoms: C_8  and  C_9
REMARK    5  A    between atoms: C_13  and  C_14
REMARK    6  A    between atoms: C_18  and  C_19
REMARK                            x       y       z     vdW  Elec       q    Type
REMARK                         _______ _______ _______ _____ _____    ______ ____
ROOT
ATOM      1  C   UNL     1      44.541   6.327  11.416  0.00  0.00    +0.000 A 
ATOM      2  C   UNL     1      43.744   7.473  11.258  0.00  0.00    +0.000 A 
ATOM      3  C   UNL     1      44.266   8.751  11.428  0.00  0.00    +0.000 A 
ATOM      4  C   UNL     1      45.610   8.909  11.758  0.00  0.00    +0.000 A 
ATOM      5  C   UNL     1      46.463   7.800  11.872  0.00  0.00    +0.000 A 
ATOM      6  C   UNL     1      45.913   6.525  11.647  0.00  0.00    +0.000 A 
ENDROOT
BRANCH   5   7
ATOM      7  C   UNL     1      47.863   7.947  12.316  0.00  0.00    +0.000 A 
ATOM      8  C   UNL     1      48.163   8.176  13.671  0.00  0.00    +0.000 A 
ATOM      9  C   UNL     1      49.481   8.280  14.119  0.00  0.00    +0.000 A 
ATOM     10  C   UNL     1      50.532   8.142  13.218  0.00  0.00    +0.000 A 
ATOM     11  C   UNL     1      50.265   7.902  11.867  0.00  0.00    +0.000 A 
ATOM     12  C   UNL     1      48.940   7.811  11.423  0.00  0.00    +0.000 A 
BRANCH  11  13
ATOM     13  C   UNL     1      51.345   7.731  10.941  0.00  0.00    +0.000 C 
ATOM     14  N   UNL     1      52.224   7.602  10.194  0.00  0.00    +0.000 NA
ENDBRANCH  11  13
ENDBRANCH   5   7
BRANCH   1  15
ATOM     15  C   UNL     1      43.908   4.942  11.516  0.00  0.00    +0.000 C 
ATOM     16  C   UNL     1      44.325   4.001  12.648  0.00  0.00    +0.000 C 
ATOM     17  C   UNL     1      43.044   4.753  12.753  0.00  0.00    +0.000 C 
BRANCH  15  18
ATOM     18  N   UNL     1      43.716   4.239  10.243  0.00  0.00    +0.000 N 
ATOM     19  H   UNL     1      42.831   3.752  10.137  0.00  0.00    +0.000 HD
BRANCH  18  23
ATOM     20  C   UNL     1      46.584   2.587   7.620  0.00  0.00    +0.000 A 
ATOM     21  C   UNL     1      46.399   3.971   7.645  0.00  0.00    +0.000 A 
ATOM     22  C   UNL     1      45.447   4.540   8.502  0.00  0.00    +0.000 A 
ATOM     23  C   UNL     1      44.712   3.749   9.384  0.00  0.00    +0.000 A 
ATOM     24  C   UNL     1      44.888   2.356   9.326  0.00  0.00    +0.000 A 
ATOM     25  C   UNL     1      45.821   1.777   8.455  0.00  0.00    +0.000 A 
BRANCH  20  27
ATOM     26  N   UNL     1      48.320   1.523   6.012  0.00  0.00    +0.000 NA
ATOM     27  C   UNL     1      47.543   1.999   6.731  0.00  0.00    +0.000 C 
ENDBRANCH  20  27
ENDBRANCH  18  23
ENDBRANCH  15  18
ENDBRANCH   1  15
TORSDOF 6
ENDMDL
MODEL 5
REMARK VINA RESULT:    -7.058      2.869      7.399
REMARK INTER + INTRA:         -10.972
REMARK INTER:                  -9.805
REMARK INTRA:                  -1.167
REMARK UNBOUND:                -1.439
REMARK  Name = 
REMARK  6 active torsions:
REMARK  status: ('A' for Active; 'I' for Inactive)
REMARK    1  A    between atoms: C_2  and  C_3
REMARK    2  A    between atoms: C_6  and  N_7
REMARK    3  A    between atoms: N_7  and  C_8
REMARK    4  A    between atoms: C_8  and  C_9
REMARK    5  A    between atoms: C_13  and  C_14
REMARK    6  A    between atoms: C_18  and  C_19
REMARK                            x       y       z     vdW  Elec       q    Type
REMARK                         _______ _______ _______ _____ _____    ______ ____
ROOT
ATOM      1  C   UNL     1      45.325   6.021  11.710  0.00  0.00    +0.000 A 
ATOM      2  C   UNL     1      43.938   5.937  11.917  0.00  0.00    +0.000 A 
ATOM      3  C   UNL     1      43.130   5.141  11.112  0.00  0.00    +0.000 A 
ATOM      4  C   UNL     1      43.700   4.403  10.077  0.00  0.00    +0.000 A 
ATOM      5  C   UNL     1      45.087   4.407   9.863  0.00  0.00    +0.000 A 
ATOM      6  C   UNL     1      45.881   5.186  10.725  0.00  0.00    +0.000 A 
ENDROOT
BRANCH   5   7
ATOM      7  C   UNL     1      45.691   3.708   8.712  0.00  0.00    +0.000 A 
ATOM      8  C   UNL     1      46.189   4.436   7.615  0.00  0.00    +0.000 A 
ATOM      9  C   UNL     1      46.798   3.797   6.533  0.00  0.00    +0.000 A 
ATOM     10  C   UNL     1      46.937   2.413   6.533  0.00  0.00    +0.000 A 
ATOM     11  C   UNL     1      46.462   1.665   7.614  0.00  0.00    +0.000 A 
ATOM     12  C   UNL     1      45.841   2.311   8.691  0.00  0.00    +0.000 A 
BRANCH  11  13
ATOM     13  C   UNL     1      46.628   0.242   7.630  0.00  0.00    +0.000 C 
ATOM     14  N   UNL     1      46.759  -0.911   7.654  0.00  0.00    +0.000 NA
ENDBRANCH  11  13
ENDBRANCH   5   7
BRANCH   1  15
ATOM     15  C   UNL     1      46.154   7.102  12.396  0.00  0.00    +0.000 C 
ATOM     16  C   UNL     1      46.227   8.502  11.782  0.00  0.00    +0.000 C 
ATOM     17  C   UNL     1      45.324   8.255  12.939  0.00  0.00    +0.000 C 
BRANCH  15  18
ATOM     18  N   UNL     1      47.440   6.663  12.946  0.00  0.00    +0.000 N 
ATOM     19  H   UNL     1      48.182   6.511  12.268  0.00  0.00    +0.000 HD
BRANCH  18  23
ATOM     20  C   UNL     1      48.111   4.806  16.680  0.00  0.00    +0.000 A 
ATOM     21  C   UNL     1      47.245   4.204  15.764  0.00  0.00    +0.000 A 
ATOM     22  C   UNL     1      47.002   4.808  14.522  0.00  0.00    +0.000 A 
ATOM     23  C   UNL     1      47.660   5.980  14.153  0.00  0.00    +0.000 A 
ATOM     24  C   UNL     1      48.504   6.588  15.097  0.00  0.00    +0.000 A 
ATOM     25  C   UNL     1      48.734   6.005  16.350  0.00  0.00    +0.000 A 
BRANCH  20  27
ATOM     26  N   UNL     1      48.539   3.713  18.994  0.00  0.00    +0.000 NA
ATOM     27  C   UNL     1      48.347   4.202  17.958  0.00  0.00    +0.000 C 
ENDBRANCH  20  27
ENDBRANCH  18  23
ENDBRANCH  15  18
ENDBRANCH   1  15
TORSDOF 6
ENDMDL
MODEL 6
REMARK VINA RESULT:    -6.274      2.498      7.397
REMARK INTER + INTRA:          -9.913
REMARK INTER:                  -8.814
REMARK INTRA:                  -1.099
REMARK UNBOUND:                -1.439
REMARK  Name = 
REMARK  6 active torsions:
REMARK  status: ('A' for Active; 'I' for Inactive)
REMARK    1  A    between atoms: C_2  and  C_3
REMARK    2  A    between atoms: C_6  and  N_7
REMARK    3  A    between atoms: N_7  and  C_8
REMARK    4  A    between atoms: C_8  and  C_9
REMARK    5  A    between atoms: C_13  and  C_14
REMARK    6  A    between atoms: C_18  and  C_19
REMARK                            x       y       z     vdW  Elec       q    Type
REMARK                         _______ _______ _______ _____ _____    ______ ____
ROOT
ATOM      1  C   UNL     1      45.196   6.286  11.366  0.00  0.00    +0.000 A 
ATOM      2  C   UNL     1      43.862   6.011  11.707  0.00  0.00    +0.000 A 
ATOM      3  C   UNL     1      43.143   5.001  11.075  0.00  0.00    +0.000 A 
ATOM      4  C   UNL     1      43.754   4.237  10.083  0.00  0.00    +0.000 A 
ATOM      5  C   UNL     1      45.101   4.433   9.744  0.00  0.00    +0.000 A 
ATOM      6  C   UNL     1      45.813   5.431  10.435  0.00  0.00    +0.000 A 
ENDROOT
BRANCH   5   7
ATOM      7  C   UNL     1      45.731   3.698   8.630  0.00  0.00    +0.000 A 
ATOM      8  C   UNL     1      46.272   4.392   7.531  0.00  0.00    +0.000 A 
ATOM      9  C   UNL     1      46.906   3.719   6.485  0.00  0.00    +0.000 A 
ATOM     10  C   UNL     1      47.025   2.334   6.522  0.00  0.00    +0.000 A 
ATOM     11  C   UNL     1      46.507   1.619   7.606  0.00  0.00    +0.000 A 
ATOM     12  C   UNL     1      45.862   2.299   8.647  0.00  0.00    +0.000 A 
BRANCH  11  13
ATOM     13  C   UNL     1      46.652   0.195   7.662  0.00  0.00    +0.000 C 
ATOM     14  N   UNL     1      46.778  -0.958   7.699  0.00  0.00    +0.000 NA
ENDBRANCH  11  13
ENDBRANCH   5   7
BRANCH   1  15
ATOM     15  C   UNL     1      45.878   7.564  11.846  0.00  0.00    +0.000 C 
ATOM     16  C   UNL     1      45.323   8.924  11.417  0.00  0.00    +0.000 C 
ATOM     17  C   UNL     1      45.017   8.403  12.777  0.00  0.00    +0.000 C 
BRANCH  15  18
ATOM     18  N   UNL     1      47.344   7.535  11.858  0.00  0.00    +0.000 N 
ATOM     19  H   UNL     1      47.788   7.288  10.979  0.00  0.00    +0.000 HD
BRANCH  18  23
ATOM     20  C   UNL     1      49.895   7.127  15.200  0.00  0.00    +0.000 A 
ATOM     21  C   UNL     1      48.775   6.300  15.091  0.00  0.00    +0.000 A 
ATOM     22  C   UNL     1      47.911   6.424  13.995  0.00  0.00    +0.000 A 
ATOM     23  C   UNL     1      48.180   7.327  12.967  0.00  0.00    +0.000 A 
ATOM     24  C   UNL     1      49.294   8.171  13.105  0.00  0.00    +0.000 A 
ATOM     25  C   UNL     1      50.150   8.071  14.210  0.00  0.00    +0.000 A 
BRANCH  20  27
ATOM     26  N   UNL     1      51.480   6.928  17.244  0.00  0.00    +0.000 NA
ATOM     27  C   UNL     1      50.771   7.017  16.329  0.00  0.00    +0.000 C 
ENDBRANCH  20  27
ENDBRANCH  18  23
ENDBRANCH  15  18
ENDBRANCH   1  15
TORSDOF 6
ENDMDL
MODEL 7
REMARK VINA RESULT:    -6.144      3.566      8.233
REMARK INTER + INTRA:          -9.738
REMARK INTER:                  -8.481
REMARK INTRA:                  -1.257
REMARK UNBOUND:                -1.439
REMARK  Name = 
REMARK  6 active torsions:
REMARK  status: ('A' for Active; 'I' for Inactive)
REMARK    1  A    between atoms: C_2  and  C_3
REMARK    2  A    between atoms: C_6  and  N_7
REMARK    3  A    between atoms: N_7  and  C_8
REMARK    4  A    between atoms: C_8  and  C_9
REMARK    5  A    between atoms: C_13  and  C_14
REMARK    6  A    between atoms: C_18  and  C_19
REMARK                            x       y       z     vdW  Elec       q    Type
REMARK                         _______ _______ _______ _____ _____    ______ ____
ROOT
ATOM      1  C   UNL     1      47.495   7.827  12.676  0.00  0.00    +0.000 A 
ATOM      2  C   UNL     1      46.583   8.884  12.825  0.00  0.00    +0.000 A 
ATOM      3  C   UNL     1      45.284   8.799  12.335  0.00  0.00    +0.000 A 
ATOM      4  C   UNL     1      44.867   7.641  11.685  0.00  0.00    +0.000 A 
ATOM      5  C   UNL     1      45.719   6.533  11.560  0.00  0.00    +0.000 A 
ATOM      6  C   UNL     1      47.011   6.635  12.108  0.00  0.00    +0.000 A 
ENDROOT
BRANCH   5   7
ATOM      7  C   UNL     1      45.322   5.338  10.790  0.00  0.00    +0.000 A 
ATOM      8  C   UNL     1      44.368   4.441  11.304  0.00  0.00    +0.000 A 
ATOM      9  C   UNL     1      43.950   3.324  10.576  0.00  0.00    +0.000 A 
ATOM     10  C   UNL     1      44.471   3.089   9.308  0.00  0.00    +0.000 A 
ATOM     11  C   UNL     1      45.412   3.969   8.767  0.00  0.00    +0.000 A 
ATOM     12  C   UNL     1      45.836   5.081   9.507  0.00  0.00    +0.000 A 
BRANCH  11  13
ATOM     13  C   UNL     1      45.929   3.746   7.449  0.00  0.00    +0.000 C 
ATOM     14  N   UNL     1      46.357   3.569   6.385  0.00  0.00    +0.000 NA
ENDBRANCH  11  13
ENDBRANCH   5   7
BRANCH   1  15
ATOM     15  C   UNL     1      48.982   8.031  12.949  0.00  0.00    +0.000 C 
ATOM     16  C   UNL     1      49.973   8.026  11.783  0.00  0.00    +0.000 C 
ATOM     17  C   UNL     1      49.538   9.323  12.370  0.00  0.00    +0.000 C 
BRANCH  15  18
ATOM     18  N   UNL     1      49.509   7.349  14.136  0.00  0.00    +0.000 N 
ATOM     19  H   UNL     1      49.995   6.474  13.963  0.00  0.00    +0.000 HD
BRANCH  18  23
ATOM     20  C   UNL     1      48.256   7.526  18.165  0.00  0.00    +0.000 A 
ATOM     21  C   UNL     1      48.336   8.706  17.424  0.00  0.00    +0.000 A 
ATOM     22  C   UNL     1      48.757   8.671  16.087  0.00  0.00    +0.000 A 
ATOM     23  C   UNL     1      49.046   7.461  15.456  0.00  0.00    +0.000 A 
ATOM     24  C   UNL     1      48.989   6.287  16.225  0.00  0.00    +0.000 A 
ATOM     25  C   UNL     1      48.593   6.315  17.569  0.00  0.00    +0.000 A 
BRANCH  20  27
ATOM     26  N   UNL     1      47.511   7.585  20.650  0.00  0.00    +0.000 NA
ATOM     27  C   UNL     1      47.845   7.559  19.538  0.00  0.00    +0.000 C 
ENDBRANCH  20  27
ENDBRANCH  18  23
ENDBRANCH  15  18
ENDBRANCH   1  15
TORSDOF 6
ENDMDL
MODEL 8
REMARK VINA RESULT:    -6.136      3.718      6.248
REMARK INTER + INTRA:          -9.727
REMARK INTER:                  -8.423
REMARK INTRA:                  -1.304
REMARK UNBOUND:                -1.439
REMARK  Name = 
REMARK  6 active torsions:
REMARK  status: ('A' for Active; 'I' for Inactive)
REMARK    1  A    between atoms: C_2  and  C_3
REMARK    2  A    between atoms: C_6  and  N_7
REMARK    3  A    between atoms: N_7  and  C_8
REMARK    4  A    between atoms: C_8  and  C_9
REMARK    5  A    between atoms: C_13  and  C_14
REMARK    6  A    between atoms: C_18  and  C_19
REMARK                            x       y       z     vdW  Elec       q    Type
REMARK                         _______ _______ _______ _____ _____    ______ ____
ROOT
ATOM      1  C   UNL     1      48.529   8.128  13.984  0.00  0.00    +0.000 A 
ATOM      2  C   UNL     1      48.304   9.248  14.800  0.00  0.00    +0.000 A 
ATOM      3  C   UNL     1      48.339   9.155  16.188  0.00  0.00    +0.000 A 
ATOM      4  C   UNL     1      48.608   7.929  16.791  0.00  0.00    +0.000 A 
ATOM      5  C   UNL     1      48.897   6.792  16.021  0.00  0.00    +0.000 A 
ATOM      6  C   UNL     1      48.899   6.931  14.621  0.00  0.00    +0.000 A 
ENDROOT
BRANCH   5   7
ATOM      7  C   UNL     1      49.087   5.467  16.644  0.00  0.00    +0.000 A 
ATOM      8  C   UNL     1      48.025   4.546  16.704  0.00  0.00    +0.000 A 
ATOM      9  C   UNL     1      48.194   3.274  17.254  0.00  0.00    +0.000 A 
ATOM     10  C   UNL     1      49.437   2.890  17.746  0.00  0.00    +0.000 A 
ATOM     11  C   UNL     1      50.513   3.780  17.690  0.00  0.00    +0.000 A 
ATOM     12  C   UNL     1      50.335   5.059  17.147  0.00  0.00    +0.000 A 
BRANCH  11  13
ATOM     13  C   UNL     1      51.803   3.378  18.170  0.00  0.00    +0.000 C 
ATOM     14  N   UNL     1      52.849   3.063  18.561  0.00  0.00    +0.000 NA
ENDBRANCH  11  13
ENDBRANCH   5   7
BRANCH   1  15
ATOM     15  C   UNL     1      48.206   8.169  12.493  0.00  0.00    +0.000 C 
ATOM     16  C   UNL     1      48.922   9.177  11.592  0.00  0.00    +0.000 C 
ATOM     17  C   UNL     1      49.370   7.757  11.605  0.00  0.00    +0.000 C 
BRANCH  15  18
ATOM     18  N   UNL     1      46.790   8.012  12.146  0.00  0.00    +0.000 N 
ATOM     19  H   UNL     1      46.188   8.794  12.386  0.00  0.00    +0.000 HD
BRANCH  18  23
ATOM     20  C   UNL     1      44.505   4.478  11.793  0.00  0.00    +0.000 A 
ATOM     21  C   UNL     1      45.213   4.945  10.684  0.00  0.00    +0.000 A 
ATOM     22  C   UNL     1      45.972   6.121  10.777  0.00  0.00    +0.000 A 
ATOM     23  C   UNL     1      46.083   6.810  11.984  0.00  0.00    +0.000 A 
ATOM     24  C   UNL     1      45.340   6.343  13.081  0.00  0.00    +0.000 A 
ATOM     25  C   UNL     1      44.560   5.183  12.991  0.00  0.00    +0.000 A 
BRANCH  20  27
ATOM     26  N   UNL     1      43.070   2.323  11.620  0.00  0.00    +0.000 NA
ATOM     27  C   UNL     1      43.712   3.287  11.698  0.00  0.00    +0.000 C 
ENDBRANCH  20  27
ENDBRANCH  18  23
ENDBRANCH  15  18
ENDBRANCH   1  15
TORSDOF 6
ENDMDL
MODEL 9
REMARK VINA RESULT:    -6.122      2.542      3.726
REMARK INTER + INTRA:          -9.709
REMARK INTER:                  -8.422
REMARK INTRA:                  -1.287
REMARK UNBOUND:                -1.439
REMARK  Name = 
REMARK  6 active torsions:
REMARK  status: ('A' for Active; 'I' for Inactive)
REMARK    1  A    between atoms: C_2  and  C_3
REMARK    2  A    between atoms: C_6  and  N_7
REMARK    3  A    between atoms: N_7  and  C_8
REMARK    4  A    between atoms: C_8  and  C_9
REMARK    5  A    between atoms: C_13  and  C_14
REMARK    6  A    between atoms: C_18  and  C_19
REMARK                            x       y       z     vdW  Elec       q    Type
REMARK                         _______ _______ _______ _____ _____    ______ ____
ROOT
ATOM      1  C   UNL     1      45.202   5.084  12.404  0.00  0.00    +0.000 A 
ATOM      2  C   UNL     1      46.377   4.702  13.072  0.00  0.00    +0.000 A 
ATOM      3  C   UNL     1      47.338   5.637  13.444  0.00  0.00    +0.000 A 
ATOM      4  C   UNL     1      47.137   6.984  13.157  0.00  0.00    +0.000 A 
ATOM      5  C   UNL     1      45.955   7.426  12.543  0.00  0.00    +0.000 A 
ATOM      6  C   UNL     1      44.983   6.461  12.222  0.00  0.00    +0.000 A 
ENDROOT
BRANCH   5   7
ATOM      7  C   UNL     1      45.772   8.836  12.146  0.00  0.00    +0.000 A 
ATOM      8  C   UNL     1      46.871   9.715  12.105  0.00  0.00    +0.000 A 
ATOM      9  C   UNL     1      46.726  11.042  11.697  0.00  0.00    +0.000 A 
ATOM     10  C   UNL     1      45.478  11.516  11.305  0.00  0.00    +0.000 A 
ATOM     11  C   UNL     1      44.372  10.663  11.324  0.00  0.00    +0.000 A 
ATOM     12  C   UNL     1      44.521   9.335  11.747  0.00  0.00    +0.000 A 
BRANCH  11  13
ATOM     13  C   UNL     1      43.091  11.139  10.894  0.00  0.00    +0.000 C 
ATOM     14  N   UNL     1      42.051  11.516  10.541  0.00  0.00    +0.000 NA
ENDBRANCH  11  13
ENDBRANCH   5   7
BRANCH   1  15
ATOM     15  C   UNL     1      44.302   4.041  11.747  0.00  0.00    +0.000 C 
ATOM     16  C   UNL     1      43.022   3.593  12.456  0.00  0.00    +0.000 C 
ATOM     17  C   UNL     1      42.938   4.579  11.344  0.00  0.00    +0.000 C 
BRANCH  15  18
ATOM     18  N   UNL     1      44.995   2.931  11.084  0.00  0.00    +0.000 N 
ATOM     19  H   UNL     1      45.543   2.329  11.690  0.00  0.00    +0.000 HD
BRANCH  18  23
ATOM     20  C   UNL     1      46.333   2.894   7.078  0.00  0.00    +0.000 A 
ATOM     21  C   UNL     1      46.078   1.682   7.724  0.00  0.00    +0.000 A 
ATOM     22  C   UNL     1      45.641   1.671   9.056  0.00  0.00    +0.000 A 
ATOM     23  C   UNL     1      45.395   2.861   9.741  0.00  0.00    +0.000 A 
ATOM     24  C   UNL     1      45.685   4.070   9.087  0.00  0.00    +0.000 A 
ATOM     25  C   UNL     1      46.146   4.090   7.764  0.00  0.00    +0.000 A 
BRANCH  20  27
ATOM     26  N   UNL     1      47.175   2.922   4.625  0.00  0.00    +0.000 NA
ATOM     27  C   UNL     1      46.798   2.909   5.723  0.00  0.00    +0.000 C 
ENDBRANCH  20  27
ENDBRANCH  18  23
ENDBRANCH  15  18
ENDBRANCH   1  15
TORSDOF 6
ENDMDL
