MODEL 1
REMARK VINA RESULT:    -8.062      0.000      0.000
REMARK INTER + INTRA:         -11.689
REMARK INTER:                 -10.889
REMARK INTRA:                  -0.800
REMARK UNBOUND:                -0.800
REMARK  Name = 
REMARK  7 active torsions:
REMARK  status: ('A' for Active; 'I' for Inactive)
REMARK    1  A    between atoms: C_1  and  C_2
REMARK    2  A    between atoms: C_4  and  C_5
REMARK    3  A    between atoms: C_5  and  N_6
REMARK    4  A    between atoms: C_7  and  C_9
REMARK    5  A    between atoms: C_16  and  C_17
REMARK    6  A    between atoms: C_17  and  N_18
REMARK    7  A    between atoms: C_19  and  C_21
REMARK                            x       y       z     vdW  Elec       q    Type
REMARK                         _______ _______ _______ _____ _____    ______ ____
ROOT
ATOM      1  C   UNL     1      44.921   9.604  12.157  0.00  0.00    +0.000 C 
ATOM      2  C   UNL     1      45.327   8.161  12.033  0.00  0.00    +0.000 A 
ATOM      3  C   UNL     1      44.576   7.326  11.181  0.00  0.00    +0.000 A 
ATOM      4  C   UNL     1      44.877   5.966  11.030  0.00  0.00    +0.000 A 
ATOM      5  C   UNL     1      45.985   5.450  11.707  0.00  0.00    +0.000 A 
ATOM      6  C   UNL     1      46.734   6.263  12.566  0.00  0.00    +0.000 A 
ATOM      7  C   UNL     1      46.400   7.616  12.769  0.00  0.00    +0.000 A 
ENDROOT
BRANCH   4   8
ATOM      8  C   UNL     1      44.033   5.096  10.132  0.00  0.00    +0.000 C 
BRANCH   8   9
ATOM      9  N   UNL     1      44.844   4.391   9.171  0.00  0.00    +0.000 N 
ATOM     10  C   UNL     1      45.016   3.025   9.213  0.00  0.00    +0.000 C 
ATOM     11  O   UNL     1      44.479   2.336  10.075  0.00  0.00    +0.000 OA
ATOM     12  H   UNL     1      45.254   4.913   8.406  0.00  0.00    +0.000 HD
BRANCH  10  13
ATOM     13  C   UNL     1      45.864   2.471   8.174  0.00  0.00    +0.000 A 
ATOM     14  C   UNL     1      46.314   1.168   8.053  0.00  0.00    +0.000 A 
ATOM     15  N   UNL     1      47.134   0.910   6.968  0.00  0.00    +0.000 NA
ATOM     16  C   UNL     1      47.302   2.018   6.281  0.00  0.00    +0.000 A 
ATOM     17  S   UNL     1      46.489   3.404   6.874  0.00  0.00    +0.000 S 
ENDBRANCH  10  13
ENDBRANCH   8   9
ENDBRANCH   4   8
BRANCH   7  18
ATOM     18  C   UNL     1      47.225   8.431  13.747  0.00  0.00    +0.000 C 
BRANCH  18  19
ATOM     19  N   UNL     1      47.691   7.618  14.842  0.00  0.00    +0.000 N 
ATOM     20  C   UNL     1      48.949   7.078  14.875  0.00  0.00    +0.000 C 
ATOM     21  O   UNL     1      49.774   7.276  13.983  0.00  0.00    +0.000 OA
ATOM     22  H   UNL     1      46.971   7.227  15.439  0.00  0.00    +0.000 HD
BRANCH  20  23
ATOM     23  C   UNL     1      49.293   6.302  16.080  0.00  0.00    +0.000 A 
ATOM     24  C   UNL     1      50.366   6.681  16.875  0.00  0.00    +0.000 A 
ATOM     25  S   UNL     1      50.531   5.746  18.293  0.00  0.00    +0.000 S 
ATOM     26  C   UNL     1      49.204   4.768  17.868  0.00  0.00    +0.000 A 
ATOM     27  N   UNL     1      48.788   3.760  18.682  0.00  0.00    +0.000 NA
ATOM     28  C   UNL     1      47.779   3.090  18.229  0.00  0.00    +0.000 A 
ATOM     29  N   UNL     1      47.163   3.328  17.028  0.00  0.00    +0.000 N 
ATOM     30  C   UNL     1      47.559   4.323  16.171  0.00  0.00    +0.000 A 
ATOM     31  O   UNL     1      47.002   4.490  15.092  0.00  0.00    +0.000 OA
ATOM     32  C   UNL     1      48.659   5.136  16.652  0.00  0.00    +0.000 A 
ATOM     33  H   UNL     1      46.390   2.756  16.719  0.00  0.00    +0.000 HD
ENDBRANCH  20  23
ENDBRANCH  18  19
ENDBRANCH   7  18
TORSDOF 6
ENDMDL
MODEL 2
REMARK VINA RESULT:    -7.695      1.388      1.456
REMARK INTER + INTRA:         -11.194
REMARK INTER:                 -10.218
REMARK INTRA:                  -0.975
REMARK UNBOUND:                -0.800
REMARK  Name = 
REMARK  7 active torsions:
REMARK  status: ('A' for Active; 'I' for Inactive)
REMARK    1  A    between atoms: C_1  and  C_2
REMARK    2  A    between atoms: C_4  and  C_5
REMARK    3  A    between atoms: C_5  and  N_6
REMARK    4  A    between atoms: C_7  and  C_9
REMARK    5  A    between atoms: C_16  and  C_17
REMARK    6  A    between atoms: C_17  and  N_18
REMARK    7  A    between atoms: C_19  and  C_21
REMARK                            x       y       z     vdW  Elec       q    Type
REMARK                         _______ _______ _______ _____ _____    ______ ____
ROOT
ATOM      1  C   UNL     1      44.973   9.729  12.092  0.00  0.00    +0.000 C 
ATOM      2  C   UNL     1      45.483   8.315  12.124  0.00  0.00    +0.000 A 
ATOM      3  C   UNL     1      44.787   7.336  11.387  0.00  0.00    +0.000 A 
ATOM      4  C   UNL     1      45.187   5.993  11.386  0.00  0.00    +0.000 A 
ATOM      5  C   UNL     1      46.338   5.640  12.096  0.00  0.00    +0.000 A 
ATOM      6  C   UNL     1      47.033   6.599  12.843  0.00  0.00    +0.000 A 
ATOM      7  C   UNL     1      46.601   7.938  12.897  0.00  0.00    +0.000 A 
ENDROOT
BRANCH   4   8
ATOM      8  C   UNL     1      44.401   4.966  10.609  0.00  0.00    +0.000 C 
BRANCH   8   9
ATOM      9  N   UNL     1      45.227   4.302   9.632  0.00  0.00    +0.000 N 
ATOM     10  C   UNL     1      44.965   3.023   9.193  0.00  0.00    +0.000 C 
ATOM     11  O   UNL     1      44.004   2.385   9.613  0.00  0.00    +0.000 OA
ATOM     12  H   UNL     1      45.992   4.816   9.213  0.00  0.00    +0.000 HD
BRANCH  10  13
ATOM     13  C   UNL     1      45.892   2.499   8.209  0.00  0.00    +0.000 A 
ATOM     14  C   UNL     1      46.341   1.196   8.077  0.00  0.00    +0.000 A 
ATOM     15  N   UNL     1      47.248   0.970   7.055  0.00  0.00    +0.000 NA
ATOM     16  C   UNL     1      47.481   2.100   6.427  0.00  0.00    +0.000 A 
ATOM     17  S   UNL     1      46.632   3.472   7.001  0.00  0.00    +0.000 S 
ENDBRANCH  10  13
ENDBRANCH   8   9
ENDBRANCH   4   8
BRANCH   7  18
ATOM     18  C   UNL     1      47.374   8.918  13.761  0.00  0.00    +0.000 C 
BRANCH  18  19
ATOM     19  N   UNL     1      47.592   8.390  15.083  0.00  0.00    +0.000 N 
ATOM     20  C   UNL     1      48.703   8.693  15.825  0.00  0.00    +0.000 C 
ATOM     21  O   UNL     1      49.574   9.462  15.419  0.00  0.00    +0.000 OA
ATOM     22  H   UNL     1      47.046   7.570  15.327  0.00  0.00    +0.000 HD
BRANCH  20  23
ATOM     23  C   UNL     1      48.764   8.107  17.175  0.00  0.00    +0.000 A 
ATOM     24  C   UNL     1      48.872   8.927  18.290  0.00  0.00    +0.000 A 
ATOM     25  S   UNL     1      48.798   8.081  19.771  0.00  0.00    +0.000 S 
ATOM     26  C   UNL     1      48.670   6.584  18.972  0.00  0.00    +0.000 A 
ATOM     27  N   UNL     1      48.549   5.423  19.673  0.00  0.00    +0.000 NA
ATOM     28  C   UNL     1      48.476   4.362  18.940  0.00  0.00    +0.000 A 
ATOM     29  N   UNL     1      48.530   4.357  17.570  0.00  0.00    +0.000 N 
ATOM     30  C   UNL     1      48.666   5.500  16.825  0.00  0.00    +0.000 A 
ATOM     31  O   UNL     1      48.739   5.455  15.602  0.00  0.00    +0.000 OA
ATOM     32  C   UNL     1      48.707   6.727  17.598  0.00  0.00    +0.000 A 
ATOM     33  H   UNL     1      48.488   3.490  17.052  0.00  0.00    +0.000 HD
ENDBRANCH  20  23
ENDBRANCH  18  19
ENDBRANCH   7  18
TORSDOF 6
ENDMDL
MODEL 3
REMARK VINA RESULT:    -7.175      2.706      3.548
REMARK INTER + INTRA:         -10.492
REMARK INTER:                  -9.877
REMARK INTRA:                  -0.615
REMARK UNBOUND:                -0.800
REMARK  Name = 
REMARK  7 active torsions:
REMARK  status: ('A' for Active; 'I' for Inactive)
REMARK    1  A    between atoms: C_1  and  C_2
REMARK    2  A    between atoms: C_4  and  C_5
REMARK    3  A    between atoms: C_5  and  N_6
REMARK    4  A    between atoms: C_7  and  C_9
REMARK    5  A    between atoms: C_16  and  C_17
REMARK    6  A    between atoms: C_17  and  N_18
REMARK    7  A    between atoms: C_19  and  C_21
REMARK                            x       y       z     vdW  Elec       q    Type
REMARK                         _______ _______ _______ _____ _____    ______ ____
ROOT
ATOM      1  C   UNL     1      47.213   4.337  15.051  0.00  0.00    +0.000 C 
ATOM      2  C   UNL     1      46.949   5.190  13.841  0.00  0.00    +0.000 A 
ATOM      3  C   UNL     1      46.002   4.739  12.899  0.00  0.00    +0.000 A 
ATOM      4  C   UNL     1      45.718   5.465  11.735  0.00  0.00    +0.000 A 
ATOM      5  C   UNL     1      46.359   6.692  11.542  0.00  0.00    +0.000 A 
ATOM      6  C   UNL     1      47.311   7.148  12.463  0.00  0.00    +0.000 A 
ATOM      7  C   UNL     1      47.645   6.394  13.604  0.00  0.00    +0.000 A 
ENDROOT
BRANCH   4   8
ATOM      8  C   UNL     1      44.720   4.938  10.734  0.00  0.00    +0.000 C 
BRANCH   8   9
ATOM      9  N   UNL     1      45.378   4.277   9.635  0.00  0.00    +0.000 N 
ATOM     10  C   UNL     1      45.157   2.951   9.335  0.00  0.00    +0.000 C 
ATOM     11  O   UNL     1      44.379   2.265   9.991  0.00  0.00    +0.000 OA
ATOM     12  H   UNL     1      45.979   4.822   9.030  0.00  0.00    +0.000 HD
BRANCH  10  13
ATOM     13  C   UNL     1      45.898   2.437   8.199  0.00  0.00    +0.000 A 
ATOM     14  C   UNL     1      46.361   1.147   8.002  0.00  0.00    +0.000 A 
ATOM     15  N   UNL     1      47.063   0.930   6.829  0.00  0.00    +0.000 NA
ATOM     16  C   UNL     1      47.131   2.053   6.152  0.00  0.00    +0.000 A 
ATOM     17  S   UNL     1      46.357   3.408   6.858  0.00  0.00    +0.000 S 
ENDBRANCH  10  13
ENDBRANCH   8   9
ENDBRANCH   4   8
BRANCH   7  18
ATOM     18  C   UNL     1      48.717   6.923  14.538  0.00  0.00    +0.000 C 
BRANCH  18  19
ATOM     19  N   UNL     1      48.218   7.060  15.883  0.00  0.00    +0.000 N 
ATOM     20  C   UNL     1      48.960   6.724  16.983  0.00  0.00    +0.000 C 
ATOM     21  O   UNL     1      50.116   6.308  16.894  0.00  0.00    +0.000 OA
ATOM     22  H   UNL     1      47.211   7.139  15.973  0.00  0.00    +0.000 HD
BRANCH  20  23
ATOM     23  C   UNL     1      48.327   6.957  18.292  0.00  0.00    +0.000 A 
ATOM     24  C   UNL     1      48.159   5.909  19.186  0.00  0.00    +0.000 A 
ATOM     25  S   UNL     1      47.530   6.391  20.698  0.00  0.00    +0.000 S 
ATOM     26  C   UNL     1      47.412   8.012  20.192  0.00  0.00    +0.000 A 
ATOM     27  N   UNL     1      46.955   8.978  21.036  0.00  0.00    +0.000 NA
ATOM     28  C   UNL     1      46.904  10.160  20.516  0.00  0.00    +0.000 A 
ATOM     29  N   UNL     1      47.254  10.458  19.225  0.00  0.00    +0.000 N 
ATOM     30  C   UNL     1      47.706   9.514  18.337  0.00  0.00    +0.000 A 
ATOM     31  O   UNL     1      47.983   9.813  17.180  0.00  0.00    +0.000 OA
ATOM     32  C   UNL     1      47.825   8.177  18.883  0.00  0.00    +0.000 A 
ATOM     33  H   UNL     1      47.173  11.401  18.869  0.00  0.00    +0.000 HD
ENDBRANCH  20  23
ENDBRANCH  18  19
ENDBRANCH   7  18
TORSDOF 6
ENDMDL
MODEL 4
REMARK VINA RESULT:    -7.173      3.374      5.006
REMARK INTER + INTRA:         -10.488
REMARK INTER:                  -9.365
REMARK INTRA:                  -1.124
REMARK UNBOUND:                -0.800
REMARK  Name = 
REMARK  7 active torsions:
REMARK  status: ('A' for Active; 'I' for Inactive)
REMARK    1  A    between atoms: C_1  and  C_2
REMARK    2  A    between atoms: C_4  and  C_5
REMARK    3  A    between atoms: C_5  and  N_6
REMARK    4  A    between atoms: C_7  and  C_9
REMARK    5  A    between atoms: C_16  and  C_17
REMARK    6  A    between atoms: C_17  and  N_18
REMARK    7  A    between atoms: C_19  and  C_21
REMARK                            x       y       z     vdW  Elec       q    Type
REMARK                         _______ _______ _______ _____ _____    ______ ____
ROOT
ATOM      1  C   UNL     1      47.268   5.545  13.898  0.00  0.00    +0.000 C 
ATOM      2  C   UNL     1      46.259   6.120  12.942  0.00  0.00    +0.000 A 
ATOM      3  C   UNL     1      45.557   5.236  12.098  0.00  0.00    +0.000 A 
ATOM      4  C   UNL     1      44.618   5.696  11.166  0.00  0.00    +0.000 A 
ATOM      5  C   UNL     1      44.343   7.066  11.120  0.00  0.00    +0.000 A 
ATOM      6  C   UNL     1      45.040   7.958  11.943  0.00  0.00    +0.000 A 
ATOM      7  C   UNL     1      46.028   7.508  12.839  0.00  0.00    +0.000 A 
ENDROOT
BRANCH   4   8
ATOM      8  C   UNL     1      43.907   4.724  10.259  0.00  0.00    +0.000 C 
BRANCH   8   9
ATOM      9  N   UNL     1      44.816   4.132   9.309  0.00  0.00    +0.000 N 
ATOM     10  C   UNL     1      44.950   2.768   9.169  0.00  0.00    +0.000 C 
ATOM     11  O   UNL     1      44.293   1.986   9.850  0.00  0.00    +0.000 OA
ATOM     12  H   UNL     1      45.329   4.740   8.684  0.00  0.00    +0.000 HD
BRANCH  10  13
ATOM     13  C   UNL     1      45.907   2.334   8.170  0.00  0.00    +0.000 A 
ATOM     14  C   UNL     1      46.441   1.069   8.000  0.00  0.00    +0.000 A 
ATOM     15  N   UNL     1      47.357   0.932   6.972  0.00  0.00    +0.000 NA
ATOM     16  C   UNL     1      47.514   2.093   6.376  0.00  0.00    +0.000 A 
ATOM     17  S   UNL     1      46.577   3.388   6.990  0.00  0.00    +0.000 S 
ENDBRANCH  10  13
ENDBRANCH   8   9
ENDBRANCH   4   8
BRANCH   7  18
ATOM     18  C   UNL     1      46.778   8.531  13.671  0.00  0.00    +0.000 C 
BRANCH  18  19
ATOM     19  N   UNL     1      48.049   8.859  13.076  0.00  0.00    +0.000 N 
ATOM     20  C   UNL     1      48.215   9.925  12.233  0.00  0.00    +0.000 C 
ATOM     21  O   UNL     1      47.293  10.691  11.951  0.00  0.00    +0.000 OA
ATOM     22  H   UNL     1      48.739   8.117  13.073  0.00  0.00    +0.000 HD
BRANCH  20  23
ATOM     23  C   UNL     1      49.582  10.155  11.735  0.00  0.00    +0.000 A 
ATOM     24  C   UNL     1      50.068  11.448  11.592  0.00  0.00    +0.000 A 
ATOM     25  S   UNL     1      51.709  11.515  11.130  0.00  0.00    +0.000 S 
ATOM     26  C   UNL     1      51.816   9.818  11.057  0.00  0.00    +0.000 A 
ATOM     27  N   UNL     1      52.985   9.202  10.733  0.00  0.00    +0.000 NA
ATOM     28  C   UNL     1      52.918   7.912  10.701  0.00  0.00    +0.000 A 
ATOM     29  N   UNL     1      51.782   7.186  10.948  0.00  0.00    +0.000 N 
ATOM     30  C   UNL     1      50.579   7.765  11.264  0.00  0.00    +0.000 A 
ATOM     31  O   UNL     1      49.577   7.085  11.451  0.00  0.00    +0.000 OA
ATOM     32  C   UNL     1      50.610   9.212  11.358  0.00  0.00    +0.000 A 
ATOM     33  H   UNL     1      51.788   6.177  10.888  0.00  0.00    +0.000 HD
ENDBRANCH  20  23
ENDBRANCH  18  19
ENDBRANCH   7  18
TORSDOF 6
ENDMDL
MODEL 5
REMARK VINA RESULT:    -6.768      3.221      4.974
REMARK INTER + INTRA:          -9.942
REMARK INTER:                  -8.927
REMARK INTRA:                  -1.015
REMARK UNBOUND:                -0.800
REMARK  Name = 
REMARK  7 active torsions:
REMARK  status: ('A' for Active; 'I' for Inactive)
REMARK    1  A    between atoms: C_1  and  C_2
REMARK    2  A    between atoms: C_4  and  C_5
REMARK    3  A    between atoms: C_5  and  N_6
REMARK    4  A    between atoms: C_7  and  C_9
REMARK    5  A    between atoms: C_16  and  C_17
REMARK    6  A    between atoms: C_17  and  N_18
REMARK    7  A    between atoms: C_19  and  C_21
REMARK                            x       y       z     vdW  Elec       q    Type
REMARK                         _______ _______ _______ _____ _____    ______ ____
ROOT
ATOM      1  C   UNL     1      46.815   4.201  14.853  0.00  0.00    +0.000 C 
ATOM      2  C   UNL     1      46.633   5.056  13.628  0.00  0.00    +0.000 A 
ATOM      3  C   UNL     1      45.797   4.580  12.598  0.00  0.00    +0.000 A 
ATOM      4  C   UNL     1      45.596   5.306  11.418  0.00  0.00    +0.000 A 
ATOM      5  C   UNL     1      46.205   6.558  11.295  0.00  0.00    +0.000 A 
ATOM      6  C   UNL     1      47.048   7.040  12.304  0.00  0.00    +0.000 A 
ATOM      7  C   UNL     1      47.302   6.287  13.466  0.00  0.00    +0.000 A 
ENDROOT
BRANCH   4   8
ATOM      8  C   UNL     1      44.717   4.753  10.324  0.00  0.00    +0.000 C 
BRANCH   8   9
ATOM      9  N   UNL     1      45.502   4.163   9.268  0.00  0.00    +0.000 N 
ATOM     10  C   UNL     1      45.366   2.843   8.898  0.00  0.00    +0.000 C 
ATOM     11  O   UNL     1      44.560   2.101   9.452  0.00  0.00    +0.000 OA
ATOM     12  H   UNL     1      46.133   4.756   8.744  0.00  0.00    +0.000 HD
BRANCH  10  13
ATOM     13  C   UNL     1      46.230   2.406   7.819  0.00  0.00    +0.000 A 
ATOM     14  C   UNL     1      46.847   1.175   7.672  0.00  0.00    +0.000 A 
ATOM     15  N   UNL     1      47.642   1.028   6.549  0.00  0.00    +0.000 NA
ATOM     16  C   UNL     1      47.626   2.145   5.859  0.00  0.00    +0.000 A 
ATOM     17  S   UNL     1      46.661   3.410   6.493  0.00  0.00    +0.000 S 
ENDBRANCH  10  13
ENDBRANCH   8   9
ENDBRANCH   4   8
BRANCH   7  18
ATOM     18  C   UNL     1      48.261   6.846  14.501  0.00  0.00    +0.000 C 
BRANCH  18  19
ATOM     19  N   UNL     1      49.487   7.293  13.890  0.00  0.00    +0.000 N 
ATOM     20  C   UNL     1      50.374   8.114  14.533  0.00  0.00    +0.000 C 
ATOM     21  O   UNL     1      50.194   8.502  15.687  0.00  0.00    +0.000 OA
ATOM     22  H   UNL     1      49.531   7.214  12.880  0.00  0.00    +0.000 HD
BRANCH  20  23
ATOM     23  C   UNL     1      51.603   8.452  13.793  0.00  0.00    +0.000 A 
ATOM     24  C   UNL     1      52.848   8.158  14.331  0.00  0.00    +0.000 A 
ATOM     25  S   UNL     1      54.147   8.501  13.278  0.00  0.00    +0.000 S 
ATOM     26  C   UNL     1      53.092   9.103  12.085  0.00  0.00    +0.000 A 
ATOM     27  N   UNL     1      53.568   9.553  10.892  0.00  0.00    +0.000 NA
ATOM     28  C   UNL     1      52.658   9.994  10.087  0.00  0.00    +0.000 A 
ATOM     29  N   UNL     1      51.319  10.040  10.376  0.00  0.00    +0.000 N 
ATOM     30  C   UNL     1      50.799   9.611  11.571  0.00  0.00    +0.000 A 
ATOM     31  O   UNL     1      49.598   9.694  11.805  0.00  0.00    +0.000 OA
ATOM     32  C   UNL     1      51.772   9.063  12.494  0.00  0.00    +0.000 A 
ATOM     33  H   UNL     1      50.657  10.417   9.712  0.00  0.00    +0.000 HD
ENDBRANCH  20  23
ENDBRANCH  18  19
ENDBRANCH   7  18
TORSDOF 6
ENDMDL
MODEL 6
REMARK VINA RESULT:    -6.653      3.106      4.625
REMARK INTER + INTRA:          -9.786
REMARK INTER:                  -9.031
REMARK INTRA:                  -0.755
REMARK UNBOUND:                -0.800
REMARK  Name = 
REMARK  7 active torsions:
REMARK  status: ('A' for Active; 'I' for Inactive)
REMARK    1  A    between atoms: C_1  and  C_2
REMARK    2  A    between atoms: C_4  and  C_5
REMARK    3  A    between atoms: C_5  and  N_6
REMARK    4  A    between atoms: C_7  and  C_9
REMARK    5  A    between atoms: C_16  and  C_17
REMARK    6  A    between atoms: C_17  and  N_18
REMARK    7  A    between atoms: C_19  and  C_21
REMARK                            x       y       z     vdW  Elec       q    Type
REMARK                         _______ _______ _______ _____ _____    ______ ____
ROOT
ATOM      1  C   UNL     1      46.754   4.767  14.370  0.00  0.00    +0.000 C 
ATOM      2  C   UNL     1      46.143   5.471  13.189  0.00  0.00    +0.000 A 
ATOM      3  C   UNL     1      45.459   4.697  12.230  0.00  0.00    +0.000 A 
ATOM      4  C   UNL     1      44.883   5.275  11.091  0.00  0.00    +0.000 A 
ATOM      5  C   UNL     1      44.952   6.663  10.943  0.00  0.00    +0.000 A 
ATOM      6  C   UNL     1      45.637   7.445  11.881  0.00  0.00    +0.000 A 
ATOM      7  C   UNL     1      46.270   6.862  12.996  0.00  0.00    +0.000 A 
ENDROOT
BRANCH   4   8
ATOM      8  C   UNL     1      44.185   4.413  10.070  0.00  0.00    +0.000 C 
BRANCH   8   9
ATOM      9  N   UNL     1      45.102   3.946   9.061  0.00  0.00    +0.000 N 
ATOM     10  C   UNL     1      45.227   2.613   8.739  0.00  0.00    +0.000 C 
ATOM     11  O   UNL     1      44.556   1.751   9.299  0.00  0.00    +0.000 OA
ATOM     12  H   UNL     1      45.628   4.629   8.531  0.00  0.00    +0.000 HD
BRANCH  10  13
ATOM     13  C   UNL     1      46.196   2.309   7.703  0.00  0.00    +0.000 A 
ATOM     14  C   UNL     1      46.966   1.168   7.570  0.00  0.00    +0.000 A 
ATOM     15  N   UNL     1      47.832   1.145   6.491  0.00  0.00    +0.000 NA
ATOM     16  C   UNL     1      47.714   2.268   5.819  0.00  0.00    +0.000 A 
ATOM     17  S   UNL     1      46.569   3.390   6.420  0.00  0.00    +0.000 S 
ENDBRANCH  10  13
ENDBRANCH   8   9
ENDBRANCH   4   8
BRANCH   7  18
ATOM     18  C   UNL     1      47.034   7.760  13.950  0.00  0.00    +0.000 C 
BRANCH  18  19
ATOM     19  N   UNL     1      48.274   8.209  13.368  0.00  0.00    +0.000 N 
ATOM     20  C   UNL     1      49.476   7.615  13.646  0.00  0.00    +0.000 C 
ATOM     21  O   UNL     1      49.572   6.641  14.391  0.00  0.00    +0.000 OA
ATOM     22  H   UNL     1      48.264   9.145  12.977  0.00  0.00    +0.000 HD
BRANCH  20  23
ATOM     23  C   UNL     1      50.650   8.162  12.942  0.00  0.00    +0.000 A 
ATOM     24  C   UNL     1      50.620   8.345  11.567  0.00  0.00    +0.000 A 
ATOM     25  S   UNL     1      52.015   9.108  10.947  0.00  0.00    +0.000 S 
ATOM     26  C   UNL     1      52.731   9.174  12.490  0.00  0.00    +0.000 A 
ATOM     27  N   UNL     1      53.956   9.739  12.670  0.00  0.00    +0.000 NA
ATOM     28  C   UNL     1      54.384   9.707  13.890  0.00  0.00    +0.000 A 
ATOM     29  N   UNL     1      53.703   9.146  14.939  0.00  0.00    +0.000 N 
ATOM     30  C   UNL     1      52.474   8.553  14.799  0.00  0.00    +0.000 A 
ATOM     31  O   UNL     1      51.907   8.036  15.756  0.00  0.00    +0.000 OA
ATOM     32  C   UNL     1      51.926   8.602  13.458  0.00  0.00    +0.000 A 
ATOM     33  H   UNL     1      54.100   9.134  15.868  0.00  0.00    +0.000 HD
ENDBRANCH  20  23
ENDBRANCH  18  19
ENDBRANCH   7  18
TORSDOF 6
ENDMDL
MODEL 7
REMARK VINA RESULT:    -6.492      4.227      9.774
REMARK INTER + INTRA:          -9.569
REMARK INTER:                  -8.696
REMARK INTRA:                  -0.873
REMARK UNBOUND:                -0.800
REMARK  Name = 
REMARK  7 active torsions:
REMARK  status: ('A' for Active; 'I' for Inactive)
REMARK    1  A    between atoms: C_1  and  C_2
REMARK    2  A    between atoms: C_4  and  C_5
REMARK    3  A    between atoms: C_5  and  N_6
REMARK    4  A    between atoms: C_7  and  C_9
REMARK    5  A    between atoms: C_16  and  C_17
REMARK    6  A    between atoms: C_17  and  N_18
REMARK    7  A    between atoms: C_19  and  C_21
REMARK                            x       y       z     vdW  Elec       q    Type
REMARK                         _______ _______ _______ _____ _____    ______ ____
ROOT
ATOM      1  C   UNL     1      49.481   1.787  16.523  0.00  0.00    +0.000 C 
ATOM      2  C   UNL     1      49.652   3.025  17.359  0.00  0.00    +0.000 A 
ATOM      3  C   UNL     1      50.905   3.259  17.960  0.00  0.00    +0.000 A 
ATOM      4  C   UNL     1      51.136   4.377  18.772  0.00  0.00    +0.000 A 
ATOM      5  C   UNL     1      50.103   5.304  18.937  0.00  0.00    +0.000 A 
ATOM      6  C   UNL     1      48.849   5.081  18.356  0.00  0.00    +0.000 A 
ATOM      7  C   UNL     1      48.593   3.928  17.589  0.00  0.00    +0.000 A 
ENDROOT
BRANCH   4   8
ATOM      8  C   UNL     1      52.481   4.580  19.423  0.00  0.00    +0.000 C 
BRANCH   8   9
ATOM      9  N   UNL     1      53.129   3.321  19.693  0.00  0.00    +0.000 N 
ATOM     10  C   UNL     1      54.212   2.879  18.966  0.00  0.00    +0.000 C 
ATOM     11  O   UNL     1      54.683   3.543  18.048  0.00  0.00    +0.000 OA
ATOM     12  H   UNL     1      52.812   2.771  20.482  0.00  0.00    +0.000 HD
BRANCH  10  13
ATOM     13  C   UNL     1      54.746   1.591  19.364  0.00  0.00    +0.000 A 
ATOM     14  C   UNL     1      55.324   1.249  20.574  0.00  0.00    +0.000 A 
ATOM     15  N   UNL     1      55.773  -0.056  20.683  0.00  0.00    +0.000 NA
ATOM     16  C   UNL     1      55.536  -0.689  19.557  0.00  0.00    +0.000 A 
ATOM     17  S   UNL     1      54.762   0.219  18.329  0.00  0.00    +0.000 S 
ENDBRANCH  10  13
ENDBRANCH   8   9
ENDBRANCH   4   8
BRANCH   7  18
ATOM     18  C   UNL     1      47.199   3.724  17.025  0.00  0.00    +0.000 C 
BRANCH  18  19
ATOM     19  N   UNL     1      46.905   4.689  15.996  0.00  0.00    +0.000 N 
ATOM     20  C   UNL     1      46.987   4.393  14.662  0.00  0.00    +0.000 C 
ATOM     21  O   UNL     1      47.290   3.271  14.255  0.00  0.00    +0.000 OA
ATOM     22  H   UNL     1      46.917   5.661  16.287  0.00  0.00    +0.000 HD
BRANCH  20  23
ATOM     23  C   UNL     1      46.618   5.473  13.731  0.00  0.00    +0.000 A 
ATOM     24  C   UNL     1      47.497   6.520  13.488  0.00  0.00    +0.000 A 
ATOM     25  S   UNL     1      46.955   7.604  12.286  0.00  0.00    +0.000 S 
ATOM     26  C   UNL     1      45.502   6.740  12.084  0.00  0.00    +0.000 A 
ATOM     27  N   UNL     1      44.574   7.134  11.170  0.00  0.00    +0.000 NA
ATOM     28  C   UNL     1      43.514   6.395  11.134  0.00  0.00    +0.000 A 
ATOM     29  N   UNL     1      43.294   5.310  11.942  0.00  0.00    +0.000 N 
ATOM     30  C   UNL     1      44.195   4.888  12.886  0.00  0.00    +0.000 A 
ATOM     31  O   UNL     1      43.951   3.929  13.611  0.00  0.00    +0.000 OA
ATOM     32  C   UNL     1      45.424   5.655  12.938  0.00  0.00    +0.000 A 
ATOM     33  H   UNL     1      42.434   4.783  11.880  0.00  0.00    +0.000 HD
ENDBRANCH  20  23
ENDBRANCH  18  19
ENDBRANCH   7  18
TORSDOF 6
ENDMDL
MODEL 8
REMARK VINA RESULT:    -6.435      3.734     10.047
REMARK INTER + INTRA:          -9.491
REMARK INTER:                  -8.657
REMARK INTRA:                  -0.834
REMARK UNBOUND:                -0.800
REMARK  Name = 
REMARK  7 active torsions:
REMARK  status: ('A' for Active; 'I' for Inactive)
REMARK    1  A    between atoms: C_1  and  C_2
REMARK    2  A    between atoms: C_4  and  C_5
REMARK    3  A    between atoms: C_5  and  N_6
REMARK    4  A    between atoms: C_7  and  C_9
REMARK    5  A    between atoms: C_16  and  C_17
REMARK    6  A    between atoms: C_17  and  N_18
REMARK    7  A    between atoms: C_19  and  C_21
REMARK                            x       y       z     vdW  Elec       q    Type
REMARK                         _______ _______ _______ _____ _____    ______ ____
ROOT
ATOM      1  C   UNL     1      50.156   2.680  17.391  0.00  0.00    +0.000 C 
ATOM      2  C   UNL     1      49.390   3.775  18.082  0.00  0.00    +0.000 A 
ATOM      3  C   UNL     1      49.987   4.415  19.187  0.00  0.00    +0.000 A 
ATOM      4  C   UNL     1      49.328   5.427  19.896  0.00  0.00    +0.000 A 
ATOM      5  C   UNL     1      48.068   5.839  19.452  0.00  0.00    +0.000 A 
ATOM      6  C   UNL     1      47.457   5.206  18.363  0.00  0.00    +0.000 A 
ATOM      7  C   UNL     1      48.089   4.146  17.684  0.00  0.00    +0.000 A 
ENDROOT
BRANCH   4   8
ATOM      8  C   UNL     1      49.985   6.070  21.091  0.00  0.00    +0.000 C 
BRANCH   8   9
ATOM      9  N   UNL     1      51.341   6.463  20.798  0.00  0.00    +0.000 N 
ATOM     10  C   UNL     1      51.654   7.704  20.288  0.00  0.00    +0.000 C 
ATOM     11  O   UNL     1      50.787   8.542  20.062  0.00  0.00    +0.000 OA
ATOM     12  H   UNL     1      52.092   5.825  21.029  0.00  0.00    +0.000 HD
BRANCH  10  13
ATOM     13  C   UNL     1      53.064   7.941  20.047  0.00  0.00    +0.000 A 
ATOM     14  C   UNL     1      54.140   7.206  20.514  0.00  0.00    +0.000 A 
ATOM     15  N   UNL     1      55.392   7.667  20.147  0.00  0.00    +0.000 NA
ATOM     16  C   UNL     1      55.256   8.748  19.413  0.00  0.00    +0.000 A 
ATOM     17  S   UNL     1      53.649   9.256  19.109  0.00  0.00    +0.000 S 
ENDBRANCH  10  13
ENDBRANCH   8   9
ENDBRANCH   4   8
BRANCH   7  18
ATOM     18  C   UNL     1      47.353   3.473  16.541  0.00  0.00    +0.000 C 
BRANCH  18  19
ATOM     19  N   UNL     1      46.800   4.444  15.631  0.00  0.00    +0.000 N 
ATOM     20  C   UNL     1      46.790   4.261  14.274  0.00  0.00    +0.000 C 
ATOM     21  O   UNL     1      47.227   3.239  13.745  0.00  0.00    +0.000 OA
ATOM     22  H   UNL     1      46.683   5.380  16.003  0.00  0.00    +0.000 HD
BRANCH  20  23
ATOM     23  C   UNL     1      46.154   5.325  13.478  0.00  0.00    +0.000 A 
ATOM     24  C   UNL     1      46.834   6.507  13.220  0.00  0.00    +0.000 A 
ATOM     25  S   UNL     1      45.995   7.565  12.175  0.00  0.00    +0.000 S 
ATOM     26  C   UNL     1      44.671   6.501  12.072  0.00  0.00    +0.000 A 
ATOM     27  N   UNL     1      43.589   6.801  11.302  0.00  0.00    +0.000 NA
ATOM     28  C   UNL     1      42.652   5.910  11.328  0.00  0.00    +0.000 A 
ATOM     29  N   UNL     1      42.694   4.758  12.068  0.00  0.00    +0.000 N 
ATOM     30  C   UNL     1      43.757   4.424  12.869  0.00  0.00    +0.000 A 
ATOM     31  O   UNL     1      43.748   3.398  13.540  0.00  0.00    +0.000 OA
ATOM     32  C   UNL     1      44.857   5.368  12.841  0.00  0.00    +0.000 A 
ATOM     33  H   UNL     1      41.920   4.110  12.063  0.00  0.00    +0.000 HD
ENDBRANCH  20  23
ENDBRANCH  18  19
ENDBRANCH   7  18
TORSDOF 6
ENDMDL
MODEL 9
REMARK VINA RESULT:    -6.377      2.318      2.720
REMARK INTER + INTRA:          -9.414
REMARK INTER:                  -8.410
REMARK INTRA:                  -1.004
REMARK UNBOUND:                -0.800
REMARK  Name = 
REMARK  7 active torsions:
REMARK  status: ('A' for Active; 'I' for Inactive)
REMARK    1  A    between atoms: C_1  and  C_2
REMARK    2  A    between atoms: C_4  and  C_5
REMARK    3  A    between atoms: C_5  and  N_6
REMARK    4  A    between atoms: C_7  and  C_9
REMARK    5  A    between atoms: C_16  and  C_17
REMARK    6  A    between atoms: C_17  and  N_18
REMARK    7  A    between atoms: C_19  and  C_21
REMARK                            x       y       z     vdW  Elec       q    Type
REMARK                         _______ _______ _______ _____ _____    ______ ____
ROOT
ATOM      1  C   UNL     1      45.015   8.736  11.654  0.00  0.00    +0.000 C 
ATOM      2  C   UNL     1      45.460   7.357  12.058  0.00  0.00    +0.000 A 
ATOM      3  C   UNL     1      44.823   6.248  11.465  0.00  0.00    +0.000 A 
ATOM      4  C   UNL     1      45.166   4.933  11.805  0.00  0.00    +0.000 A 
ATOM      5  C   UNL     1      46.204   4.731  12.719  0.00  0.00    +0.000 A 
ATOM      6  C   UNL     1      46.838   5.822  13.326  0.00  0.00    +0.000 A 
ATOM      7  C   UNL     1      46.457   7.145  13.033  0.00  0.00    +0.000 A 
ENDROOT
BRANCH   4   8
ATOM      8  C   UNL     1      44.443   3.770  11.172  0.00  0.00    +0.000 C 
BRANCH   8   9
ATOM      9  N   UNL     1      45.211   3.198  10.095  0.00  0.00    +0.000 N 
ATOM     10  C   UNL     1      45.026   3.569   8.781  0.00  0.00    +0.000 C 
ATOM     11  O   UNL     1      44.194   4.414   8.463  0.00  0.00    +0.000 OA
ATOM     12  H   UNL     1      45.950   2.545  10.319  0.00  0.00    +0.000 HD
BRANCH  10  13
ATOM     13  C   UNL     1      45.878   2.898   7.818  0.00  0.00    +0.000 A 
ATOM     14  C   UNL     1      46.418   3.420   6.656  0.00  0.00    +0.000 A 
ATOM     15  N   UNL     1      47.186   2.549   5.902  0.00  0.00    +0.000 NA
ATOM     16  C   UNL     1      47.216   1.377   6.494  0.00  0.00    +0.000 A 
ATOM     17  S   UNL     1      46.358   1.255   7.971  0.00  0.00    +0.000 S 
ENDBRANCH  10  13
ENDBRANCH   8   9
ENDBRANCH   4   8
BRANCH   7  18
ATOM     18  C   UNL     1      47.154   8.281  13.758  0.00  0.00    +0.000 C 
BRANCH  18  19
ATOM     19  N   UNL     1      47.982   7.787  14.829  0.00  0.00    +0.000 N 
ATOM     20  C   UNL     1      48.348   8.564  15.896  0.00  0.00    +0.000 C 
ATOM     21  O   UNL     1      47.968   9.728  16.024  0.00  0.00    +0.000 OA
ATOM     22  H   UNL     1      48.515   6.949  14.624  0.00  0.00    +0.000 HD
BRANCH  20  23
ATOM     23  C   UNL     1      49.165   7.906  16.931  0.00  0.00    +0.000 A 
ATOM     24  C   UNL     1      48.689   7.787  18.229  0.00  0.00    +0.000 A 
ATOM     25  S   UNL     1      49.712   6.883  19.254  0.00  0.00    +0.000 S 
ATOM     26  C   UNL     1      50.853   6.662  18.010  0.00  0.00    +0.000 A 
ATOM     27  N   UNL     1      51.988   5.941  18.220  0.00  0.00    +0.000 NA
ATOM     28  C   UNL     1      52.770   5.866  17.194  0.00  0.00    +0.000 A 
ATOM     29  N   UNL     1      52.526   6.462  15.984  0.00  0.00    +0.000 N 
ATOM     30  C   UNL     1      51.403   7.210  15.734  0.00  0.00    +0.000 A 
ATOM     31  O   UNL     1      51.232   7.752  14.647  0.00  0.00    +0.000 OA
ATOM     32  C   UNL     1      50.468   7.288  16.839  0.00  0.00    +0.000 A 
ATOM     33  H   UNL     1      53.188   6.385  15.225  0.00  0.00    +0.000 HD
ENDBRANCH  20  23
ENDBRANCH  18  19
ENDBRANCH   7  18
TORSDOF 6
ENDMDL
