MODEL 1
REMARK VINA RESULT:    -8.317      0.000      0.000
REMARK INTER + INTRA:         -12.580
REMARK INTER:                 -11.963
REMARK INTRA:                  -0.617
REMARK UNBOUND:                -0.617
REMARK  Name = 
REMARK  8 active torsions:
REMARK  status: ('A' for Active; 'I' for Inactive)
REMARK    1  A    between atoms: C_2  and  C_3
REMARK    2  A    between atoms: C_2  and  C_22
REMARK    3  A    between atoms: C_3  and  O_4
REMARK    4  A    between atoms: O_4  and  C_5
REMARK    5  A    between atoms: C_8  and  C_9
REMARK    6  A    between atoms: C_9  and  N_10
REMARK    7  A    between atoms: C_11  and  C_13
REMARK    8  A    between atoms: C_15  and  O_16
REMARK                            x       y       z     vdW  Elec       q    Type
REMARK                         _______ _______ _______ _____ _____    ______ ____
ROOT
ATOM      1  C   UNL     1      46.687   4.070  13.606  0.00  0.00    +0.000 A 
ATOM      2  C   UNL     1      46.010   3.064  12.920  0.00  0.00    +0.000 A 
ATOM      3  C   UNL     1      45.103   3.394  11.902  0.00  0.00    +0.000 A 
ATOM      4  C   UNL     1      44.878   4.729  11.542  0.00  0.00    +0.000 A 
ATOM      5  C   UNL     1      45.557   5.734  12.242  0.00  0.00    +0.000 A 
ATOM      6  C   UNL     1      46.445   5.406  13.265  0.00  0.00    +0.000 A 
ENDROOT
BRANCH   1   7
ATOM      7  O   UNL     1      47.545   3.893  14.653  0.00  0.00    +0.000 OA
BRANCH   7   8
ATOM      8  C   UNL     1      47.575   4.904  15.654  0.00  0.00    +0.000 C 
BRANCH   8  10
ATOM      9  O   UNL     1      46.941   3.795  17.714  0.00  0.00    +0.000 OA
ATOM     10  C   UNL     1      47.841   4.288  17.039  0.00  0.00    +0.000 C 
BRANCH  10  11
ATOM     11  C   UNL     1      49.217   4.343  17.563  0.00  0.00    +0.000 A 
ATOM     12  C   UNL     1      49.726   5.435  18.249  0.00  0.00    +0.000 A 
ATOM     13  S   UNL     1      51.315   5.187  18.830  0.00  0.00    +0.000 S 
ATOM     14  C   UNL     1      51.374   3.617  18.173  0.00  0.00    +0.000 A 
ATOM     15  N   UNL     1      52.477   2.836  18.325  0.00  0.00    +0.000 NA
ATOM     16  C   UNL     1      52.377   1.668  17.784  0.00  0.00    +0.000 A 
ATOM     17  N   UNL     1      51.282   1.216  17.095  0.00  0.00    +0.000 N 
ATOM     18  C   UNL     1      50.182   2.004  16.830  0.00  0.00    +0.000 A 
ATOM     19  O   UNL     1      49.327   1.635  16.035  0.00  0.00    +0.000 OA
ATOM     20  C   UNL     1      50.211   3.296  17.496  0.00  0.00    +0.000 A 
ATOM     21  H   UNL     1      51.294   0.317  16.636  0.00  0.00    +0.000 HD
ENDBRANCH  10  11
ENDBRANCH   8  10
ENDBRANCH   7   8
ENDBRANCH   1   7
BRANCH   4  22
ATOM     22  C   UNL     1      43.899   5.085  10.455  0.00  0.00    +0.000 C 
BRANCH  22  23
ATOM     23  N   UNL     1      44.131   4.317   9.255  0.00  0.00    +0.000 N 
ATOM     24  C   UNL     1      45.241   4.470   8.455  0.00  0.00    +0.000 C 
ATOM     25  O   UNL     1      46.180   5.208   8.742  0.00  0.00    +0.000 OA
ATOM     26  H   UNL     1      43.449   3.630   8.953  0.00  0.00    +0.000 HD
BRANCH  24  27
ATOM     27  C   UNL     1      45.232   3.563   7.196  0.00  0.00    +0.000 C 
ATOM     28  C   UNL     1      45.120   2.074   7.517  0.00  0.00    +0.000 C 
ATOM     29  C   UNL     1      46.418   1.512   8.099  0.00  0.00    +0.000 C 
ATOM     30  C   UNL     1      47.626   1.873   7.241  0.00  0.00    +0.000 C 
ATOM     31  C   UNL     1      47.654   3.346   6.851  0.00  0.00    +0.000 C 
ATOM     32  N   UNL     1      46.387   3.838   6.299  0.00  0.00    +0.000 NA
ATOM     33  H   UNL     1      46.213   3.357   5.414  0.00  0.00    +0.000 HD
BRANCH  29  34
ATOM     34  O   UNL     1      46.322   0.087   8.183  0.00  0.00    +0.000 OA
ATOM     35  H   UNL     1      45.661  -0.140   8.852  0.00  0.00    +0.000 HD
ENDBRANCH  29  34
ENDBRANCH  24  27
ENDBRANCH  22  23
ENDBRANCH   4  22
TORSDOF 8
ENDMDL
MODEL 2
REMARK VINA RESULT:    -7.634      2.393      3.513
REMARK INTER + INTRA:         -11.598
REMARK INTER:                 -10.847
REMARK INTRA:                  -0.750
REMARK UNBOUND:                -0.617
REMARK  Name = 
REMARK  8 active torsions:
REMARK  status: ('A' for Active; 'I' for Inactive)
REMARK    1  A    between atoms: C_2  and  C_3
REMARK    2  A    between atoms: C_2  and  C_22
REMARK    3  A    between atoms: C_3  and  O_4
REMARK    4  A    between atoms: O_4  and  C_5
REMARK    5  A    between atoms: C_8  and  C_9
REMARK    6  A    between atoms: C_9  and  N_10
REMARK    7  A    between atoms: C_11  and  C_13
REMARK    8  A    between atoms: C_15  and  O_16
REMARK                            x       y       z     vdW  Elec       q    Type
REMARK                         _______ _______ _______ _____ _____    ______ ____
ROOT
ATOM      1  C   UNL     1      48.742   6.305  14.804  0.00  0.00    +0.000 A 
ATOM      2  C   UNL     1      49.233   7.266  13.922  0.00  0.00    +0.000 A 
ATOM      3  C   UNL     1      48.613   7.461  12.678  0.00  0.00    +0.000 A 
ATOM      4  C   UNL     1      47.485   6.717  12.310  0.00  0.00    +0.000 A 
ATOM      5  C   UNL     1      47.003   5.749  13.200  0.00  0.00    +0.000 A 
ATOM      6  C   UNL     1      47.629   5.543  14.428  0.00  0.00    +0.000 A 
ENDROOT
BRANCH   1   7
ATOM      7  O   UNL     1      49.282   5.972  16.011  0.00  0.00    +0.000 OA
BRANCH   7   8
ATOM      8  C   UNL     1      48.384   5.748  17.093  0.00  0.00    +0.000 C 
BRANCH   8  10
ATOM      9  O   UNL     1      47.801   3.581  18.009  0.00  0.00    +0.000 OA
ATOM     10  C   UNL     1      48.684   4.404  17.778  0.00  0.00    +0.000 C 
BRANCH  10  11
ATOM     11  C   UNL     1      50.072   4.139  18.196  0.00  0.00    +0.000 A 
ATOM     12  C   UNL     1      50.791   4.988  19.023  0.00  0.00    +0.000 A 
ATOM     13  S   UNL     1      52.339   4.385  19.427  0.00  0.00    +0.000 S 
ATOM     14  C   UNL     1      52.098   2.978  18.501  0.00  0.00    +0.000 A 
ATOM     15  N   UNL     1      53.058   2.016  18.427  0.00  0.00    +0.000 NA
ATOM     16  C   UNL     1      52.735   1.001  17.697  0.00  0.00    +0.000 A 
ATOM     17  N   UNL     1      51.548   0.867  17.025  0.00  0.00    +0.000 N 
ATOM     18  C   UNL     1      50.588   1.856  16.989  0.00  0.00    +0.000 A 
ATOM     19  O   UNL     1      49.646   1.783  16.210  0.00  0.00    +0.000 OA
ATOM     20  C   UNL     1      50.868   2.979  17.869  0.00  0.00    +0.000 A 
ATOM     21  H   UNL     1      51.385   0.080  16.415  0.00  0.00    +0.000 HD
ENDBRANCH  10  11
ENDBRANCH   8  10
ENDBRANCH   7   8
ENDBRANCH   1   7
BRANCH   4  22
ATOM     22  C   UNL     1      46.824   6.920  10.973  0.00  0.00    +0.000 C 
BRANCH  22  23
ATOM     23  N   UNL     1      45.543   6.259  10.904  0.00  0.00    +0.000 N 
ATOM     24  C   UNL     1      45.162   5.442   9.864  0.00  0.00    +0.000 C 
ATOM     25  O   UNL     1      45.916   5.126   8.947  0.00  0.00    +0.000 OA
ATOM     26  H   UNL     1      44.860   6.397  11.642  0.00  0.00    +0.000 HD
BRANCH  24  27
ATOM     27  C   UNL     1      43.718   4.891  10.000  0.00  0.00    +0.000 C 
ATOM     28  C   UNL     1      42.966   5.441  11.210  0.00  0.00    +0.000 C 
ATOM     29  C   UNL     1      43.478   4.848  12.523  0.00  0.00    +0.000 C 
ATOM     30  C   UNL     1      43.539   3.324  12.470  0.00  0.00    +0.000 C 
ATOM     31  C   UNL     1      44.204   2.805  11.201  0.00  0.00    +0.000 C 
ATOM     32  N   UNL     1      43.680   3.404   9.968  0.00  0.00    +0.000 NA
ATOM     33  H   UNL     1      42.703   3.121   9.863  0.00  0.00    +0.000 HD
BRANCH  29  34
ATOM     34  O   UNL     1      42.607   5.237  13.590  0.00  0.00    +0.000 OA
ATOM     35  H   UNL     1      41.698   5.238  13.262  0.00  0.00    +0.000 HD
ENDBRANCH  29  34
ENDBRANCH  24  27
ENDBRANCH  22  23
ENDBRANCH   4  22
TORSDOF 8
ENDMDL
MODEL 3
REMARK VINA RESULT:    -7.172      3.032      4.531
REMARK INTER + INTRA:         -10.933
REMARK INTER:                  -9.578
REMARK INTRA:                  -1.355
REMARK UNBOUND:                -0.617
REMARK  Name = 
REMARK  8 active torsions:
REMARK  status: ('A' for Active; 'I' for Inactive)
REMARK    1  A    between atoms: C_2  and  C_3
REMARK    2  A    between atoms: C_2  and  C_22
REMARK    3  A    between atoms: C_3  and  O_4
REMARK    4  A    between atoms: O_4  and  C_5
REMARK    5  A    between atoms: C_8  and  C_9
REMARK    6  A    between atoms: C_9  and  N_10
REMARK    7  A    between atoms: C_11  and  C_13
REMARK    8  A    between atoms: C_15  and  O_16
REMARK                            x       y       z     vdW  Elec       q    Type
REMARK                         _______ _______ _______ _____ _____    ______ ____
ROOT
ATOM      1  C   UNL     1      49.433   8.240  16.096  0.00  0.00    +0.000 A 
ATOM      2  C   UNL     1      50.135   7.439  15.196  0.00  0.00    +0.000 A 
ATOM      3  C   UNL     1      49.617   7.203  13.914  0.00  0.00    +0.000 A 
ATOM      4  C   UNL     1      48.406   7.780  13.508  0.00  0.00    +0.000 A 
ATOM      5  C   UNL     1      47.705   8.577  14.422  0.00  0.00    +0.000 A 
ATOM      6  C   UNL     1      48.212   8.797  15.701  0.00  0.00    +0.000 A 
ENDROOT
BRANCH   1   7
ATOM      7  O   UNL     1      49.790   8.500  17.387  0.00  0.00    +0.000 OA
BRANCH   7   8
ATOM      8  C   UNL     1      50.355   7.431  18.140  0.00  0.00    +0.000 C 
BRANCH   8  10
ATOM      9  O   UNL     1      48.697   6.820  19.798  0.00  0.00    +0.000 OA
ATOM     10  C   UNL     1      49.249   6.543  18.736  0.00  0.00    +0.000 C 
BRANCH  10  11
ATOM     11  C   UNL     1      48.892   5.310  18.013  0.00  0.00    +0.000 A 
ATOM     12  C   UNL     1      47.686   5.140  17.351  0.00  0.00    +0.000 A 
ATOM     13  S   UNL     1      47.579   3.654  16.514  0.00  0.00    +0.000 S 
ATOM     14  C   UNL     1      49.137   3.189  17.020  0.00  0.00    +0.000 A 
ATOM     15  N   UNL     1      49.670   1.998  16.635  0.00  0.00    +0.000 NA
ATOM     16  C   UNL     1      50.862   1.782  17.085  0.00  0.00    +0.000 A 
ATOM     17  N   UNL     1      51.560   2.641  17.894  0.00  0.00    +0.000 N 
ATOM     18  C   UNL     1      51.024   3.810  18.390  0.00  0.00    +0.000 A 
ATOM     19  O   UNL     1      51.598   4.435  19.273  0.00  0.00    +0.000 OA
ATOM     20  C   UNL     1      49.720   4.139  17.838  0.00  0.00    +0.000 A 
ATOM     21  H   UNL     1      52.461   2.382  18.268  0.00  0.00    +0.000 HD
ENDBRANCH  10  11
ENDBRANCH   8  10
ENDBRANCH   7   8
ENDBRANCH   1   7
BRANCH   4  22
ATOM     22  C   UNL     1      47.846   7.521  12.135  0.00  0.00    +0.000 C 
BRANCH  22  23
ATOM     23  N   UNL     1      46.448   7.166  12.186  0.00  0.00    +0.000 N 
ATOM     24  C   UNL     1      45.991   5.918  12.544  0.00  0.00    +0.000 C 
ATOM     25  O   UNL     1      46.729   5.021  12.945  0.00  0.00    +0.000 OA
ATOM     26  H   UNL     1      45.741   7.850  11.936  0.00  0.00    +0.000 HD
BRANCH  24  27
ATOM     27  C   UNL     1      44.447   5.774  12.473  0.00  0.00    +0.000 C 
ATOM     28  C   UNL     1      43.930   4.454  13.043  0.00  0.00    +0.000 C 
ATOM     29  C   UNL     1      44.234   3.272  12.121  0.00  0.00    +0.000 C 
ATOM     30  C   UNL     1      43.794   3.544  10.687  0.00  0.00    +0.000 C 
ATOM     31  C   UNL     1      44.238   4.912  10.183  0.00  0.00    +0.000 C 
ATOM     32  N   UNL     1      43.925   6.014  11.100  0.00  0.00    +0.000 NA
ATOM     33  H   UNL     1      42.909   6.099  11.166  0.00  0.00    +0.000 HD
BRANCH  29  34
ATOM     34  O   UNL     1      43.550   2.111  12.601  0.00  0.00    +0.000 OA
ATOM     35  H   UNL     1      43.586   1.426  11.919  0.00  0.00    +0.000 HD
ENDBRANCH  29  34
ENDBRANCH  24  27
ENDBRANCH  22  23
ENDBRANCH   4  22
TORSDOF 8
ENDMDL
MODEL 4
REMARK VINA RESULT:    -7.058      3.272      5.181
REMARK INTER + INTRA:         -10.769
REMARK INTER:                  -9.331
REMARK INTRA:                  -1.438
REMARK UNBOUND:                -0.617
REMARK  Name = 
REMARK  8 active torsions:
REMARK  status: ('A' for Active; 'I' for Inactive)
REMARK    1  A    between atoms: C_2  and  C_3
REMARK    2  A    between atoms: C_2  and  C_22
REMARK    3  A    between atoms: C_3  and  O_4
REMARK    4  A    between atoms: O_4  and  C_5
REMARK    5  A    between atoms: C_8  and  C_9
REMARK    6  A    between atoms: C_9  and  N_10
REMARK    7  A    between atoms: C_11  and  C_13
REMARK    8  A    between atoms: C_15  and  O_16
REMARK                            x       y       z     vdW  Elec       q    Type
REMARK                         _______ _______ _______ _____ _____    ______ ____
ROOT
ATOM      1  C   UNL     1      50.490   8.324  16.186  0.00  0.00    +0.000 A 
ATOM      2  C   UNL     1      50.439   7.398  15.145  0.00  0.00    +0.000 A 
ATOM      3  C   UNL     1      49.371   7.422  14.235  0.00  0.00    +0.000 A 
ATOM      4  C   UNL     1      48.356   8.381  14.339  0.00  0.00    +0.000 A 
ATOM      5  C   UNL     1      48.412   9.302  15.392  0.00  0.00    +0.000 A 
ATOM      6  C   UNL     1      49.463   9.268  16.307  0.00  0.00    +0.000 A 
ENDROOT
BRANCH   1   7
ATOM      7  O   UNL     1      51.433   8.374  17.171  0.00  0.00    +0.000 OA
BRANCH   7   8
ATOM      8  C   UNL     1      52.124   7.168  17.479  0.00  0.00    +0.000 C 
BRANCH   8  10
ATOM      9  O   UNL     1      51.108   6.677  19.624  0.00  0.00    +0.000 OA
ATOM     10  C   UNL     1      51.311   6.314  18.468  0.00  0.00    +0.000 C 
BRANCH  10  11
ATOM     11  C   UNL     1      50.809   5.010  18.000  0.00  0.00    +0.000 A 
ATOM     12  C   UNL     1      51.631   3.916  17.776  0.00  0.00    +0.000 A 
ATOM     13  S   UNL     1      50.771   2.506  17.336  0.00  0.00    +0.000 S 
ATOM     14  C   UNL     1      49.277   3.317  17.421  0.00  0.00    +0.000 A 
ATOM     15  N   UNL     1      48.111   2.665  17.164  0.00  0.00    +0.000 NA
ATOM     16  C   UNL     1      47.057   3.403  17.276  0.00  0.00    +0.000 A 
ATOM     17  N   UNL     1      47.064   4.733  17.608  0.00  0.00    +0.000 N 
ATOM     18  C   UNL     1      48.223   5.459  17.780  0.00  0.00    +0.000 A 
ATOM     19  O   UNL     1      48.188   6.680  17.863  0.00  0.00    +0.000 OA
ATOM     20  C   UNL     1      49.432   4.652  17.752  0.00  0.00    +0.000 A 
ATOM     21  H   UNL     1      46.210   5.270  17.611  0.00  0.00    +0.000 HD
ENDBRANCH  10  11
ENDBRANCH   8  10
ENDBRANCH   7   8
ENDBRANCH   1   7
BRANCH   4  22
ATOM     22  C   UNL     1      47.206   8.403  13.367  0.00  0.00    +0.000 C 
BRANCH  22  23
ATOM     23  N   UNL     1      46.282   7.320  13.609  0.00  0.00    +0.000 N 
ATOM     24  C   UNL     1      46.087   6.275  12.735  0.00  0.00    +0.000 C 
ATOM     25  O   UNL     1      46.753   6.120  11.714  0.00  0.00    +0.000 OA
ATOM     26  H   UNL     1      45.722   7.311  14.454  0.00  0.00    +0.000 HD
BRANCH  24  27
ATOM     27  C   UNL     1      45.004   5.266  13.200  0.00  0.00    +0.000 C 
ATOM     28  C   UNL     1      45.152   3.880  12.574  0.00  0.00    +0.000 C 
ATOM     29  C   UNL     1      44.745   3.869  11.100  0.00  0.00    +0.000 C 
ATOM     30  C   UNL     1      43.375   4.504  10.886  0.00  0.00    +0.000 C 
ATOM     31  C   UNL     1      43.224   5.838  11.608  0.00  0.00    +0.000 C 
ATOM     32  N   UNL     1      43.627   5.799  13.018  0.00  0.00    +0.000 NA
ATOM     33  H   UNL     1      42.987   5.179  13.519  0.00  0.00    +0.000 HD
BRANCH  29  34
ATOM     34  O   UNL     1      44.705   2.518  10.630  0.00  0.00    +0.000 OA
ATOM     35  H   UNL     1      44.857   1.925  11.379  0.00  0.00    +0.000 HD
ENDBRANCH  29  34
ENDBRANCH  24  27
ENDBRANCH  22  23
ENDBRANCH   4  22
TORSDOF 8
ENDMDL
MODEL 5
REMARK VINA RESULT:    -6.983      4.313      5.492
REMARK INTER + INTRA:         -10.661
REMARK INTER:                  -9.332
REMARK INTRA:                  -1.329
REMARK UNBOUND:                -0.617
REMARK  Name = 
REMARK  8 active torsions:
REMARK  status: ('A' for Active; 'I' for Inactive)
REMARK    1  A    between atoms: C_2  and  C_3
REMARK    2  A    between atoms: C_2  and  C_22
REMARK    3  A    between atoms: C_3  and  O_4
REMARK    4  A    between atoms: O_4  and  C_5
REMARK    5  A    between atoms: C_8  and  C_9
REMARK    6  A    between atoms: C_9  and  N_10
REMARK    7  A    between atoms: C_11  and  C_13
REMARK    8  A    between atoms: C_15  and  O_16
REMARK                            x       y       z     vdW  Elec       q    Type
REMARK                         _______ _______ _______ _____ _____    ______ ____
ROOT
ATOM      1  C   UNL     1      47.878   8.424  12.154  0.00  0.00    +0.000 A 
ATOM      2  C   UNL     1      46.579   8.850  12.421  0.00  0.00    +0.000 A 
ATOM      3  C   UNL     1      45.561   7.908  12.638  0.00  0.00    +0.000 A 
ATOM      4  C   UNL     1      45.832   6.534  12.612  0.00  0.00    +0.000 A 
ATOM      5  C   UNL     1      47.140   6.116  12.336  0.00  0.00    +0.000 A 
ATOM      6  C   UNL     1      48.147   7.051  12.104  0.00  0.00    +0.000 A 
ENDROOT
BRANCH   1   7
ATOM      7  O   UNL     1      48.944   9.226  11.866  0.00  0.00    +0.000 OA
BRANCH   7   8
ATOM      8  C   UNL     1      50.245   8.685  12.066  0.00  0.00    +0.000 C 
BRANCH   8  10
ATOM      9  O   UNL     1      51.809   9.933  13.433  0.00  0.00    +0.000 OA
ATOM     10  C   UNL     1      50.840   9.180  13.396  0.00  0.00    +0.000 C 
BRANCH  10  11
ATOM     11  C   UNL     1      50.236   8.685  14.646  0.00  0.00    +0.000 A 
ATOM     12  C   UNL     1      50.413   7.393  15.116  0.00  0.00    +0.000 A 
ATOM     13  S   UNL     1      49.683   7.122  16.638  0.00  0.00    +0.000 S 
ATOM     14  C   UNL     1      49.100   8.720  16.709  0.00  0.00    +0.000 A 
ATOM     15  N   UNL     1      48.385   9.156  17.781  0.00  0.00    +0.000 NA
ATOM     16  C   UNL     1      48.016  10.392  17.704  0.00  0.00    +0.000 A 
ATOM     17  N   UNL     1      48.285  11.224  16.648  0.00  0.00    +0.000 N 
ATOM     18  C   UNL     1      48.918  10.800  15.499  0.00  0.00    +0.000 A 
ATOM     19  O   UNL     1      48.947  11.512  14.503  0.00  0.00    +0.000 OA
ATOM     20  C   UNL     1      49.432   9.442  15.577  0.00  0.00    +0.000 A 
ATOM     21  H   UNL     1      47.909  12.159  16.617  0.00  0.00    +0.000 HD
ENDBRANCH  10  11
ENDBRANCH   8  10
ENDBRANCH   7   8
ENDBRANCH   1   7
BRANCH   4  22
ATOM     22  C   UNL     1      44.739   5.523  12.837  0.00  0.00    +0.000 C 
BRANCH  22  23
ATOM     23  N   UNL     1      44.279   4.949  11.596  0.00  0.00    +0.000 N 
ATOM     24  C   UNL     1      44.617   3.685  11.169  0.00  0.00    +0.000 C 
ATOM     25  O   UNL     1      45.264   2.896  11.852  0.00  0.00    +0.000 OA
ATOM     26  H   UNL     1      43.684   5.490  10.977  0.00  0.00    +0.000 HD
BRANCH  24  27
ATOM     27  C   UNL     1      44.035   3.320   9.778  0.00  0.00    +0.000 C 
ATOM     28  C   UNL     1      44.528   1.976   9.243  0.00  0.00    +0.000 C 
ATOM     29  C   UNL     1      45.986   2.039   8.786  0.00  0.00    +0.000 C 
ATOM     30  C   UNL     1      46.232   3.210   7.841  0.00  0.00    +0.000 C 
ATOM     31  C   UNL     1      45.639   4.517   8.354  0.00  0.00    +0.000 C 
ATOM     32  N   UNL     1      44.240   4.406   8.782  0.00  0.00    +0.000 NA
ATOM     33  H   UNL     1      43.669   4.187   7.963  0.00  0.00    +0.000 HD
BRANCH  29  34
ATOM     34  O   UNL     1      46.322   0.823   8.110  0.00  0.00    +0.000 OA
ATOM     35  H   UNL     1      46.022   0.077   8.646  0.00  0.00    +0.000 HD
ENDBRANCH  29  34
ENDBRANCH  24  27
ENDBRANCH  22  23
ENDBRANCH   4  22
TORSDOF 8
ENDMDL
MODEL 6
REMARK VINA RESULT:    -6.940      2.705      4.178
REMARK INTER + INTRA:         -10.600
REMARK INTER:                  -9.785
REMARK INTRA:                  -0.815
REMARK UNBOUND:                -0.617
REMARK  Name = 
REMARK  8 active torsions:
REMARK  status: ('A' for Active; 'I' for Inactive)
REMARK    1  A    between atoms: C_2  and  C_3
REMARK    2  A    between atoms: C_2  and  C_22
REMARK    3  A    between atoms: C_3  and  O_4
REMARK    4  A    between atoms: O_4  and  C_5
REMARK    5  A    between atoms: C_8  and  C_9
REMARK    6  A    between atoms: C_9  and  N_10
REMARK    7  A    between atoms: C_11  and  C_13
REMARK    8  A    between atoms: C_15  and  O_16
REMARK                            x       y       z     vdW  Elec       q    Type
REMARK                         _______ _______ _______ _____ _____    ______ ____
ROOT
ATOM      1  C   UNL     1      48.657   8.094  15.791  0.00  0.00    +0.000 A 
ATOM      2  C   UNL     1      47.969   9.058  15.056  0.00  0.00    +0.000 A 
ATOM      3  C   UNL     1      47.519   8.765  13.760  0.00  0.00    +0.000 A 
ATOM      4  C   UNL     1      47.731   7.502  13.191  0.00  0.00    +0.000 A 
ATOM      5  C   UNL     1      48.429   6.543  13.935  0.00  0.00    +0.000 A 
ATOM      6  C   UNL     1      48.891   6.840  15.216  0.00  0.00    +0.000 A 
ENDROOT
BRANCH   1   7
ATOM      7  O   UNL     1      49.200   8.265  17.031  0.00  0.00    +0.000 OA
BRANCH   7   8
ATOM      8  C   UNL     1      48.370   7.988  18.154  0.00  0.00    +0.000 C 
BRANCH   8  10
ATOM      9  O   UNL     1      48.933   7.056  20.320  0.00  0.00    +0.000 OA
ATOM     10  C   UNL     1      49.054   6.985  19.099  0.00  0.00    +0.000 C 
BRANCH  10  11
ATOM     11  C   UNL     1      49.907   5.944  18.498  0.00  0.00    +0.000 A 
ATOM     12  C   UNL     1      51.289   6.033  18.443  0.00  0.00    +0.000 A 
ATOM     13  S   UNL     1      52.029   4.640  17.783  0.00  0.00    +0.000 S 
ATOM     14  C   UNL     1      50.525   3.882  17.541  0.00  0.00    +0.000 A 
ATOM     15  N   UNL     1      50.449   2.633  17.007  0.00  0.00    +0.000 NA
ATOM     16  C   UNL     1      49.245   2.180  16.891  0.00  0.00    +0.000 A 
ATOM     17  N   UNL     1      48.113   2.866  17.247  0.00  0.00    +0.000 N 
ATOM     18  C   UNL     1      48.133   4.169  17.698  0.00  0.00    +0.000 A 
ATOM     19  O   UNL     1      47.095   4.811  17.800  0.00  0.00    +0.000 OA
ATOM     20  C   UNL     1      49.471   4.689  17.931  0.00  0.00    +0.000 A 
ATOM     21  H   UNL     1      47.197   2.483  17.065  0.00  0.00    +0.000 HD
ENDBRANCH  10  11
ENDBRANCH   8  10
ENDBRANCH   7   8
ENDBRANCH   1   7
BRANCH   4  22
ATOM     22  C   UNL     1      47.255   7.190  11.798  0.00  0.00    +0.000 C 
BRANCH  22  23
ATOM     23  N   UNL     1      46.072   6.364  11.810  0.00  0.00    +0.000 N 
ATOM     24  C   UNL     1      44.804   6.844  11.569  0.00  0.00    +0.000 C 
ATOM     25  O   UNL     1      44.578   8.002  11.228  0.00  0.00    +0.000 OA
ATOM     26  H   UNL     1      46.146   5.374  12.018  0.00  0.00    +0.000 HD
BRANCH  24  27
ATOM     27  C   UNL     1      43.695   5.765  11.689  0.00  0.00    +0.000 C 
ATOM     28  C   UNL     1      44.085   4.584  12.576  0.00  0.00    +0.000 C 
ATOM     29  C   UNL     1      45.110   3.672  11.900  0.00  0.00    +0.000 C 
ATOM     30  C   UNL     1      44.674   3.275  10.494  0.00  0.00    +0.000 C 
ATOM     31  C   UNL     1      44.193   4.462   9.669  0.00  0.00    +0.000 C 
ATOM     32  N   UNL     1      43.212   5.307  10.359  0.00  0.00    +0.000 NA
ATOM     33  H   UNL     1      42.363   4.758  10.509  0.00  0.00    +0.000 HD
BRANCH  29  34
ATOM     34  O   UNL     1      45.277   2.486  12.684  0.00  0.00    +0.000 OA
ATOM     35  H   UNL     1      46.210   2.233  12.668  0.00  0.00    +0.000 HD
ENDBRANCH  29  34
ENDBRANCH  24  27
ENDBRANCH  22  23
ENDBRANCH   4  22
TORSDOF 8
ENDMDL
MODEL 7
REMARK VINA RESULT:    -6.936      3.294      9.285
REMARK INTER + INTRA:         -10.594
REMARK INTER:                  -9.639
REMARK INTRA:                  -0.955
REMARK UNBOUND:                -0.617
REMARK  Name = 
REMARK  8 active torsions:
REMARK  status: ('A' for Active; 'I' for Inactive)
REMARK    1  A    between atoms: C_2  and  C_3
REMARK    2  A    between atoms: C_2  and  C_22
REMARK    3  A    between atoms: C_3  and  O_4
REMARK    4  A    between atoms: O_4  and  C_5
REMARK    5  A    between atoms: C_8  and  C_9
REMARK    6  A    between atoms: C_9  and  N_10
REMARK    7  A    between atoms: C_11  and  C_13
REMARK    8  A    between atoms: C_15  and  O_16
REMARK                            x       y       z     vdW  Elec       q    Type
REMARK                         _______ _______ _______ _____ _____    ______ ____
ROOT
ATOM      1  C   UNL     1      48.245   8.378  13.321  0.00  0.00    +0.000 A 
ATOM      2  C   UNL     1      48.164   9.435  14.226  0.00  0.00    +0.000 A 
ATOM      3  C   UNL     1      48.834   9.360  15.457  0.00  0.00    +0.000 A 
ATOM      4  C   UNL     1      49.609   8.241  15.789  0.00  0.00    +0.000 A 
ATOM      5  C   UNL     1      49.679   7.182  14.876  0.00  0.00    +0.000 A 
ATOM      6  C   UNL     1      48.999   7.249  13.661  0.00  0.00    +0.000 A 
ENDROOT
BRANCH   1   7
ATOM      7  O   UNL     1      47.598   8.295  12.123  0.00  0.00    +0.000 OA
BRANCH   7   8
ATOM      8  C   UNL     1      47.229   6.998  11.666  0.00  0.00    +0.000 C 
BRANCH   8  10
ATOM      9  O   UNL     1      44.976   7.868  11.461  0.00  0.00    +0.000 OA
ATOM     10  C   UNL     1      45.699   6.879  11.549  0.00  0.00    +0.000 C 
BRANCH  10  11
ATOM     11  C   UNL     1      45.109   5.530  11.590  0.00  0.00    +0.000 A 
ATOM     12  C   UNL     1      44.531   4.988  12.728  0.00  0.00    +0.000 A 
ATOM     13  S   UNL     1      43.836   3.448  12.464  0.00  0.00    +0.000 S 
ATOM     14  C   UNL     1      44.296   3.456  10.825  0.00  0.00    +0.000 A 
ATOM     15  N   UNL     1      43.990   2.412  10.008  0.00  0.00    +0.000 NA
ATOM     16  C   UNL     1      44.393   2.558   8.789  0.00  0.00    +0.000 A 
ATOM     17  N   UNL     1      45.084   3.645   8.319  0.00  0.00    +0.000 N 
ATOM     18  C   UNL     1      45.502   4.679   9.129  0.00  0.00    +0.000 A 
ATOM     19  O   UNL     1      46.294   5.516   8.714  0.00  0.00    +0.000 OA
ATOM     20  C   UNL     1      44.995   4.602  10.489  0.00  0.00    +0.000 A 
ATOM     21  H   UNL     1      45.431   3.667   7.371  0.00  0.00    +0.000 HD
ENDBRANCH  10  11
ENDBRANCH   8  10
ENDBRANCH   7   8
ENDBRANCH   1   7
BRANCH   4  22
ATOM     22  C   UNL     1      50.322   8.157  17.112  0.00  0.00    +0.000 C 
BRANCH  22  23
ATOM     23  N   UNL     1      50.029   6.922  17.799  0.00  0.00    +0.000 N 
ATOM     24  C   UNL     1      48.879   6.707  18.524  0.00  0.00    +0.000 C 
ATOM     25  O   UNL     1      47.954   7.514  18.572  0.00  0.00    +0.000 OA
ATOM     26  H   UNL     1      50.696   6.158  17.776  0.00  0.00    +0.000 HD
BRANCH  24  27
ATOM     27  C   UNL     1      48.824   5.316  19.209  0.00  0.00    +0.000 C 
ATOM     28  C   UNL     1      49.899   4.349  18.715  0.00  0.00    +0.000 C 
ATOM     29  C   UNL     1      49.606   3.835  17.305  0.00  0.00    +0.000 C 
ATOM     30  C   UNL     1      48.184   3.297  17.183  0.00  0.00    +0.000 C 
ATOM     31  C   UNL     1      47.144   4.240  17.778  0.00  0.00    +0.000 C 
ATOM     32  N   UNL     1      47.469   4.706  19.130  0.00  0.00    +0.000 NA
ATOM     33  H   UNL     1      47.455   3.901  19.760  0.00  0.00    +0.000 HD
BRANCH  29  34
ATOM     34  O   UNL     1      50.524   2.786  16.984  0.00  0.00    +0.000 OA
ATOM     35  H   UNL     1      50.389   2.527  16.062  0.00  0.00    +0.000 HD
ENDBRANCH  29  34
ENDBRANCH  24  27
ENDBRANCH  22  23
ENDBRANCH   4  22
TORSDOF 8
ENDMDL
MODEL 8
REMARK VINA RESULT:    -6.911      3.694      9.113
REMARK INTER + INTRA:         -10.558
REMARK INTER:                  -9.705
REMARK INTRA:                  -0.853
REMARK UNBOUND:                -0.617
REMARK  Name = 
REMARK  8 active torsions:
REMARK  status: ('A' for Active; 'I' for Inactive)
REMARK    1  A    between atoms: C_2  and  C_3
REMARK    2  A    between atoms: C_2  and  C_22
REMARK    3  A    between atoms: C_3  and  O_4
REMARK    4  A    between atoms: O_4  and  C_5
REMARK    5  A    between atoms: C_8  and  C_9
REMARK    6  A    between atoms: C_9  and  N_10
REMARK    7  A    between atoms: C_11  and  C_13
REMARK    8  A    between atoms: C_15  and  O_16
REMARK                            x       y       z     vdW  Elec       q    Type
REMARK                         _______ _______ _______ _____ _____    ______ ____
ROOT
ATOM      1  C   UNL     1      48.803   7.759  13.348  0.00  0.00    +0.000 A 
ATOM      2  C   UNL     1      48.292   6.986  14.388  0.00  0.00    +0.000 A 
ATOM      3  C   UNL     1      49.099   6.668  15.491  0.00  0.00    +0.000 A 
ATOM      4  C   UNL     1      50.417   7.138  15.579  0.00  0.00    +0.000 A 
ATOM      5  C   UNL     1      50.923   7.909  14.526  0.00  0.00    +0.000 A 
ATOM      6  C   UNL     1      50.127   8.209  13.422  0.00  0.00    +0.000 A 
ENDROOT
BRANCH   1   7
ATOM      7  O   UNL     1      48.151   8.088  12.196  0.00  0.00    +0.000 OA
BRANCH   7   8
ATOM      8  C   UNL     1      47.726   7.020  11.355  0.00  0.00    +0.000 C 
BRANCH   8  10
ATOM      9  O   UNL     1      45.482   7.816  11.807  0.00  0.00    +0.000 OA
ATOM     10  C   UNL     1      46.190   6.948  11.304  0.00  0.00    +0.000 C 
BRANCH  10  11
ATOM     11  C   UNL     1      45.578   5.770  10.665  0.00  0.00    +0.000 A 
ATOM     12  C   UNL     1      45.754   5.454   9.327  0.00  0.00    +0.000 A 
ATOM     13  S   UNL     1      45.013   3.980   8.878  0.00  0.00    +0.000 S 
ATOM     14  C   UNL     1      44.426   3.726  10.455  0.00  0.00    +0.000 A 
ATOM     15  N   UNL     1      43.701   2.616  10.761  0.00  0.00    +0.000 NA
ATOM     16  C   UNL     1      43.330   2.550  11.996  0.00  0.00    +0.000 A 
ATOM     17  N   UNL     1      43.605   3.499  12.947  0.00  0.00    +0.000 N 
ATOM     18  C   UNL     1      44.248   4.684  12.663  0.00  0.00    +0.000 A 
ATOM     19  O   UNL     1      44.283   5.589  13.488  0.00  0.00    +0.000 OA
ATOM     20  C   UNL     1      44.764   4.763  11.306  0.00  0.00    +0.000 A 
ATOM     21  H   UNL     1      43.226   3.422  13.880  0.00  0.00    +0.000 HD
ENDBRANCH  10  11
ENDBRANCH   8  10
ENDBRANCH   7   8
ENDBRANCH   1   7
BRANCH   4  22
ATOM     22  C   UNL     1      51.286   6.792  16.759  0.00  0.00    +0.000 C 
BRANCH  22  23
ATOM     23  N   UNL     1      50.912   5.527  17.345  0.00  0.00    +0.000 N 
ATOM     24  C   UNL     1      50.137   5.411  18.477  0.00  0.00    +0.000 C 
ATOM     25  O   UNL     1      49.613   6.372  19.034  0.00  0.00    +0.000 OA
ATOM     26  H   UNL     1      51.237   4.660  16.930  0.00  0.00    +0.000 HD
BRANCH  24  27
ATOM     27  C   UNL     1      49.918   3.945  18.935  0.00  0.00    +0.000 C 
ATOM     28  C   UNL     1      50.221   2.914  17.849  0.00  0.00    +0.000 C 
ATOM     29  C   UNL     1      49.146   2.894  16.761  0.00  0.00    +0.000 C 
ATOM     30  C   UNL     1      47.744   2.780  17.351  0.00  0.00    +0.000 C 
ATOM     31  C   UNL     1      47.509   3.752  18.502  0.00  0.00    +0.000 C 
ATOM     32  N   UNL     1      48.566   3.736  19.519  0.00  0.00    +0.000 NA
ATOM     33  H   UNL     1      48.562   2.820  19.972  0.00  0.00    +0.000 HD
BRANCH  29  34
ATOM     34  O   UNL     1      49.372   1.778  15.894  0.00  0.00    +0.000 OA
ATOM     35  H   UNL     1      48.551   1.273  15.818  0.00  0.00    +0.000 HD
ENDBRANCH  29  34
ENDBRANCH  24  27
ENDBRANCH  22  23
ENDBRANCH   4  22
TORSDOF 8
ENDMDL
MODEL 9
REMARK VINA RESULT:    -6.807      3.400      5.268
REMARK INTER + INTRA:         -10.408
REMARK INTER:                  -8.916
REMARK INTRA:                  -1.492
REMARK UNBOUND:                -0.617
REMARK  Name = 
REMARK  8 active torsions:
REMARK  status: ('A' for Active; 'I' for Inactive)
REMARK    1  A    between atoms: C_2  and  C_3
REMARK    2  A    between atoms: C_2  and  C_22
REMARK    3  A    between atoms: C_3  and  O_4
REMARK    4  A    between atoms: O_4  and  C_5
REMARK    5  A    between atoms: C_8  and  C_9
REMARK    6  A    between atoms: C_9  and  N_10
REMARK    7  A    between atoms: C_11  and  C_13
REMARK    8  A    between atoms: C_15  and  O_16
REMARK                            x       y       z     vdW  Elec       q    Type
REMARK                         _______ _______ _______ _____ _____    ______ ____
ROOT
ATOM      1  C   UNL     1      50.594   8.121  16.224  0.00  0.00    +0.000 A 
ATOM      2  C   UNL     1      49.502   8.939  16.510  0.00  0.00    +0.000 A 
ATOM      3  C   UNL     1      48.434   9.029  15.604  0.00  0.00    +0.000 A 
ATOM      4  C   UNL     1      48.433   8.288  14.415  0.00  0.00    +0.000 A 
ATOM      5  C   UNL     1      49.538   7.475  14.133  0.00  0.00    +0.000 A 
ATOM      6  C   UNL     1      50.606   7.399  15.025  0.00  0.00    +0.000 A 
ENDROOT
BRANCH   1   7
ATOM      7  O   UNL     1      51.719   7.989  16.984  0.00  0.00    +0.000 OA
BRANCH   7   8
ATOM      8  C   UNL     1      51.587   8.169  18.390  0.00  0.00    +0.000 C 
BRANCH   8  10
ATOM      9  O   UNL     1      52.180   6.069  19.445  0.00  0.00    +0.000 OA
ATOM     10  C   UNL     1      51.285   6.828  19.082  0.00  0.00    +0.000 C 
BRANCH  10  11
ATOM     11  C   UNL     1      49.873   6.450  19.263  0.00  0.00    +0.000 A 
ATOM     12  C   UNL     1      49.064   6.984  20.255  0.00  0.00    +0.000 A 
ATOM     13  S   UNL     1      47.445   6.443  20.170  0.00  0.00    +0.000 S 
ATOM     14  C   UNL     1      47.778   5.471  18.813  0.00  0.00    +0.000 A 
ATOM     15  N   UNL     1      46.799   4.733  18.223  0.00  0.00    +0.000 NA
ATOM     16  C   UNL     1      47.193   4.052  17.199  0.00  0.00    +0.000 A 
ATOM     17  N   UNL     1      48.478   4.032  16.720  0.00  0.00    +0.000 N 
ATOM     18  C   UNL     1      49.522   4.683  17.342  0.00  0.00    +0.000 A 
ATOM     19  O   UNL     1      50.680   4.466  17.008  0.00  0.00    +0.000 OA
ATOM     20  C   UNL     1      49.111   5.534  18.446  0.00  0.00    +0.000 A 
ATOM     21  H   UNL     1      48.736   3.424  15.957  0.00  0.00    +0.000 HD
ENDBRANCH  10  11
ENDBRANCH   8  10
ENDBRANCH   7   8
ENDBRANCH   1   7
BRANCH   4  22
ATOM     22  C   UNL     1      47.292   8.390  13.439  0.00  0.00    +0.000 C 
BRANCH  22  23
ATOM     23  N   UNL     1      46.326   7.335  13.634  0.00  0.00    +0.000 N 
ATOM     24  C   UNL     1      46.104   6.328  12.723  0.00  0.00    +0.000 C 
ATOM     25  O   UNL     1      46.775   6.182  11.705  0.00  0.00    +0.000 OA
ATOM     26  H   UNL     1      45.756   7.318  14.473  0.00  0.00    +0.000 HD
BRANCH  24  27
ATOM     27  C   UNL     1      44.979   5.344  13.142  0.00  0.00    +0.000 C 
ATOM     28  C   UNL     1      45.151   3.939  12.568  0.00  0.00    +0.000 C 
ATOM     29  C   UNL     1      44.844   3.890  11.070  0.00  0.00    +0.000 C 
ATOM     30  C   UNL     1      43.499   4.533  10.746  0.00  0.00    +0.000 C 
ATOM     31  C   UNL     1      43.318   5.889  11.419  0.00  0.00    +0.000 C 
ATOM     32  N   UNL     1      43.624   5.886  12.853  0.00  0.00    +0.000 NA
ATOM     33  H   UNL     1      42.944   5.288  13.327  0.00  0.00    +0.000 HD
BRANCH  29  34
ATOM     34  O   UNL     1      44.818   2.526  10.638  0.00  0.00    +0.000 OA
ATOM     35  H   UNL     1      45.727   2.199  10.590  0.00  0.00    +0.000 HD
ENDBRANCH  29  34
ENDBRANCH  24  27
ENDBRANCH  22  23
ENDBRANCH   4  22
TORSDOF 8
ENDMDL
