MODEL 1
REMARK VINA RESULT:    -7.932      0.000      0.000
REMARK INTER + INTRA:         -11.646
REMARK INTER:                 -10.947
REMARK INTRA:                  -0.700
REMARK UNBOUND:                -0.700
REMARK  Name = 
REMARK  7 active torsions:
REMARK  status: ('A' for Active; 'I' for Inactive)
REMARK    1  A    between atoms: C_2  and  C_19
REMARK    2  A    between atoms: N_3  and  C_4
REMARK    3  A    between atoms: C_4  and  C_5
REMARK    4  A    between atoms: C_8  and  C_9
REMARK    5  A    between atoms: C_9  and  O_10
REMARK    6  A    between atoms: C_9  and  C_11
REMARK    7  A    between atoms: C_11  and  N_12
REMARK                            x       y       z     vdW  Elec       q    Type
REMARK                         _______ _______ _______ _____ _____    ______ ____
ROOT
ATOM      1  C   UNL     1      46.154   7.422  12.761  0.00  0.00    +0.000 C 
ENDROOT
BRANCH   1   2
ATOM      2  C   UNL     1      45.740   6.264  11.900  0.00  0.00    +0.000 A 
ATOM      3  C   UNL     1      45.030   5.186  12.430  0.00  0.00    +0.000 A 
ATOM      4  C   UNL     1      44.637   4.140  11.601  0.00  0.00    +0.000 A 
ATOM      5  C   UNL     1      44.969   4.189  10.249  0.00  0.00    +0.000 A 
ATOM      6  N   UNL     1      45.656   5.229   9.704  0.00  0.00    +0.000 NA
ATOM      7  C   UNL     1      46.046   6.218  10.544  0.00  0.00    +0.000 A 
BRANCH   5   8
ATOM      8  C   UNL     1      44.508   3.090   9.309  0.00  0.00    +0.000 C 
BRANCH   8   9
ATOM      9  O   UNL     1      44.103   3.686   8.062  0.00  0.00    +0.000 OA
ATOM     10  H   UNL     1      44.369   4.624   8.141  0.00  0.00    +0.000 HD
ENDBRANCH   8   9
BRANCH   8  11
ATOM     11  C   UNL     1      45.620   2.062   8.994  0.00  0.00    +0.000 C 
BRANCH  11  12
ATOM     12  N   UNL     1      46.088   2.012   7.603  0.00  0.00    +0.000 NA
ATOM     13  C   UNL     1      46.931   3.151   7.234  0.00  0.00    +0.000 C 
ATOM     14  C   UNL     1      47.974   2.537   6.321  0.00  0.00    +0.000 C 
ATOM     15  N   UNL     1      48.193   1.221   6.924  0.00  0.00    +0.000 NA
ATOM     16  C   UNL     1      46.854   0.802   7.325  0.00  0.00    +0.000 C 
ATOM     17  H   UNL     1      48.728   1.349   7.781  0.00  0.00    +0.000 HD
ENDBRANCH  11  12
ENDBRANCH   8  11
ENDBRANCH   5   8
ENDBRANCH   1   2
BRANCH   1  20
ATOM     18  O   UNL     1      48.875   6.783  13.055  0.00  0.00    +0.000 OA
ATOM     19  C   UNL     1      48.143   6.718  14.038  0.00  0.00    +0.000 C 
ATOM     20  N   UNL     1      46.800   6.985  13.971  0.00  0.00    +0.000 N 
ATOM     21  H   UNL     1      46.267   7.069  14.831  0.00  0.00    +0.000 HD
BRANCH  19  22
ATOM     22  C   UNL     1      48.659   6.288  15.345  0.00  0.00    +0.000 A 
ATOM     23  C   UNL     1      49.659   7.025  15.964  0.00  0.00    +0.000 A 
ATOM     24  S   UNL     1      50.141   6.393  17.472  0.00  0.00    +0.000 S 
ATOM     25  C   UNL     1      48.999   5.136  17.372  0.00  0.00    +0.000 A 
ATOM     26  N   UNL     1      48.858   4.237  18.384  0.00  0.00    +0.000 NA
ATOM     27  C   UNL     1      47.926   3.364  18.196  0.00  0.00    +0.000 A 
ATOM     28  N   UNL     1      47.134   3.299  17.080  0.00  0.00    +0.000 N 
ATOM     29  C   UNL     1      47.297   4.128  15.996  0.00  0.00    +0.000 A 
ATOM     30  O   UNL     1      46.678   3.948  14.953  0.00  0.00    +0.000 OA
ATOM     31  C   UNL     1      48.289   5.173  16.185  0.00  0.00    +0.000 A 
ATOM     32  H   UNL     1      46.444   2.567  16.979  0.00  0.00    +0.000 HD
ENDBRANCH  19  22
ENDBRANCH   1  20
TORSDOF 7
ENDMDL
MODEL 2
REMARK VINA RESULT:    -7.536      1.927      2.440
REMARK INTER + INTRA:         -11.099
REMARK INTER:                 -10.496
REMARK INTRA:                  -0.603
REMARK UNBOUND:                -0.700
REMARK  Name = 
REMARK  7 active torsions:
REMARK  status: ('A' for Active; 'I' for Inactive)
REMARK    1  A    between atoms: C_2  and  C_19
REMARK    2  A    between atoms: N_3  and  C_4
REMARK    3  A    between atoms: C_4  and  C_5
REMARK    4  A    between atoms: C_8  and  C_9
REMARK    5  A    between atoms: C_9  and  O_10
REMARK    6  A    between atoms: C_9  and  C_11
REMARK    7  A    between atoms: C_11  and  N_12
REMARK                            x       y       z     vdW  Elec       q    Type
REMARK                         _______ _______ _______ _____ _____    ______ ____
ROOT
ATOM      1  C   UNL     1      47.884   6.721  13.452  0.00  0.00    +0.000 C 
ENDROOT
BRANCH   1   2
ATOM      2  C   UNL     1      46.852   5.792  12.882  0.00  0.00    +0.000 A 
ATOM      3  C   UNL     1      45.984   6.207  11.871  0.00  0.00    +0.000 A 
ATOM      4  C   UNL     1      45.055   5.316  11.345  0.00  0.00    +0.000 A 
ATOM      5  C   UNL     1      45.007   4.017  11.846  0.00  0.00    +0.000 A 
ATOM      6  N   UNL     1      45.843   3.583  12.827  0.00  0.00    +0.000 NA
ATOM      7  C   UNL     1      46.717   4.484  13.335  0.00  0.00    +0.000 A 
BRANCH   5   8
ATOM      8  C   UNL     1      44.043   3.005  11.255  0.00  0.00    +0.000 C 
BRANCH   8   9
ATOM      9  O   UNL     1      42.697   3.413  11.559  0.00  0.00    +0.000 OA
ATOM     10  H   UNL     1      42.362   2.722  12.166  0.00  0.00    +0.000 HD
ENDBRANCH   8   9
BRANCH   8  11
ATOM     11  C   UNL     1      44.160   2.891   9.716  0.00  0.00    +0.000 C 
BRANCH  11  12
ATOM     12  N   UNL     1      45.521   2.894   9.163  0.00  0.00    +0.000 NA
ATOM     13  C   UNL     1      45.880   1.639   8.500  0.00  0.00    +0.000 C 
ATOM     14  C   UNL     1      46.712   2.090   7.316  0.00  0.00    +0.000 C 
ATOM     15  N   UNL     1      46.054   3.337   6.919  0.00  0.00    +0.000 NA
ATOM     16  C   UNL     1      45.715   3.965   8.192  0.00  0.00    +0.000 C 
ATOM     17  H   UNL     1      45.173   3.101   6.466  0.00  0.00    +0.000 HD
ENDBRANCH  11  12
ENDBRANCH   8  11
ENDBRANCH   5   8
ENDBRANCH   1   2
BRANCH   1  20
ATOM     18  O   UNL     1      50.118   6.788  15.155  0.00  0.00    +0.000 OA
ATOM     19  C   UNL     1      48.996   6.793  15.653  0.00  0.00    +0.000 C 
ATOM     20  N   UNL     1      47.857   6.733  14.891  0.00  0.00    +0.000 N 
ATOM     21  H   UNL     1      46.957   6.895  15.331  0.00  0.00    +0.000 HD
BRANCH  19  22
ATOM     22  C   UNL     1      48.807   6.806  17.110  0.00  0.00    +0.000 A 
ATOM     23  C   UNL     1      48.511   7.999  17.753  0.00  0.00    +0.000 A 
ATOM     24  S   UNL     1      48.322   7.840  19.439  0.00  0.00    +0.000 S 
ATOM     25  C   UNL     1      48.585   6.160  19.365  0.00  0.00    +0.000 A 
ATOM     26  N   UNL     1      48.519   5.391  20.485  0.00  0.00    +0.000 NA
ATOM     27  C   UNL     1      48.696   4.130  20.278  0.00  0.00    +0.000 A 
ATOM     28  N   UNL     1      48.949   3.570  19.053  0.00  0.00    +0.000 N 
ATOM     29  C   UNL     1      49.112   4.313  17.910  0.00  0.00    +0.000 A 
ATOM     30  O   UNL     1      49.489   3.802  16.861  0.00  0.00    +0.000 OA
ATOM     31  C   UNL     1      48.856   5.734  18.076  0.00  0.00    +0.000 A 
ATOM     32  H   UNL     1      49.113   2.576  18.965  0.00  0.00    +0.000 HD
ENDBRANCH  19  22
ENDBRANCH   1  20
TORSDOF 7
ENDMDL
MODEL 3
REMARK VINA RESULT:    -7.418      3.250      5.087
REMARK INTER + INTRA:         -10.936
REMARK INTER:                  -9.920
REMARK INTRA:                  -1.016
REMARK UNBOUND:                -0.700
REMARK  Name = 
REMARK  7 active torsions:
REMARK  status: ('A' for Active; 'I' for Inactive)
REMARK    1  A    between atoms: C_2  and  C_19
REMARK    2  A    between atoms: N_3  and  C_4
REMARK    3  A    between atoms: C_4  and  C_5
REMARK    4  A    between atoms: C_8  and  C_9
REMARK    5  A    between atoms: C_9  and  O_10
REMARK    6  A    between atoms: C_9  and  C_11
REMARK    7  A    between atoms: C_11  and  N_12
REMARK                            x       y       z     vdW  Elec       q    Type
REMARK                         _______ _______ _______ _____ _____    ______ ____
ROOT
ATOM      1  C   UNL     1      49.028   6.085  17.526  0.00  0.00    +0.000 C 
ENDROOT
BRANCH   1   2
ATOM      2  C   UNL     1      48.261   5.636  16.316  0.00  0.00    +0.000 A 
ATOM      3  C   UNL     1      48.300   6.362  15.125  0.00  0.00    +0.000 A 
ATOM      4  C   UNL     1      47.599   5.907  14.012  0.00  0.00    +0.000 A 
ATOM      5  C   UNL     1      46.863   4.728  14.114  0.00  0.00    +0.000 A 
ATOM      6  N   UNL     1      46.811   3.998  15.260  0.00  0.00    +0.000 NA
ATOM      7  C   UNL     1      47.483   4.483  16.331  0.00  0.00    +0.000 A 
BRANCH   5   8
ATOM      8  C   UNL     1      46.134   4.177  12.903  0.00  0.00    +0.000 C 
BRANCH   8   9
ATOM      9  O   UNL     1      45.995   2.752  13.053  0.00  0.00    +0.000 OA
ATOM     10  H   UNL     1      46.437   2.378  12.264  0.00  0.00    +0.000 HD
ENDBRANCH   8   9
BRANCH   8  11
ATOM     11  C   UNL     1      44.714   4.768  12.735  0.00  0.00    +0.000 C 
BRANCH  11  12
ATOM     12  N   UNL     1      44.026   4.466  11.473  0.00  0.00    +0.000 NA
ATOM     13  C   UNL     1      44.922   4.448  10.315  0.00  0.00    +0.000 C 
ATOM     14  C   UNL     1      44.378   3.316   9.465  0.00  0.00    +0.000 C 
ATOM     15  N   UNL     1      43.940   2.344  10.469  0.00  0.00    +0.000 NA
ATOM     16  C   UNL     1      43.348   3.174  11.514  0.00  0.00    +0.000 C 
ATOM     17  H   UNL     1      44.767   1.910  10.874  0.00  0.00    +0.000 HD
ENDBRANCH  11  12
ENDBRANCH   8  11
ENDBRANCH   5   8
ENDBRANCH   1   2
BRANCH   1  20
ATOM     18  O   UNL     1      51.666   6.180  16.563  0.00  0.00    +0.000 OA
ATOM     19  C   UNL     1      51.361   5.301  17.364  0.00  0.00    +0.000 C 
ATOM     20  N   UNL     1      50.089   5.170  17.858  0.00  0.00    +0.000 N 
ATOM     21  H   UNL     1      49.919   4.532  18.628  0.00  0.00    +0.000 HD
BRANCH  19  22
ATOM     22  C   UNL     1      52.338   4.294  17.800  0.00  0.00    +0.000 A 
ATOM     23  C   UNL     1      53.554   4.701  18.329  0.00  0.00    +0.000 A 
ATOM     24  S   UNL     1      54.569   3.410  18.787  0.00  0.00    +0.000 S 
ATOM     25  C   UNL     1      53.400   2.260  18.334  0.00  0.00    +0.000 A 
ATOM     26  N   UNL     1      53.624   0.929  18.507  0.00  0.00    +0.000 NA
ATOM     27  C   UNL     1      52.637   0.172  18.162  0.00  0.00    +0.000 A 
ATOM     28  N   UNL     1      51.453   0.625  17.643  0.00  0.00    +0.000 N 
ATOM     29  C   UNL     1      51.214   1.949  17.368  0.00  0.00    +0.000 A 
ATOM     30  O   UNL     1      50.209   2.307  16.764  0.00  0.00    +0.000 OA
ATOM     31  C   UNL     1      52.268   2.852  17.801  0.00  0.00    +0.000 A 
ATOM     32  H   UNL     1      50.733  -0.025  17.359  0.00  0.00    +0.000 HD
ENDBRANCH  19  22
ENDBRANCH   1  20
TORSDOF 7
ENDMDL
MODEL 4
REMARK VINA RESULT:    -7.415      2.956      3.794
REMARK INTER + INTRA:         -10.932
REMARK INTER:                  -9.954
REMARK INTRA:                  -0.978
REMARK UNBOUND:                -0.700
REMARK  Name = 
REMARK  7 active torsions:
REMARK  status: ('A' for Active; 'I' for Inactive)
REMARK    1  A    between atoms: C_2  and  C_19
REMARK    2  A    between atoms: N_3  and  C_4
REMARK    3  A    between atoms: C_4  and  C_5
REMARK    4  A    between atoms: C_8  and  C_9
REMARK    5  A    between atoms: C_9  and  O_10
REMARK    6  A    between atoms: C_9  and  C_11
REMARK    7  A    between atoms: C_11  and  N_12
REMARK                            x       y       z     vdW  Elec       q    Type
REMARK                         _______ _______ _______ _____ _____    ______ ____
ROOT
ATOM      1  C   UNL     1      48.371   6.728  14.390  0.00  0.00    +0.000 C 
ENDROOT
BRANCH   1   2
ATOM      2  C   UNL     1      47.406   5.836  13.664  0.00  0.00    +0.000 A 
ATOM      3  C   UNL     1      46.764   6.262  12.501  0.00  0.00    +0.000 A 
ATOM      4  C   UNL     1      45.894   5.404  11.836  0.00  0.00    +0.000 A 
ATOM      5  C   UNL     1      45.678   4.128  12.352  0.00  0.00    +0.000 A 
ATOM      6  N   UNL     1      46.294   3.685  13.481  0.00  0.00    +0.000 NA
ATOM      7  C   UNL     1      47.114   4.555  14.118  0.00  0.00    +0.000 A 
BRANCH   5   8
ATOM      8  C   UNL     1      44.779   3.150  11.620  0.00  0.00    +0.000 C 
BRANCH   8   9
ATOM      9  O   UNL     1      43.860   2.568  12.563  0.00  0.00    +0.000 OA
ATOM     10  H   UNL     1      43.841   1.617  12.332  0.00  0.00    +0.000 HD
ENDBRANCH   8   9
BRANCH   8  11
ATOM     11  C   UNL     1      43.941   3.821  10.506  0.00  0.00    +0.000 C 
BRANCH  11  12
ATOM     12  N   UNL     1      44.216   3.383   9.130  0.00  0.00    +0.000 NA
ATOM     13  C   UNL     1      45.233   4.192   8.457  0.00  0.00    +0.000 C 
ATOM     14  C   UNL     1      46.001   3.179   7.632  0.00  0.00    +0.000 C 
ATOM     15  N   UNL     1      46.002   1.997   8.496  0.00  0.00    +0.000 NA
ATOM     16  C   UNL     1      44.663   1.995   9.076  0.00  0.00    +0.000 C 
ATOM     17  H   UNL     1      46.652   2.165   9.263  0.00  0.00    +0.000 HD
ENDBRANCH  11  12
ENDBRANCH   8  11
ENDBRANCH   5   8
ENDBRANCH   1   2
BRANCH   1  20
ATOM     18  O   UNL     1      49.969   5.695  16.458  0.00  0.00    +0.000 OA
ATOM     19  C   UNL     1      48.933   6.285  16.751  0.00  0.00    +0.000 C 
ATOM     20  N   UNL     1      48.086   6.792  15.799  0.00  0.00    +0.000 N 
ATOM     21  H   UNL     1      47.326   7.401  16.086  0.00  0.00    +0.000 HD
BRANCH  19  22
ATOM     22  C   UNL     1      48.507   6.432  18.149  0.00  0.00    +0.000 A 
ATOM     23  C   UNL     1      48.591   5.346  19.009  0.00  0.00    +0.000 A 
ATOM     24  S   UNL     1      48.061   5.685  20.594  0.00  0.00    +0.000 S 
ATOM     25  C   UNL     1      47.742   7.309  20.198  0.00  0.00    +0.000 A 
ATOM     26  N   UNL     1      47.292   8.183  21.138  0.00  0.00    +0.000 NA
ATOM     27  C   UNL     1      47.134   9.391  20.712  0.00  0.00    +0.000 A 
ATOM     28  N   UNL     1      47.369   9.800  19.425  0.00  0.00    +0.000 N 
ATOM     29  C   UNL     1      47.739   8.938  18.422  0.00  0.00    +0.000 A 
ATOM     30  O   UNL     1      47.793   9.302  17.252  0.00  0.00    +0.000 OA
ATOM     31  C   UNL     1      47.996   7.577  18.864  0.00  0.00    +0.000 A 
ATOM     32  H   UNL     1      47.191  10.755  19.148  0.00  0.00    +0.000 HD
ENDBRANCH  19  22
ENDBRANCH   1  20
TORSDOF 7
ENDMDL
MODEL 5
REMARK VINA RESULT:    -7.221      3.465      8.027
REMARK INTER + INTRA:         -10.664
REMARK INTER:                  -9.797
REMARK INTRA:                  -0.867
REMARK UNBOUND:                -0.700
REMARK  Name = 
REMARK  7 active torsions:
REMARK  status: ('A' for Active; 'I' for Inactive)
REMARK    1  A    between atoms: C_2  and  C_19
REMARK    2  A    between atoms: N_3  and  C_4
REMARK    3  A    between atoms: C_4  and  C_5
REMARK    4  A    between atoms: C_8  and  C_9
REMARK    5  A    between atoms: C_9  and  O_10
REMARK    6  A    between atoms: C_9  and  C_11
REMARK    7  A    between atoms: C_11  and  N_12
REMARK                            x       y       z     vdW  Elec       q    Type
REMARK                         _______ _______ _______ _____ _____    ______ ____
ROOT
ATOM      1  C   UNL     1      48.325   7.706  12.660  0.00  0.00    +0.000 C 
ENDROOT
BRANCH   1   2
ATOM      2  C   UNL     1      48.903   7.208  13.953  0.00  0.00    +0.000 A 
ATOM      3  C   UNL     1      50.117   7.695  14.437  0.00  0.00    +0.000 A 
ATOM      4  C   UNL     1      50.615   7.234  15.651  0.00  0.00    +0.000 A 
ATOM      5  C   UNL     1      49.885   6.283  16.362  0.00  0.00    +0.000 A 
ATOM      6  N   UNL     1      48.697   5.794  15.917  0.00  0.00    +0.000 NA
ATOM      7  C   UNL     1      48.254   6.246  14.719  0.00  0.00    +0.000 A 
BRANCH   5   8
ATOM      8  C   UNL     1      50.373   5.801  17.716  0.00  0.00    +0.000 C 
BRANCH   8   9
ATOM      9  O   UNL     1      49.704   6.552  18.745  0.00  0.00    +0.000 OA
ATOM     10  H   UNL     1      49.361   5.872  19.361  0.00  0.00    +0.000 HD
ENDBRANCH   8   9
BRANCH   8  11
ATOM     11  C   UNL     1      50.077   4.303  17.963  0.00  0.00    +0.000 C 
BRANCH  11  12
ATOM     12  N   UNL     1      50.917   3.343  17.235  0.00  0.00    +0.000 NA
ATOM     13  C   UNL     1      52.193   3.069  17.899  0.00  0.00    +0.000 C 
ATOM     14  C   UNL     1      52.413   1.591  17.645  0.00  0.00    +0.000 C 
ATOM     15  N   UNL     1      51.054   1.048  17.716  0.00  0.00    +0.000 NA
ATOM     16  C   UNL     1      50.246   2.061  17.045  0.00  0.00    +0.000 C 
ATOM     17  H   UNL     1      50.765   1.042  18.692  0.00  0.00    +0.000 HD
ENDBRANCH  11  12
ENDBRANCH   8  11
ENDBRANCH   5   8
ENDBRANCH   1   2
BRANCH   1  20
ATOM     18  O   UNL     1      45.655   7.898  11.805  0.00  0.00    +0.000 OA
ATOM     19  C   UNL     1      46.277   6.866  11.571  0.00  0.00    +0.000 C 
ATOM     20  N   UNL     1      47.573   6.684  11.980  0.00  0.00    +0.000 N 
ATOM     21  H   UNL     1      48.094   5.885  11.635  0.00  0.00    +0.000 HD
BRANCH  19  22
ATOM     22  C   UNL     1      45.644   5.733  10.883  0.00  0.00    +0.000 A 
ATOM     23  C   UNL     1      45.854   5.551   9.524  0.00  0.00    +0.000 A 
ATOM     24  S   UNL     1      45.050   4.191   8.883  0.00  0.00    +0.000 S 
ATOM     25  C   UNL     1      44.428   3.770  10.410  0.00  0.00    +0.000 A 
ATOM     26  N   UNL     1      43.668   2.654  10.572  0.00  0.00    +0.000 NA
ATOM     27  C   UNL     1      43.299   2.432  11.789  0.00  0.00    +0.000 A 
ATOM     28  N   UNL     1      43.608   3.235  12.856  0.00  0.00    +0.000 N 
ATOM     29  C   UNL     1      44.296   4.417  12.727  0.00  0.00    +0.000 A 
ATOM     30  O   UNL     1      44.425   5.189  13.671  0.00  0.00    +0.000 OA
ATOM     31  C   UNL     1      44.794   4.680  11.387  0.00  0.00    +0.000 A 
ATOM     32  H   UNL     1      43.257   3.023  13.779  0.00  0.00    +0.000 HD
ENDBRANCH  19  22
ENDBRANCH   1  20
TORSDOF 7
ENDMDL
MODEL 6
REMARK VINA RESULT:    -7.061      4.469      8.720
REMARK INTER + INTRA:         -10.444
REMARK INTER:                  -9.724
REMARK INTRA:                  -0.720
REMARK UNBOUND:                -0.700
REMARK  Name = 
REMARK  7 active torsions:
REMARK  status: ('A' for Active; 'I' for Inactive)
REMARK    1  A    between atoms: C_2  and  C_19
REMARK    2  A    between atoms: N_3  and  C_4
REMARK    3  A    between atoms: C_4  and  C_5
REMARK    4  A    between atoms: C_8  and  C_9
REMARK    5  A    between atoms: C_9  and  O_10
REMARK    6  A    between atoms: C_9  and  C_11
REMARK    7  A    between atoms: C_11  and  N_12
REMARK                            x       y       z     vdW  Elec       q    Type
REMARK                         _______ _______ _______ _____ _____    ______ ____
ROOT
ATOM      1  C   UNL     1      47.211   3.703  16.866  0.00  0.00    +0.000 C 
ENDROOT
BRANCH   1   2
ATOM      2  C   UNL     1      48.642   3.325  17.119  0.00  0.00    +0.000 A 
ATOM      3  C   UNL     1      49.489   4.153  17.856  0.00  0.00    +0.000 A 
ATOM      4  C   UNL     1      50.803   3.764  18.096  0.00  0.00    +0.000 A 
ATOM      5  C   UNL     1      51.250   2.547  17.586  0.00  0.00    +0.000 A 
ATOM      6  N   UNL     1      50.445   1.717  16.868  0.00  0.00    +0.000 NA
ATOM      7  C   UNL     1      49.180   2.139  16.631  0.00  0.00    +0.000 A 
BRANCH   5   8
ATOM      8  C   UNL     1      52.660   2.069  17.877  0.00  0.00    +0.000 C 
BRANCH   8   9
ATOM      9  O   UNL     1      53.069   2.579  19.159  0.00  0.00    +0.000 OA
ATOM     10  H   UNL     1      53.365   3.494  18.976  0.00  0.00    +0.000 HD
ENDBRANCH   8   9
BRANCH   8  11
ATOM     11  C   UNL     1      52.773   0.526  17.931  0.00  0.00    +0.000 C 
BRANCH  11  12
ATOM     12  N   UNL     1      54.107  -0.039  17.686  0.00  0.00    +0.000 NA
ATOM     13  C   UNL     1      54.261  -1.402  18.196  0.00  0.00    +0.000 C 
ATOM     14  C   UNL     1      55.125  -2.076  17.148  0.00  0.00    +0.000 C 
ATOM     15  N   UNL     1      54.650  -1.468  15.903  0.00  0.00    +0.000 NA
ATOM     16  C   UNL     1      54.436  -0.070  16.265  0.00  0.00    +0.000 C 
ATOM     17  H   UNL     1      53.734  -1.857  15.688  0.00  0.00    +0.000 HD
ENDBRANCH  11  12
ENDBRANCH   8  11
ENDBRANCH   5   8
ENDBRANCH   1   2
BRANCH   1  20
ATOM     18  O   UNL     1      47.156   3.301  14.085  0.00  0.00    +0.000 OA
ATOM     19  C   UNL     1      47.050   4.445  14.519  0.00  0.00    +0.000 C 
ATOM     20  N   UNL     1      47.096   4.726  15.861  0.00  0.00    +0.000 N 
ATOM     21  H   UNL     1      46.852   5.658  16.180  0.00  0.00    +0.000 HD
BRANCH  19  22
ATOM     22  C   UNL     1      46.925   5.596  13.614  0.00  0.00    +0.000 A 
ATOM     23  C   UNL     1      48.050   6.341  13.293  0.00  0.00    +0.000 A 
ATOM     24  S   UNL     1      47.733   7.637  12.232  0.00  0.00    +0.000 S 
ATOM     25  C   UNL     1      46.086   7.221  12.130  0.00  0.00    +0.000 A 
ATOM     26  N   UNL     1      45.235   7.923  11.333  0.00  0.00    +0.000 NA
ATOM     27  C   UNL     1      44.026   7.473  11.317  0.00  0.00    +0.000 A 
ATOM     28  N   UNL     1      43.586   6.395  12.039  0.00  0.00    +0.000 N 
ATOM     29  C   UNL     1      44.384   5.710  12.922  0.00  0.00    +0.000 A 
ATOM     30  O   UNL     1      43.926   4.850  13.666  0.00  0.00    +0.000 OA
ATOM     31  C   UNL     1      45.775   6.134  12.928  0.00  0.00    +0.000 A 
ATOM     32  H   UNL     1      42.615   6.115  12.008  0.00  0.00    +0.000 HD
ENDBRANCH  19  22
ENDBRANCH   1  20
TORSDOF 7
ENDMDL
MODEL 7
REMARK VINA RESULT:    -7.005      2.352      3.865
REMARK INTER + INTRA:         -10.366
REMARK INTER:                  -9.324
REMARK INTRA:                  -1.043
REMARK UNBOUND:                -0.700
REMARK  Name = 
REMARK  7 active torsions:
REMARK  status: ('A' for Active; 'I' for Inactive)
REMARK    1  A    between atoms: C_2  and  C_19
REMARK    2  A    between atoms: N_3  and  C_4
REMARK    3  A    between atoms: C_4  and  C_5
REMARK    4  A    between atoms: C_8  and  C_9
REMARK    5  A    between atoms: C_9  and  O_10
REMARK    6  A    between atoms: C_9  and  C_11
REMARK    7  A    between atoms: C_11  and  N_12
REMARK                            x       y       z     vdW  Elec       q    Type
REMARK                         _______ _______ _______ _____ _____    ______ ____
ROOT
ATOM      1  C   UNL     1      47.222   4.681  14.981  0.00  0.00    +0.000 C 
ENDROOT
BRANCH   1   2
ATOM      2  C   UNL     1      46.464   4.614  13.687  0.00  0.00    +0.000 A 
ATOM      3  C   UNL     1      46.234   5.759  12.924  0.00  0.00    +0.000 A 
ATOM      4  C   UNL     1      45.550   5.661  11.716  0.00  0.00    +0.000 A 
ATOM      5  C   UNL     1      45.101   4.412  11.294  0.00  0.00    +0.000 A 
ATOM      6  N   UNL     1      45.313   3.279  12.016  0.00  0.00    +0.000 NA
ATOM      7  C   UNL     1      45.959   3.414  13.199  0.00  0.00    +0.000 A 
BRANCH   5   8
ATOM      8  C   UNL     1      44.400   4.264   9.956  0.00  0.00    +0.000 C 
BRANCH   8   9
ATOM      9  O   UNL     1      43.376   5.270   9.854  0.00  0.00    +0.000 OA
ATOM     10  H   UNL     1      43.673   5.985  10.454  0.00  0.00    +0.000 HD
ENDBRANCH   8   9
BRANCH   8  11
ATOM     11  C   UNL     1      45.356   4.448   8.754  0.00  0.00    +0.000 C 
BRANCH  11  12
ATOM     12  N   UNL     1      45.454   3.317   7.820  0.00  0.00    +0.000 NA
ATOM     13  C   UNL     1      46.778   3.184   7.209  0.00  0.00    +0.000 C 
ATOM     14  C   UNL     1      46.981   1.684   7.130  0.00  0.00    +0.000 C 
ATOM     15  N   UNL     1      46.339   1.209   8.357  0.00  0.00    +0.000 NA
ATOM     16  C   UNL     1      45.148   2.045   8.466  0.00  0.00    +0.000 C 
ATOM     17  H   UNL     1      46.938   1.451   9.144  0.00  0.00    +0.000 HD
ENDBRANCH  11  12
ENDBRANCH   8  11
ENDBRANCH   5   8
ENDBRANCH   1   2
BRANCH   1  20
ATOM     18  O   UNL     1      49.416   5.233  16.648  0.00  0.00    +0.000 OA
ATOM     19  C   UNL     1      48.933   6.147  15.986  0.00  0.00    +0.000 C 
ATOM     20  N   UNL     1      47.845   5.964  15.172  0.00  0.00    +0.000 N 
ATOM     21  H   UNL     1      47.577   6.703  14.530  0.00  0.00    +0.000 HD
BRANCH  19  22
ATOM     22  C   UNL     1      49.462   7.514  16.073  0.00  0.00    +0.000 A 
ATOM     23  C   UNL     1      49.571   8.130  17.311  0.00  0.00    +0.000 A 
ATOM     24  S   UNL     1      50.204   9.712  17.236  0.00  0.00    +0.000 S 
ATOM     25  C   UNL     1      50.397   9.613  15.549  0.00  0.00    +0.000 A 
ATOM     26  N   UNL     1      50.942  10.642  14.846  0.00  0.00    +0.000 NA
ATOM     27  C   UNL     1      51.070  10.416  13.581  0.00  0.00    +0.000 A 
ATOM     28  N   UNL     1      50.686   9.260  12.954  0.00  0.00    +0.000 N 
ATOM     29  C   UNL     1      50.052   8.230  13.606  0.00  0.00    +0.000 A 
ATOM     30  O   UNL     1      49.583   7.277  12.994  0.00  0.00    +0.000 OA
ATOM     31  C   UNL     1      49.945   8.406  15.045  0.00  0.00    +0.000 A 
ATOM     32  H   UNL     1      50.781   9.161  11.953  0.00  0.00    +0.000 HD
ENDBRANCH  19  22
ENDBRANCH   1  20
TORSDOF 7
ENDMDL
MODEL 8
REMARK VINA RESULT:    -6.644      4.023      8.948
REMARK INTER + INTRA:          -9.868
REMARK INTER:                  -8.780
REMARK INTRA:                  -1.088
REMARK UNBOUND:                -0.700
REMARK  Name = 
REMARK  7 active torsions:
REMARK  status: ('A' for Active; 'I' for Inactive)
REMARK    1  A    between atoms: C_2  and  C_19
REMARK    2  A    between atoms: N_3  and  C_4
REMARK    3  A    between atoms: C_4  and  C_5
REMARK    4  A    between atoms: C_8  and  C_9
REMARK    5  A    between atoms: C_9  and  O_10
REMARK    6  A    between atoms: C_9  and  C_11
REMARK    7  A    between atoms: C_11  and  N_12
REMARK                            x       y       z     vdW  Elec       q    Type
REMARK                         _______ _______ _______ _____ _____    ______ ____
ROOT
ATOM      1  C   UNL     1      47.164   3.346  16.873  0.00  0.00    +0.000 C 
ENDROOT
BRANCH   1   2
ATOM      2  C   UNL     1      48.573   3.555  17.347  0.00  0.00    +0.000 A 
ATOM      3  C   UNL     1      48.955   4.739  17.978  0.00  0.00    +0.000 A 
ATOM      4  C   UNL     1      50.261   4.894  18.430  0.00  0.00    +0.000 A 
ATOM      5  C   UNL     1      51.170   3.855  18.236  0.00  0.00    +0.000 A 
ATOM      6  N   UNL     1      50.824   2.688  17.629  0.00  0.00    +0.000 NA
ATOM      7  C   UNL     1      49.551   2.582  17.178  0.00  0.00    +0.000 A 
BRANCH   5   8
ATOM      8  C   UNL     1      52.587   3.971  18.767  0.00  0.00    +0.000 C 
BRANCH   8   9
ATOM      9  O   UNL     1      52.945   2.733  19.409  0.00  0.00    +0.000 OA
ATOM     10  H   UNL     1      52.277   2.621  20.116  0.00  0.00    +0.000 HD
ENDBRANCH   8   9
BRANCH   8  11
ATOM     11  C   UNL     1      53.626   4.236  17.652  0.00  0.00    +0.000 C 
BRANCH  11  12
ATOM     12  N   UNL     1      53.996   5.640  17.426  0.00  0.00    +0.000 NA
ATOM     13  C   UNL     1      53.204   6.286  16.378  0.00  0.00    +0.000 C 
ATOM     14  C   UNL     1      53.010   7.696  16.901  0.00  0.00    +0.000 C 
ATOM     15  N   UNL     1      52.872   7.486  18.344  0.00  0.00    +0.000 NA
ATOM     16  C   UNL     1      53.853   6.445  18.634  0.00  0.00    +0.000 C 
ATOM     17  H   UNL     1      51.955   7.080  18.520  0.00  0.00    +0.000 HD
ENDBRANCH  11  12
ENDBRANCH   8  11
ENDBRANCH   5   8
ENDBRANCH   1   2
BRANCH   1  20
ATOM     18  O   UNL     1      47.360   3.096  14.081  0.00  0.00    +0.000 OA
ATOM     19  C   UNL     1      46.877   4.123  14.549  0.00  0.00    +0.000 C 
ATOM     20  N   UNL     1      46.774   4.333  15.900  0.00  0.00    +0.000 N 
ATOM     21  H   UNL     1      46.233   5.122  16.240  0.00  0.00    +0.000 HD
BRANCH  19  22
ATOM     22  C   UNL     1      46.432   5.222  13.681  0.00  0.00    +0.000 A 
ATOM     23  C   UNL     1      47.283   6.290  13.436  0.00  0.00    +0.000 A 
ATOM     24  S   UNL     1      46.615   7.476  12.409  0.00  0.00    +0.000 S 
ATOM     25  C   UNL     1      45.180   6.582  12.220  0.00  0.00    +0.000 A 
ATOM     26  N   UNL     1      44.180   7.027  11.413  0.00  0.00    +0.000 NA
ATOM     27  C   UNL     1      43.168   6.230  11.328  0.00  0.00    +0.000 A 
ATOM     28  N   UNL     1      43.059   5.036  11.991  0.00  0.00    +0.000 N 
ATOM     29  C   UNL     1      44.002   4.587  12.884  0.00  0.00    +0.000 A 
ATOM     30  O   UNL     1      43.808   3.593  13.575  0.00  0.00    +0.000 OA
ATOM     31  C   UNL     1      45.194   5.415  12.965  0.00  0.00    +0.000 A 
ATOM     32  H   UNL     1      42.223   4.474  11.908  0.00  0.00    +0.000 HD
ENDBRANCH  19  22
ENDBRANCH   1  20
TORSDOF 7
ENDMDL
