MODEL 1
REMARK VINA RESULT:    -8.233      0.000      0.000
REMARK INTER + INTRA:         -12.792
REMARK INTER:                 -11.602
REMARK INTRA:                  -1.189
REMARK UNBOUND:                -1.189
REMARK  Name = 
REMARK  8 active torsions:
REMARK  status: ('A' for Active; 'I' for Inactive)
REMARK    1  A    between atoms: C_1  and  C_2
REMARK    2  A    between atoms: C_2  and  N_3
REMARK    3  A    between atoms: N_3  and  C_4
REMARK    4  A    between atoms: N_3  and  C_25
REMARK    5  A    between atoms: C_4  and  C_5
REMARK    6  A    between atoms: C_8  and  C_9
REMARK    7  A    between atoms: C_9  and  N_10
REMARK    8  A    between atoms: C_11  and  C_13
REMARK                            x       y       z     vdW  Elec       q    Type
REMARK                         _______ _______ _______ _____ _____    ______ ____
ROOT
ATOM      1  C   UNL     1      46.128   4.664  12.797  0.00  0.00    +0.000 A 
ATOM      2  C   UNL     1      46.461   5.962  12.393  0.00  0.00    +0.000 A 
ATOM      3  C   UNL     1      47.330   6.724  13.169  0.00  0.00    +0.000 A 
ATOM      4  C   UNL     1      47.845   6.171  14.337  0.00  0.00    +0.000 A 
ATOM      5  N   UNL     1      47.613   4.883  14.696  0.00  0.00    +0.000 NA
ATOM      6  C   UNL     1      46.769   4.164  13.921  0.00  0.00    +0.000 A 
ENDROOT
BRANCH   1   7
ATOM      7  C   UNL     1      44.967   3.928  12.184  0.00  0.00    +0.000 C 
BRANCH   7   8
ATOM      8  N   UNL     1      44.444   4.340  10.875  0.00  0.00    +0.000 N 
BRANCH   8   9
ATOM      9  C   UNL     1      45.050   3.780   9.739  0.00  0.00    +0.000 A 
ATOM     10  C   UNL     1      45.644   4.564   8.733  0.00  0.00    +0.000 A 
ATOM     11  C   UNL     1      46.297   4.002   7.625  0.00  0.00    +0.000 A 
ATOM     12  C   UNL     1      46.367   2.626   7.477  0.00  0.00    +0.000 A 
ATOM     13  C   UNL     1      45.771   1.815   8.430  0.00  0.00    +0.000 A 
ATOM     14  C   UNL     1      45.126   2.385   9.533  0.00  0.00    +0.000 A 
ENDBRANCH   8   9
BRANCH   8  16
ATOM     15  C   UNL     1      42.555   5.346  12.117  0.00  0.00    +0.000 C 
ATOM     16  C   UNL     1      43.214   5.131  10.757  0.00  0.00    +0.000 C 
ENDBRANCH   8  16
ENDBRANCH   7   8
ENDBRANCH   1   7
BRANCH   4  17
ATOM     17  C   UNL     1      48.640   7.024  15.298  0.00  0.00    +0.000 C 
BRANCH  17  18
ATOM     18  N   UNL     1      49.726   6.308  15.915  0.00  0.00    +0.000 N 
ATOM     19  C   UNL     1      49.637   5.791  17.179  0.00  0.00    +0.000 C 
ATOM     20  O   UNL     1      48.627   5.920  17.866  0.00  0.00    +0.000 OA
ATOM     21  H   UNL     1      50.630   6.388  15.456  0.00  0.00    +0.000 HD
BRANCH  19  22
ATOM     22  C   UNL     1      50.787   5.010  17.647  0.00  0.00    +0.000 A 
ATOM     23  C   UNL     1      51.854   5.659  18.254  0.00  0.00    +0.000 A 
ATOM     24  S   UNL     1      53.102   4.608  18.750  0.00  0.00    +0.000 S 
ATOM     25  C   UNL     1      52.276   3.254  18.133  0.00  0.00    +0.000 A 
ATOM     26  N   UNL     1      52.828   2.010  18.194  0.00  0.00    +0.000 NA
ATOM     27  C   UNL     1      52.109   1.084  17.659  0.00  0.00    +0.000 A 
ATOM     28  N   UNL     1      50.882   1.277  17.079  0.00  0.00    +0.000 N 
ATOM     29  C   UNL     1      50.258   2.504  17.051  0.00  0.00    +0.000 A 
ATOM     30  O   UNL     1      49.116   2.626  16.628  0.00  0.00    +0.000 OA
ATOM     31  C   UNL     1      51.050   3.594  17.593  0.00  0.00    +0.000 A 
ATOM     32  H   UNL     1      50.355   0.505  16.706  0.00  0.00    +0.000 HD
ENDBRANCH  19  22
ENDBRANCH  17  18
ENDBRANCH   4  17
TORSDOF 7
ENDMDL
MODEL 2
REMARK VINA RESULT:    -7.771      2.212      2.621
REMARK INTER + INTRA:         -12.140
REMARK INTER:                 -10.770
REMARK INTRA:                  -1.370
REMARK UNBOUND:                -1.189
REMARK  Name = 
REMARK  8 active torsions:
REMARK  status: ('A' for Active; 'I' for Inactive)
REMARK    1  A    between atoms: C_1  and  C_2
REMARK    2  A    between atoms: C_2  and  N_3
REMARK    3  A    between atoms: N_3  and  C_4
REMARK    4  A    between atoms: N_3  and  C_25
REMARK    5  A    between atoms: C_4  and  C_5
REMARK    6  A    between atoms: C_8  and  C_9
REMARK    7  A    between atoms: C_9  and  N_10
REMARK    8  A    between atoms: C_11  and  C_13
REMARK                            x       y       z     vdW  Elec       q    Type
REMARK                         _______ _______ _______ _____ _____    ______ ____
ROOT
ATOM      1  C   UNL     1      45.264   6.885  11.320  0.00  0.00    +0.000 A 
ATOM      2  C   UNL     1      44.891   8.050  11.999  0.00  0.00    +0.000 A 
ATOM      3  C   UNL     1      45.788   8.654  12.877  0.00  0.00    +0.000 A 
ATOM      4  C   UNL     1      47.040   8.075  13.060  0.00  0.00    +0.000 A 
ATOM      5  N   UNL     1      47.457   7.003  12.340  0.00  0.00    +0.000 NA
ATOM      6  C   UNL     1      46.568   6.440  11.491  0.00  0.00    +0.000 A 
ENDROOT
BRANCH   1   7
ATOM      7  C   UNL     1      44.245   6.027  10.622  0.00  0.00    +0.000 C 
BRANCH   7   8
ATOM      8  N   UNL     1      44.300   4.565  10.754  0.00  0.00    +0.000 N 
BRANCH   8   9
ATOM      9  C   UNL     1      44.904   3.850   9.707  0.00  0.00    +0.000 A 
ATOM     10  C   UNL     1      45.521   4.486   8.614  0.00  0.00    +0.000 A 
ATOM     11  C   UNL     1      46.171   3.772   7.596  0.00  0.00    +0.000 A 
ATOM     12  C   UNL     1      46.216   2.387   7.629  0.00  0.00    +0.000 A 
ATOM     13  C   UNL     1      45.597   1.719   8.673  0.00  0.00    +0.000 A 
ATOM     14  C   UNL     1      44.954   2.439   9.686  0.00  0.00    +0.000 A 
ENDBRANCH   8   9
BRANCH   8  16
ATOM     15  C   UNL     1      43.029   4.774  12.867  0.00  0.00    +0.000 C 
ATOM     16  C   UNL     1      43.936   3.897  12.008  0.00  0.00    +0.000 C 
ENDBRANCH   8  16
ENDBRANCH   7   8
ENDBRANCH   1   7
BRANCH   4  17
ATOM     17  C   UNL     1      47.967   8.589  14.136  0.00  0.00    +0.000 C 
BRANCH  17  18
ATOM     18  N   UNL     1      48.162   7.645  15.206  0.00  0.00    +0.000 N 
ATOM     19  C   UNL     1      49.345   6.983  15.391  0.00  0.00    +0.000 C 
ATOM     20  O   UNL     1      50.307   7.148  14.645  0.00  0.00    +0.000 OA
ATOM     21  H   UNL     1      47.320   7.335  15.683  0.00  0.00    +0.000 HD
BRANCH  19  22
ATOM     22  C   UNL     1      49.431   6.118  16.572  0.00  0.00    +0.000 A 
ATOM     23  C   UNL     1      50.388   6.379  17.544  0.00  0.00    +0.000 A 
ATOM     24  S   UNL     1      50.346   5.290  18.855  0.00  0.00    +0.000 S 
ATOM     25  C   UNL     1      49.074   4.408  18.148  0.00  0.00    +0.000 A 
ATOM     26  N   UNL     1      48.577   3.292  18.751  0.00  0.00    +0.000 NA
ATOM     27  C   UNL     1      47.640   2.705  18.089  0.00  0.00    +0.000 A 
ATOM     28  N   UNL     1      47.139   3.132  16.887  0.00  0.00    +0.000 N 
ATOM     29  C   UNL     1      47.567   4.288  16.272  0.00  0.00    +0.000 A 
ATOM     30  O   UNL     1      47.025   4.705  15.258  0.00  0.00    +0.000 OA
ATOM     31  C   UNL     1      48.661   4.959  16.950  0.00  0.00    +0.000 A 
ATOM     32  H   UNL     1      46.384   2.645  16.435  0.00  0.00    +0.000 HD
ENDBRANCH  19  22
ENDBRANCH  17  18
ENDBRANCH   4  17
TORSDOF 7
ENDMDL
MODEL 3
REMARK VINA RESULT:    -7.390      2.557      2.936
REMARK INTER + INTRA:         -11.603
REMARK INTER:                 -10.653
REMARK INTRA:                  -0.950
REMARK UNBOUND:                -1.189
REMARK  Name = 
REMARK  8 active torsions:
REMARK  status: ('A' for Active; 'I' for Inactive)
REMARK    1  A    between atoms: C_1  and  C_2
REMARK    2  A    between atoms: C_2  and  N_3
REMARK    3  A    between atoms: N_3  and  C_4
REMARK    4  A    between atoms: N_3  and  C_25
REMARK    5  A    between atoms: C_4  and  C_5
REMARK    6  A    between atoms: C_8  and  C_9
REMARK    7  A    between atoms: C_9  and  N_10
REMARK    8  A    between atoms: C_11  and  C_13
REMARK                            x       y       z     vdW  Elec       q    Type
REMARK                         _______ _______ _______ _____ _____    ______ ____
ROOT
ATOM      1  C   UNL     1      44.873   6.001  11.447  0.00  0.00    +0.000 A 
ATOM      2  C   UNL     1      46.136   5.493  11.775  0.00  0.00    +0.000 A 
ATOM      3  C   UNL     1      47.010   6.259  12.542  0.00  0.00    +0.000 A 
ATOM      4  C   UNL     1      46.602   7.522  12.962  0.00  0.00    +0.000 A 
ATOM      5  N   UNL     1      45.350   7.993  12.738  0.00  0.00    +0.000 NA
ATOM      6  C   UNL     1      44.520   7.226  11.995  0.00  0.00    +0.000 A 
ENDROOT
BRANCH   1   7
ATOM      7  C   UNL     1      44.031   5.368  10.373  0.00  0.00    +0.000 C 
BRANCH   7   8
ATOM      8  N   UNL     1      44.040   3.910  10.196  0.00  0.00    +0.000 N 
BRANCH   8   9
ATOM      9  C   UNL     1      44.910   3.389   9.225  0.00  0.00    +0.000 A 
ATOM     10  C   UNL     1      45.581   4.204   8.295  0.00  0.00    +0.000 A 
ATOM     11  C   UNL     1      46.491   3.689   7.359  0.00  0.00    +0.000 A 
ATOM     12  C   UNL     1      46.754   2.329   7.312  0.00  0.00    +0.000 A 
ATOM     13  C   UNL     1      46.094   1.485   8.192  0.00  0.00    +0.000 A 
ATOM     14  C   UNL     1      45.190   2.009   9.123  0.00  0.00    +0.000 A 
ENDBRANCH   8   9
BRANCH   8  16
ATOM     15  C   UNL     1      44.064   2.927  12.467  0.00  0.00    +0.000 C 
ATOM     16  C   UNL     1      43.336   3.022  11.128  0.00  0.00    +0.000 C 
ENDBRANCH   8  16
ENDBRANCH   7   8
ENDBRANCH   1   7
BRANCH   4  17
ATOM     17  C   UNL     1      47.583   8.454  13.634  0.00  0.00    +0.000 C 
BRANCH  17  18
ATOM     18  N   UNL     1      47.872   8.076  14.993  0.00  0.00    +0.000 N 
ATOM     19  C   UNL     1      48.978   7.344  15.329  0.00  0.00    +0.000 C 
ATOM     20  O   UNL     1      49.783   6.955  14.487  0.00  0.00    +0.000 OA
ATOM     21  H   UNL     1      47.112   8.193  15.658  0.00  0.00    +0.000 HD
BRANCH  19  22
ATOM     22  C   UNL     1      49.193   7.108  16.760  0.00  0.00    +0.000 A 
ATOM     23  C   UNL     1      49.895   8.042  17.511  0.00  0.00    +0.000 A 
ATOM     24  S   UNL     1      50.047   7.624  19.156  0.00  0.00    +0.000 S 
ATOM     25  C   UNL     1      49.215   6.159  18.914  0.00  0.00    +0.000 A 
ATOM     26  N   UNL     1      49.031   5.281  19.938  0.00  0.00    +0.000 NA
ATOM     27  C   UNL     1      48.416   4.198  19.605  0.00  0.00    +0.000 A 
ATOM     28  N   UNL     1      47.952   3.913  18.347  0.00  0.00    +0.000 N 
ATOM     29  C   UNL     1      48.059   4.798  17.297  0.00  0.00    +0.000 A 
ATOM     30  O   UNL     1      47.537   4.564  16.215  0.00  0.00    +0.000 OA
ATOM     31  C   UNL     1      48.793   6.011  17.606  0.00  0.00    +0.000 A 
ATOM     32  H   UNL     1      47.449   3.062  18.158  0.00  0.00    +0.000 HD
ENDBRANCH  19  22
ENDBRANCH  17  18
ENDBRANCH   4  17
TORSDOF 7
ENDMDL
MODEL 4
REMARK VINA RESULT:    -7.171      3.824      8.574
REMARK INTER + INTRA:         -11.295
REMARK INTER:                  -9.760
REMARK INTRA:                  -1.536
REMARK UNBOUND:                -1.189
REMARK  Name = 
REMARK  8 active torsions:
REMARK  status: ('A' for Active; 'I' for Inactive)
REMARK    1  A    between atoms: C_1  and  C_2
REMARK    2  A    between atoms: C_2  and  N_3
REMARK    3  A    between atoms: N_3  and  C_4
REMARK    4  A    between atoms: N_3  and  C_25
REMARK    5  A    between atoms: C_4  and  C_5
REMARK    6  A    between atoms: C_8  and  C_9
REMARK    7  A    between atoms: C_9  and  N_10
REMARK    8  A    between atoms: C_11  and  C_13
REMARK                            x       y       z     vdW  Elec       q    Type
REMARK                         _______ _______ _______ _____ _____    ______ ____
ROOT
ATOM      1  C   UNL     1      49.167   7.885  15.845  0.00  0.00    +0.000 A 
ATOM      2  C   UNL     1      49.709   7.057  14.855  0.00  0.00    +0.000 A 
ATOM      3  C   UNL     1      49.170   7.072  13.571  0.00  0.00    +0.000 A 
ATOM      4  C   UNL     1      48.095   7.913  13.306  0.00  0.00    +0.000 A 
ATOM      5  N   UNL     1      47.617   8.794  14.221  0.00  0.00    +0.000 NA
ATOM      6  C   UNL     1      48.163   8.761  15.459  0.00  0.00    +0.000 A 
ENDROOT
BRANCH   1   7
ATOM      7  C   UNL     1      49.490   7.679  17.300  0.00  0.00    +0.000 C 
BRANCH   7   8
ATOM      8  N   UNL     1      48.645   6.805  18.123  0.00  0.00    +0.000 N 
BRANCH   8   9
ATOM      9  C   UNL     1      48.637   5.437  17.803  0.00  0.00    +0.000 A 
ATOM     10  C   UNL     1      47.462   4.750  17.447  0.00  0.00    +0.000 A 
ATOM     11  C   UNL     1      47.463   3.397  17.076  0.00  0.00    +0.000 A 
ATOM     12  C   UNL     1      48.647   2.675  17.059  0.00  0.00    +0.000 A 
ATOM     13  C   UNL     1      49.824   3.305  17.429  0.00  0.00    +0.000 A 
ATOM     14  C   UNL     1      49.813   4.656  17.795  0.00  0.00    +0.000 A 
ENDBRANCH   8   9
BRANCH   8  16
ATOM     15  C   UNL     1      47.204   8.565  19.095  0.00  0.00    +0.000 C 
ATOM     16  C   UNL     1      48.007   7.292  19.350  0.00  0.00    +0.000 C 
ENDBRANCH   8  16
ENDBRANCH   7   8
ENDBRANCH   1   7
BRANCH   4  17
ATOM     17  C   UNL     1      47.366   7.825  11.985  0.00  0.00    +0.000 C 
BRANCH  17  18
ATOM     18  N   UNL     1      46.696   6.564  11.800  0.00  0.00    +0.000 N 
ATOM     19  C   UNL     1      45.345   6.477  11.601  0.00  0.00    +0.000 C 
ATOM     20  O   UNL     1      44.623   7.471  11.583  0.00  0.00    +0.000 OA
ATOM     21  H   UNL     1      47.234   5.735  12.035  0.00  0.00    +0.000 HD
BRANCH  19  22
ATOM     22  C   UNL     1      44.809   5.137  11.338  0.00  0.00    +0.000 A 
ATOM     23  C   UNL     1      44.009   4.520  12.291  0.00  0.00    +0.000 A 
ATOM     24  S   UNL     1      43.459   2.975  11.826  0.00  0.00    +0.000 S 
ATOM     25  C   UNL     1      44.306   3.060  10.353  0.00  0.00    +0.000 A 
ATOM     26  N   UNL     1      44.295   2.016   9.478  0.00  0.00    +0.000 NA
ATOM     27  C   UNL     1      45.006   2.204   8.419  0.00  0.00    +0.000 A 
ATOM     28  N   UNL     1      45.718   3.342   8.142  0.00  0.00    +0.000 N 
ATOM     29  C   UNL     1      45.708   4.445   8.966  0.00  0.00    +0.000 A 
ATOM     30  O   UNL     1      46.262   5.486   8.640  0.00  0.00    +0.000 OA
ATOM     31  C   UNL     1      44.966   4.265  10.201  0.00  0.00    +0.000 A 
ATOM     32  H   UNL     1      46.230   3.439   7.281  0.00  0.00    +0.000 HD
ENDBRANCH  19  22
ENDBRANCH  17  18
ENDBRANCH   4  17
TORSDOF 7
ENDMDL
MODEL 5
REMARK VINA RESULT:    -6.760      3.365      8.478
REMARK INTER + INTRA:         -10.716
REMARK INTER:                  -9.565
REMARK INTRA:                  -1.151
REMARK UNBOUND:                -1.189
REMARK  Name = 
REMARK  8 active torsions:
REMARK  status: ('A' for Active; 'I' for Inactive)
REMARK    1  A    between atoms: C_1  and  C_2
REMARK    2  A    between atoms: C_2  and  N_3
REMARK    3  A    between atoms: N_3  and  C_4
REMARK    4  A    between atoms: N_3  and  C_25
REMARK    5  A    between atoms: C_4  and  C_5
REMARK    6  A    between atoms: C_8  and  C_9
REMARK    7  A    between atoms: C_9  and  N_10
REMARK    8  A    between atoms: C_11  and  C_13
REMARK                            x       y       z     vdW  Elec       q    Type
REMARK                         _______ _______ _______ _____ _____    ______ ____
ROOT
ATOM      1  C   UNL     1      49.832   7.039  16.267  0.00  0.00    +0.000 A 
ATOM      2  C   UNL     1      50.218   8.258  15.697  0.00  0.00    +0.000 A 
ATOM      3  C   UNL     1      49.755   8.604  14.430  0.00  0.00    +0.000 A 
ATOM      4  C   UNL     1      48.919   7.718  13.757  0.00  0.00    +0.000 A 
ATOM      5  N   UNL     1      48.456   6.578  14.330  0.00  0.00    +0.000 NA
ATOM      6  C   UNL     1      48.917   6.270  15.563  0.00  0.00    +0.000 A 
ENDROOT
BRANCH   1   7
ATOM      7  C   UNL     1      50.544   6.478  17.469  0.00  0.00    +0.000 C 
BRANCH   7   8
ATOM      8  N   UNL     1      49.983   5.325  18.183  0.00  0.00    +0.000 N 
BRANCH   8   9
ATOM      9  C   UNL     1      50.531   4.064  17.893  0.00  0.00    +0.000 A 
ATOM     10  C   UNL     1      51.871   3.740  18.174  0.00  0.00    +0.000 A 
ATOM     11  C   UNL     1      52.404   2.464  17.933  0.00  0.00    +0.000 A 
ATOM     12  C   UNL     1      51.613   1.465  17.388  0.00  0.00    +0.000 A 
ATOM     13  C   UNL     1      50.294   1.750  17.070  0.00  0.00    +0.000 A 
ATOM     14  C   UNL     1      49.771   3.024  17.316  0.00  0.00    +0.000 A 
ENDBRANCH   8   9
BRANCH   8  16
ATOM     15  C   UNL     1      47.596   5.470  18.817  0.00  0.00    +0.000 C 
ATOM     16  C   UNL     1      49.044   5.497  19.297  0.00  0.00    +0.000 C 
ENDBRANCH   8  16
ENDBRANCH   7   8
ENDBRANCH   1   7
BRANCH   4  17
ATOM     17  C   UNL     1      48.547   7.969  12.315  0.00  0.00    +0.000 C 
BRANCH  17  18
ATOM     18  N   UNL     1      47.788   6.889  11.737  0.00  0.00    +0.000 N 
ATOM     19  C   UNL     1      46.423   6.915  11.659  0.00  0.00    +0.000 C 
ATOM     20  O   UNL     1      45.763   7.857  12.091  0.00  0.00    +0.000 OA
ATOM     21  H   UNL     1      48.295   6.021  11.586  0.00  0.00    +0.000 HD
BRANCH  19  22
ATOM     22  C   UNL     1      45.788   5.789  10.967  0.00  0.00    +0.000 A 
ATOM     23  C   UNL     1      45.904   5.680   9.587  0.00  0.00    +0.000 A 
ATOM     24  S   UNL     1      45.120   4.311   8.940  0.00  0.00    +0.000 S 
ATOM     25  C   UNL     1      44.565   3.839  10.478  0.00  0.00    +0.000 A 
ATOM     26  N   UNL     1      43.775   2.739  10.629  0.00  0.00    +0.000 NA
ATOM     27  C   UNL     1      43.400   2.519  11.843  0.00  0.00    +0.000 A 
ATOM     28  N   UNL     1      43.749   3.284  12.925  0.00  0.00    +0.000 N 
ATOM     29  C   UNL     1      44.595   4.366  12.829  0.00  0.00    +0.000 A 
ATOM     30  O   UNL     1      44.979   4.962  13.826  0.00  0.00    +0.000 OA
ATOM     31  C   UNL     1      45.003   4.691  11.474  0.00  0.00    +0.000 A 
ATOM     32  H   UNL     1      43.448   3.040  13.854  0.00  0.00    +0.000 HD
ENDBRANCH  19  22
ENDBRANCH  17  18
ENDBRANCH   4  17
TORSDOF 7
ENDMDL
MODEL 6
REMARK VINA RESULT:    -6.688      3.349      8.930
REMARK INTER + INTRA:         -10.615
REMARK INTER:                  -9.380
REMARK INTRA:                  -1.235
REMARK UNBOUND:                -1.189
REMARK  Name = 
REMARK  8 active torsions:
REMARK  status: ('A' for Active; 'I' for Inactive)
REMARK    1  A    between atoms: C_1  and  C_2
REMARK    2  A    between atoms: C_2  and  N_3
REMARK    3  A    between atoms: N_3  and  C_4
REMARK    4  A    between atoms: N_3  and  C_25
REMARK    5  A    between atoms: C_4  and  C_5
REMARK    6  A    between atoms: C_8  and  C_9
REMARK    7  A    between atoms: C_9  and  N_10
REMARK    8  A    between atoms: C_11  and  C_13
REMARK                            x       y       z     vdW  Elec       q    Type
REMARK                         _______ _______ _______ _____ _____    ______ ____
ROOT
ATOM      1  C   UNL     1      50.156   6.775  15.931  0.00  0.00    +0.000 A 
ATOM      2  C   UNL     1      50.302   7.962  15.204  0.00  0.00    +0.000 A 
ATOM      3  C   UNL     1      49.432   8.238  14.152  0.00  0.00    +0.000 A 
ATOM      4  C   UNL     1      48.436   7.316  13.847  0.00  0.00    +0.000 A 
ATOM      5  N   UNL     1      48.216   6.208  14.598  0.00  0.00    +0.000 NA
ATOM      6  C   UNL     1      49.072   5.967  15.617  0.00  0.00    +0.000 A 
ENDROOT
BRANCH   1   7
ATOM      7  C   UNL     1      51.243   6.281  16.848  0.00  0.00    +0.000 C 
BRANCH   7   8
ATOM      8  N   UNL     1      50.915   5.365  17.948  0.00  0.00    +0.000 N 
BRANCH   8   9
ATOM      9  C   UNL     1      51.310   4.025  17.803  0.00  0.00    +0.000 A 
ATOM     10  C   UNL     1      52.584   3.566  18.184  0.00  0.00    +0.000 A 
ATOM     11  C   UNL     1      52.959   2.217  18.088  0.00  0.00    +0.000 A 
ATOM     12  C   UNL     1      52.069   1.275  17.594  0.00  0.00    +0.000 A 
ATOM     13  C   UNL     1      50.813   1.688  17.182  0.00  0.00    +0.000 A 
ATOM     14  C   UNL     1      50.447   3.035  17.284  0.00  0.00    +0.000 A 
ENDBRANCH   8   9
BRANCH   8  16
ATOM     15  C   UNL     1      48.879   5.697  19.313  0.00  0.00    +0.000 C 
ATOM     16  C   UNL     1      50.394   5.861  19.226  0.00  0.00    +0.000 C 
ENDBRANCH   8  16
ENDBRANCH   7   8
ENDBRANCH   1   7
BRANCH   4  17
ATOM     17  C   UNL     1      47.594   7.488  12.605  0.00  0.00    +0.000 C 
BRANCH  17  18
ATOM     18  N   UNL     1      46.856   6.301  12.260  0.00  0.00    +0.000 N 
ATOM     19  C   UNL     1      45.490   6.287  12.175  0.00  0.00    +0.000 C 
ATOM     20  O   UNL     1      44.814   7.287  12.402  0.00  0.00    +0.000 OA
ATOM     21  H   UNL     1      47.377   5.429  12.292  0.00  0.00    +0.000 HD
BRANCH  19  22
ATOM     22  C   UNL     1      44.877   5.033  11.728  0.00  0.00    +0.000 A 
ATOM     23  C   UNL     1      44.092   4.302  12.611  0.00  0.00    +0.000 A 
ATOM     24  S   UNL     1      43.444   2.878  11.933  0.00  0.00    +0.000 S 
ATOM     25  C   UNL     1      44.225   3.169  10.449  0.00  0.00    +0.000 A 
ATOM     26  N   UNL     1      44.120   2.284   9.418  0.00  0.00    +0.000 NA
ATOM     27  C   UNL     1      44.790   2.613   8.367  0.00  0.00    +0.000 A 
ATOM     28  N   UNL     1      45.545   3.750   8.239  0.00  0.00    +0.000 N 
ATOM     29  C   UNL     1      45.628   4.702   9.231  0.00  0.00    +0.000 A 
ATOM     30  O   UNL     1      46.218   5.758   9.048  0.00  0.00    +0.000 OA
ATOM     31  C   UNL     1      44.936   4.354  10.458  0.00  0.00    +0.000 A 
ATOM     32  H   UNL     1      46.020   3.965   7.379  0.00  0.00    +0.000 HD
ENDBRANCH  19  22
ENDBRANCH  17  18
ENDBRANCH   4  17
TORSDOF 7
ENDMDL
MODEL 7
REMARK VINA RESULT:    -6.586      1.718      2.666
REMARK INTER + INTRA:         -10.470
REMARK INTER:                  -9.543
REMARK INTRA:                  -0.927
REMARK UNBOUND:                -1.189
REMARK  Name = 
REMARK  8 active torsions:
REMARK  status: ('A' for Active; 'I' for Inactive)
REMARK    1  A    between atoms: C_1  and  C_2
REMARK    2  A    between atoms: C_2  and  N_3
REMARK    3  A    between atoms: N_3  and  C_4
REMARK    4  A    between atoms: N_3  and  C_25
REMARK    5  A    between atoms: C_4  and  C_5
REMARK    6  A    between atoms: C_8  and  C_9
REMARK    7  A    between atoms: C_9  and  N_10
REMARK    8  A    between atoms: C_11  and  C_13
REMARK                            x       y       z     vdW  Elec       q    Type
REMARK                         _______ _______ _______ _____ _____    ______ ____
ROOT
ATOM      1  C   UNL     1      48.029   6.647  12.575  0.00  0.00    +0.000 A 
ATOM      2  C   UNL     1      49.111   7.531  12.650  0.00  0.00    +0.000 A 
ATOM      3  C   UNL     1      49.739   7.751  13.873  0.00  0.00    +0.000 A 
ATOM      4  C   UNL     1      49.267   7.083  14.999  0.00  0.00    +0.000 A 
ATOM      5  N   UNL     1      48.284   6.150  14.931  0.00  0.00    +0.000 NA
ATOM      6  C   UNL     1      47.695   5.953  13.730  0.00  0.00    +0.000 A 
ENDROOT
BRANCH   1   7
ATOM      7  C   UNL     1      47.125   6.617  11.373  0.00  0.00    +0.000 C 
BRANCH   7   8
ATOM      8  N   UNL     1      45.671   6.732  11.543  0.00  0.00    +0.000 N 
BRANCH   8   9
ATOM      9  C   UNL     1      44.953   5.539  11.728  0.00  0.00    +0.000 A 
ATOM     10  C   UNL     1      44.172   5.295  12.872  0.00  0.00    +0.000 A 
ATOM     11  C   UNL     1      43.412   4.126  13.032  0.00  0.00    +0.000 A 
ATOM     12  C   UNL     1      43.418   3.147  12.050  0.00  0.00    +0.000 A 
ATOM     13  C   UNL     1      44.196   3.333  10.918  0.00  0.00    +0.000 A 
ATOM     14  C   UNL     1      44.947   4.504  10.767  0.00  0.00    +0.000 A 
ENDBRANCH   8   9
BRANCH   8  16
ATOM     15  C   UNL     1      45.607   8.789  12.916  0.00  0.00    +0.000 C 
ATOM     16  C   UNL     1      45.023   8.035  11.724  0.00  0.00    +0.000 C 
ENDBRANCH   8  16
ENDBRANCH   7   8
ENDBRANCH   1   7
BRANCH   4  17
ATOM     17  C   UNL     1      49.797   7.432  16.370  0.00  0.00    +0.000 C 
BRANCH  17  18
ATOM     18  N   UNL     1      50.756   6.475  16.859  0.00  0.00    +0.000 N 
ATOM     19  C   UNL     1      50.466   5.599  17.869  0.00  0.00    +0.000 C 
ATOM     20  O   UNL     1      49.371   5.588  18.427  0.00  0.00    +0.000 OA
ATOM     21  H   UNL     1      51.719   6.622  16.568  0.00  0.00    +0.000 HD
BRANCH  19  22
ATOM     22  C   UNL     1      51.507   4.623  18.205  0.00  0.00    +0.000 A 
ATOM     23  C   UNL     1      52.638   5.038  18.895  0.00  0.00    +0.000 A 
ATOM     24  S   UNL     1      53.743   3.780  19.217  0.00  0.00    +0.000 S 
ATOM     25  C   UNL     1      52.765   2.645  18.410  0.00  0.00    +0.000 A 
ATOM     26  N   UNL     1      53.161   1.348  18.279  0.00  0.00    +0.000 NA
ATOM     27  C   UNL     1      52.340   0.608  17.615  0.00  0.00    +0.000 A 
ATOM     28  N   UNL     1      51.153   1.034  17.081  0.00  0.00    +0.000 N 
ATOM     29  C   UNL     1      50.683   2.318  17.243  0.00  0.00    +0.000 A 
ATOM     30  O   UNL     1      49.569   2.641  16.852  0.00  0.00    +0.000 OA
ATOM     31  C   UNL     1      51.596   3.209  17.936  0.00  0.00    +0.000 A 
ATOM     32  H   UNL     1      50.540   0.397  16.600  0.00  0.00    +0.000 HD
ENDBRANCH  19  22
ENDBRANCH  17  18
ENDBRANCH   4  17
TORSDOF 7
ENDMDL
MODEL 8
REMARK VINA RESULT:    -6.173      4.060      5.172
REMARK INTER + INTRA:          -9.889
REMARK INTER:                  -8.766
REMARK INTRA:                  -1.123
REMARK UNBOUND:                -1.189
REMARK  Name = 
REMARK  8 active torsions:
REMARK  status: ('A' for Active; 'I' for Inactive)
REMARK    1  A    between atoms: C_1  and  C_2
REMARK    2  A    between atoms: C_2  and  N_3
REMARK    3  A    between atoms: N_3  and  C_4
REMARK    4  A    between atoms: N_3  and  C_25
REMARK    5  A    between atoms: C_4  and  C_5
REMARK    6  A    between atoms: C_8  and  C_9
REMARK    7  A    between atoms: C_9  and  N_10
REMARK    8  A    between atoms: C_11  and  C_13
REMARK                            x       y       z     vdW  Elec       q    Type
REMARK                         _______ _______ _______ _____ _____    ______ ____
ROOT
ATOM      1  C   UNL     1      45.697   6.555  11.899  0.00  0.00    +0.000 A 
ATOM      2  C   UNL     1      46.735   5.724  12.337  0.00  0.00    +0.000 A 
ATOM      3  C   UNL     1      47.646   6.197  13.278  0.00  0.00    +0.000 A 
ATOM      4  C   UNL     1      47.502   7.495  13.757  0.00  0.00    +0.000 A 
ATOM      5  N   UNL     1      46.449   8.282  13.420  0.00  0.00    +0.000 NA
ATOM      6  C   UNL     1      45.576   7.796  12.509  0.00  0.00    +0.000 A 
ENDROOT
BRANCH   1   7
ATOM      7  C   UNL     1      44.892   6.220  10.672  0.00  0.00    +0.000 C 
BRANCH   7   8
ATOM      8  N   UNL     1      44.335   4.872  10.504  0.00  0.00    +0.000 N 
BRANCH   8   9
ATOM      9  C   UNL     1      44.979   4.024   9.588  0.00  0.00    +0.000 A 
ATOM     10  C   UNL     1      44.925   2.622   9.688  0.00  0.00    +0.000 A 
ATOM     11  C   UNL     1      45.524   1.775   8.743  0.00  0.00    +0.000 A 
ATOM     12  C   UNL     1      46.213   2.305   7.663  0.00  0.00    +0.000 A 
ATOM     13  C   UNL     1      46.315   3.682   7.541  0.00  0.00    +0.000 A 
ATOM     14  C   UNL     1      45.712   4.518   8.487  0.00  0.00    +0.000 A 
ENDBRANCH   8   9
BRANCH   8  16
ATOM     15  C   UNL     1      42.327   5.463  11.823  0.00  0.00    +0.000 C 
ATOM     16  C   UNL     1      43.292   4.359  11.398  0.00  0.00    +0.000 C 
ENDBRANCH   8  16
ENDBRANCH   7   8
ENDBRANCH   1   7
BRANCH   4  17
ATOM     17  C   UNL     1      48.570   8.106  14.633  0.00  0.00    +0.000 C 
BRANCH  17  18
ATOM     18  N   UNL     1      49.901   7.893  14.124  0.00  0.00    +0.000 N 
ATOM     19  C   UNL     1      50.865   8.863  14.168  0.00  0.00    +0.000 C 
ATOM     20  O   UNL     1      50.646   9.979  14.634  0.00  0.00    +0.000 OA
ATOM     21  H   UNL     1      50.028   7.070  13.542  0.00  0.00    +0.000 HD
BRANCH  19  22
ATOM     22  C   UNL     1      52.199   8.479  13.696  0.00  0.00    +0.000 A 
ATOM     23  C   UNL     1      53.141   8.016  14.605  0.00  0.00    +0.000 A 
ATOM     24  S   UNL     1      54.633   7.601  13.894  0.00  0.00    +0.000 S 
ATOM     25  C   UNL     1      54.085   8.064  12.351  0.00  0.00    +0.000 A 
ATOM     26  N   UNL     1      54.908   8.000  11.267  0.00  0.00    +0.000 NA
ATOM     27  C   UNL     1      54.373   8.414  10.170  0.00  0.00    +0.000 A 
ATOM     28  N   UNL     1      53.088   8.873  10.046  0.00  0.00    +0.000 N 
ATOM     29  C   UNL     1      52.201   8.895  11.100  0.00  0.00    +0.000 A 
ATOM     30  O   UNL     1      51.029   9.204  10.936  0.00  0.00    +0.000 OA
ATOM     31  C   UNL     1      52.770   8.491  12.372  0.00  0.00    +0.000 A 
ATOM     32  H   UNL     1      52.718   9.152   9.152  0.00  0.00    +0.000 HD
ENDBRANCH  19  22
ENDBRANCH  17  18
ENDBRANCH   4  17
TORSDOF 7
ENDMDL
MODEL 9
REMARK VINA RESULT:    -6.070      3.814      8.973
REMARK INTER + INTRA:          -9.743
REMARK INTER:                  -8.534
REMARK INTRA:                  -1.209
REMARK UNBOUND:                -1.189
REMARK  Name = 
REMARK  8 active torsions:
REMARK  status: ('A' for Active; 'I' for Inactive)
REMARK    1  A    between atoms: C_1  and  C_2
REMARK    2  A    between atoms: C_2  and  N_3
REMARK    3  A    between atoms: N_3  and  C_4
REMARK    4  A    between atoms: N_3  and  C_25
REMARK    5  A    between atoms: C_4  and  C_5
REMARK    6  A    between atoms: C_8  and  C_9
REMARK    7  A    between atoms: C_9  and  N_10
REMARK    8  A    between atoms: C_11  and  C_13
REMARK                            x       y       z     vdW  Elec       q    Type
REMARK                         _______ _______ _______ _____ _____    ______ ____
ROOT
ATOM      1  C   UNL     1      48.257   6.702  14.943  0.00  0.00    +0.000 A 
ATOM      2  C   UNL     1      47.974   7.922  14.318  0.00  0.00    +0.000 A 
ATOM      3  C   UNL     1      47.073   7.961  13.257  0.00  0.00    +0.000 A 
ATOM      4  C   UNL     1      46.477   6.775  12.840  0.00  0.00    +0.000 A 
ATOM      5  N   UNL     1      46.662   5.600  13.493  0.00  0.00    +0.000 NA
ATOM      6  C   UNL     1      47.538   5.592  14.523  0.00  0.00    +0.000 A 
ENDROOT
BRANCH   1   7
ATOM      7  C   UNL     1      49.439   6.550  15.861  0.00  0.00    +0.000 C 
BRANCH   7   8
ATOM      8  N   UNL     1      49.292   5.834  17.135  0.00  0.00    +0.000 N 
BRANCH   8   9
ATOM      9  C   UNL     1      49.864   4.554  17.218  0.00  0.00    +0.000 A 
ATOM     10  C   UNL     1      51.197   4.344  17.617  0.00  0.00    +0.000 A 
ATOM     11  C   UNL     1      51.751   3.062  17.751  0.00  0.00    +0.000 A 
ATOM     12  C   UNL     1      50.989   1.936  17.477  0.00  0.00    +0.000 A 
ATOM     13  C   UNL     1      49.680   2.098  17.054  0.00  0.00    +0.000 A 
ATOM     14  C   UNL     1      49.135   3.380  16.926  0.00  0.00    +0.000 A 
ENDBRANCH   8   9
BRANCH   8  16
ATOM     15  C   UNL     1      47.371   5.985  18.687  0.00  0.00    +0.000 C 
ATOM     16  C   UNL     1      48.763   6.499  18.330  0.00  0.00    +0.000 C 
ENDBRANCH   8  16
ENDBRANCH   7   8
ENDBRANCH   1   7
BRANCH   4  17
ATOM     17  C   UNL     1      45.642   6.744  11.582  0.00  0.00    +0.000 C 
BRANCH  17  18
ATOM     18  N   UNL     1      45.748   5.496  10.870  0.00  0.00    +0.000 N 
ATOM     19  C   UNL     1      44.656   4.855  10.351  0.00  0.00    +0.000 C 
ATOM     20  O   UNL     1      43.518   5.302  10.474  0.00  0.00    +0.000 OA
ATOM     21  H   UNL     1      46.636   5.009  10.957  0.00  0.00    +0.000 HD
BRANCH  19  22
ATOM     22  C   UNL     1      44.921   3.639   9.576  0.00  0.00    +0.000 A 
ATOM     23  C   UNL     1      44.221   2.476   9.866  0.00  0.00    +0.000 A 
ATOM     24  S   UNL     1      44.638   1.159   8.866  0.00  0.00    +0.000 S 
ATOM     25  C   UNL     1      45.798   2.088   8.039  0.00  0.00    +0.000 A 
ATOM     26  N   UNL     1      46.567   1.537   7.058  0.00  0.00    +0.000 NA
ATOM     27  C   UNL     1      47.427   2.346   6.541  0.00  0.00    +0.000 A 
ATOM     28  N   UNL     1      47.585   3.659   6.898  0.00  0.00    +0.000 N 
ATOM     29  C   UNL     1      46.788   4.275   7.837  0.00  0.00    +0.000 A 
ATOM     30  O   UNL     1      46.877   5.476   8.055  0.00  0.00    +0.000 OA
ATOM     31  C   UNL     1      45.838   3.394   8.491  0.00  0.00    +0.000 A 
ATOM     32  H   UNL     1      48.255   4.248   6.432  0.00  0.00    +0.000 HD
ENDBRANCH  19  22
ENDBRANCH  17  18
ENDBRANCH   4  17
TORSDOF 7
ENDMDL
