MODEL 1
REMARK VINA RESULT:    -7.436      0.000      0.000
REMARK INTER + INTRA:         -12.131
REMARK INTER:                 -10.914
REMARK INTRA:                  -1.217
REMARK UNBOUND:                -1.217
REMARK  Name = 
REMARK  9 active torsions:
REMARK  status: ('A' for Active; 'I' for Inactive)
REMARK    1  A    between atoms: C_1  and  O_2
REMARK    2  A    between atoms: O_2  and  C_3
REMARK    3  A    between atoms: C_5  and  C_6
REMARK    4  A    between atoms: C_11  and  O_12
REMARK    5  A    between atoms: O_12  and  C_13
REMARK    6  A    between atoms: C_13  and  C_14
REMARK    7  A    between atoms: C_18  and  C_19
REMARK    8  A    between atoms: C_22  and  O_23
REMARK    9  A    between atoms: O_23  and  C_24
REMARK                            x       y       z     vdW  Elec       q    Type
REMARK                         _______ _______ _______ _____ _____    ______ ____
ROOT
ATOM      1  C   UNL     1      46.720   7.633  13.164  0.00  0.00    +0.000 A 
ATOM      2  C   UNL     1      45.974   8.785  12.905  0.00  0.00    +0.000 A 
ATOM      3  C   UNL     1      44.950   8.754  11.963  0.00  0.00    +0.000 A 
ATOM      4  C   UNL     1      44.681   7.577  11.257  0.00  0.00    +0.000 A 
ATOM      5  C   UNL     1      45.431   6.407  11.462  0.00  0.00    +0.000 A 
ATOM      6  C   UNL     1      46.431   6.453  12.452  0.00  0.00    +0.000 A 
ENDROOT
BRANCH   5   7
ATOM      7  C   UNL     1      45.275   5.217  10.593  0.00  0.00    +0.000 A 
ATOM      8  C   UNL     1      45.700   5.254   9.252  0.00  0.00    +0.000 A 
ATOM      9  C   UNL     1      45.671   4.120   8.434  0.00  0.00    +0.000 A 
ATOM     10  C   UNL     1      45.238   2.904   8.951  0.00  0.00    +0.000 A 
ATOM     11  C   UNL     1      44.760   2.851  10.259  0.00  0.00    +0.000 A 
ATOM     12  C   UNL     1      44.778   3.995  11.070  0.00  0.00    +0.000 A 
BRANCH  10  13
ATOM     13  O   UNL     1      45.231   1.717   8.273  0.00  0.00    +0.000 OA
BRANCH  13  14
ATOM     14  C   UNL     1      46.514   1.224   7.911  0.00  0.00    +0.000 C 
ATOM     15  F   UNL     1      46.440  -0.132   7.906  0.00  0.00    +0.000 F 
ATOM     16  F   UNL     1      46.784   1.605   6.640  0.00  0.00    +0.000 F 
ENDBRANCH  13  14
ENDBRANCH  10  13
ENDBRANCH   5   7
BRANCH   1  17
ATOM     17  C   UNL     1      47.952   7.688  14.038  0.00  0.00    +0.000 C 
BRANCH  17  18
ATOM     18  O   UNL     1      48.577   6.415  14.185  0.00  0.00    +0.000 OA
BRANCH  18  24
ATOM     19  C   UNL     1      47.591   4.860  15.886  0.00  0.00    +0.000 A 
ATOM     20  C   UNL     1      47.689   4.392  17.204  0.00  0.00    +0.000 A 
ATOM     21  C   UNL     1      48.678   4.862  18.077  0.00  0.00    +0.000 A 
ATOM     22  C   UNL     1      49.591   5.817  17.620  0.00  0.00    +0.000 A 
ATOM     23  C   UNL     1      49.498   6.293  16.305  0.00  0.00    +0.000 A 
ATOM     24  C   UNL     1      48.507   5.827  15.429  0.00  0.00    +0.000 A 
BRANCH  21  25
ATOM     25  C   UNL     1      48.695   4.292  19.457  0.00  0.00    +0.000 C 
ATOM     26  N   UNL     1      48.286   3.006  19.647  0.00  0.00    +0.000 N 
ATOM     27  O   UNL     1      49.068   4.962  20.417  0.00  0.00    +0.000 OA
ATOM     28  H   UNL     1      47.942   2.389  18.932  0.00  0.00    +0.000 HD
ATOM     29  H   UNL     1      48.304   2.662  20.600  0.00  0.00    +0.000 HD
ENDBRANCH  21  25
BRANCH  19  31
ATOM     30  C   UNL     1      47.080   3.345  14.100  0.00  0.00    +0.000 C 
ATOM     31  O   UNL     1      46.668   4.356  15.009  0.00  0.00    +0.000 OA
ENDBRANCH  19  31
ENDBRANCH  18  24
ENDBRANCH  17  18
ENDBRANCH   1  17
TORSDOF 8
ENDMDL
MODEL 2
REMARK VINA RESULT:    -7.434      4.328      8.544
REMARK INTER + INTRA:         -12.127
REMARK INTER:                 -11.460
REMARK INTRA:                  -0.668
REMARK UNBOUND:                -1.217
REMARK  Name = 
REMARK  9 active torsions:
REMARK  status: ('A' for Active; 'I' for Inactive)
REMARK    1  A    between atoms: C_1  and  O_2
REMARK    2  A    between atoms: O_2  and  C_3
REMARK    3  A    between atoms: C_5  and  C_6
REMARK    4  A    between atoms: C_11  and  O_12
REMARK    5  A    between atoms: O_12  and  C_13
REMARK    6  A    between atoms: C_13  and  C_14
REMARK    7  A    between atoms: C_18  and  C_19
REMARK    8  A    between atoms: C_22  and  O_23
REMARK    9  A    between atoms: O_23  and  C_24
REMARK                            x       y       z     vdW  Elec       q    Type
REMARK                         _______ _______ _______ _____ _____    ______ ____
ROOT
ATOM      1  C   UNL     1      45.490   5.727  11.735  0.00  0.00    +0.000 A 
ATOM      2  C   UNL     1      46.228   6.675  11.021  0.00  0.00    +0.000 A 
ATOM      3  C   UNL     1      47.445   7.131  11.520  0.00  0.00    +0.000 A 
ATOM      4  C   UNL     1      47.920   6.660  12.748  0.00  0.00    +0.000 A 
ATOM      5  C   UNL     1      47.192   5.734  13.515  0.00  0.00    +0.000 A 
ATOM      6  C   UNL     1      45.987   5.256  12.965  0.00  0.00    +0.000 A 
ENDROOT
BRANCH   5   7
ATOM      7  C   UNL     1      47.596   5.372  14.893  0.00  0.00    +0.000 A 
ATOM      8  C   UNL     1      48.443   6.218  15.632  0.00  0.00    +0.000 A 
ATOM      9  C   UNL     1      48.757   5.966  16.972  0.00  0.00    +0.000 A 
ATOM     10  C   UNL     1      48.203   4.866  17.618  0.00  0.00    +0.000 A 
ATOM     11  C   UNL     1      47.407   3.981  16.894  0.00  0.00    +0.000 A 
ATOM     12  C   UNL     1      47.107   4.231  15.548  0.00  0.00    +0.000 A 
BRANCH  10  13
ATOM     13  O   UNL     1      48.380   4.557  18.937  0.00  0.00    +0.000 OA
BRANCH  13  14
ATOM     14  C   UNL     1      49.729   4.346  19.330  0.00  0.00    +0.000 C 
ATOM     15  F   UNL     1      50.351   3.696  18.313  0.00  0.00    +0.000 F 
ATOM     16  F   UNL     1      50.339   5.549  19.456  0.00  0.00    +0.000 F 
ENDBRANCH  13  14
ENDBRANCH  10  13
ENDBRANCH   5   7
BRANCH   1  17
ATOM     17  C   UNL     1      44.086   5.359  11.312  0.00  0.00    +0.000 C 
BRANCH  17  18
ATOM     18  O   UNL     1      43.974   5.160   9.904  0.00  0.00    +0.000 OA
BRANCH  18  24
ATOM     19  C   UNL     1      44.454   2.711   9.676  0.00  0.00    +0.000 A 
ATOM     20  C   UNL     1      45.244   1.754   9.022  0.00  0.00    +0.000 A 
ATOM     21  C   UNL     1      46.208   2.121   8.076  0.00  0.00    +0.000 A 
ATOM     22  C   UNL     1      46.383   3.475   7.774  0.00  0.00    +0.000 A 
ATOM     23  C   UNL     1      45.601   4.438   8.424  0.00  0.00    +0.000 A 
ATOM     24  C   UNL     1      44.637   4.074   9.375  0.00  0.00    +0.000 A 
BRANCH  21  25
ATOM     25  C   UNL     1      46.990   1.021   7.436  0.00  0.00    +0.000 C 
ATOM     26  N   UNL     1      46.671  -0.272   7.726  0.00  0.00    +0.000 N 
ATOM     27  O   UNL     1      47.911   1.263   6.660  0.00  0.00    +0.000 OA
ATOM     28  H   UNL     1      45.954  -0.570   8.365  0.00  0.00    +0.000 HD
ATOM     29  H   UNL     1      47.232  -0.987   7.280  0.00  0.00    +0.000 HD
ENDBRANCH  21  25
BRANCH  19  31
ATOM     30  C   UNL     1      43.784   2.269  11.934  0.00  0.00    +0.000 C 
ATOM     31  O   UNL     1      43.465   2.353  10.552  0.00  0.00    +0.000 OA
ENDBRANCH  19  31
ENDBRANCH  18  24
ENDBRANCH  17  18
ENDBRANCH   1  17
TORSDOF 8
ENDMDL
MODEL 3
REMARK VINA RESULT:    -7.266      1.633      2.591
REMARK INTER + INTRA:         -11.881
REMARK INTER:                 -10.985
REMARK INTRA:                  -0.897
REMARK UNBOUND:                -1.217
REMARK  Name = 
REMARK  9 active torsions:
REMARK  status: ('A' for Active; 'I' for Inactive)
REMARK    1  A    between atoms: C_1  and  O_2
REMARK    2  A    between atoms: O_2  and  C_3
REMARK    3  A    between atoms: C_5  and  C_6
REMARK    4  A    between atoms: C_11  and  O_12
REMARK    5  A    between atoms: O_12  and  C_13
REMARK    6  A    between atoms: C_13  and  C_14
REMARK    7  A    between atoms: C_18  and  C_19
REMARK    8  A    between atoms: C_22  and  O_23
REMARK    9  A    between atoms: O_23  and  C_24
REMARK                            x       y       z     vdW  Elec       q    Type
REMARK                         _______ _______ _______ _____ _____    ______ ____
ROOT
ATOM      1  C   UNL     1      45.132   5.650  12.728  0.00  0.00    +0.000 A 
ATOM      2  C   UNL     1      43.780   5.963  12.884  0.00  0.00    +0.000 A 
ATOM      3  C   UNL     1      42.836   5.428  12.010  0.00  0.00    +0.000 A 
ATOM      4  C   UNL     1      43.242   4.599  10.960  0.00  0.00    +0.000 A 
ATOM      5  C   UNL     1      44.596   4.290  10.746  0.00  0.00    +0.000 A 
ATOM      6  C   UNL     1      45.524   4.806  11.671  0.00  0.00    +0.000 A 
ENDROOT
BRANCH   5   7
ATOM      7  C   UNL     1      45.050   3.567   9.536  0.00  0.00    +0.000 A 
ATOM      8  C   UNL     1      45.469   4.279   8.396  0.00  0.00    +0.000 A 
ATOM      9  C   UNL     1      46.007   3.635   7.277  0.00  0.00    +0.000 A 
ATOM     10  C   UNL     1      46.167   2.253   7.282  0.00  0.00    +0.000 A 
ATOM     11  C   UNL     1      45.709   1.519   8.375  0.00  0.00    +0.000 A 
ATOM     12  C   UNL     1      45.158   2.168   9.489  0.00  0.00    +0.000 A 
BRANCH  10  13
ATOM     13  O   UNL     1      46.743   1.524   6.281  0.00  0.00    +0.000 OA
BRANCH  13  14
ATOM     14  C   UNL     1      47.994   2.015   5.822  0.00  0.00    +0.000 C 
ATOM     15  F   UNL     1      47.740   2.938   4.859  0.00  0.00    +0.000 F 
ATOM     16  F   UNL     1      48.604   2.670   6.839  0.00  0.00    +0.000 F 
ENDBRANCH  13  14
ENDBRANCH  10  13
ENDBRANCH   5   7
BRANCH   1  17
ATOM     17  C   UNL     1      46.190   6.361  13.540  0.00  0.00    +0.000 C 
BRANCH  17  18
ATOM     18  O   UNL     1      47.367   5.575  13.713  0.00  0.00    +0.000 OA
BRANCH  18  24
ATOM     19  C   UNL     1      48.569   6.200  15.822  0.00  0.00    +0.000 A 
ATOM     20  C   UNL     1      48.893   5.786  17.122  0.00  0.00    +0.000 A 
ATOM     21  C   UNL     1      48.453   4.558  17.632  0.00  0.00    +0.000 A 
ATOM     22  C   UNL     1      47.670   3.728  16.824  0.00  0.00    +0.000 A 
ATOM     23  C   UNL     1      47.345   4.131  15.522  0.00  0.00    +0.000 A 
ATOM     24  C   UNL     1      47.786   5.359  15.008  0.00  0.00    +0.000 A 
BRANCH  21  25
ATOM     25  C   UNL     1      48.851   4.218  19.030  0.00  0.00    +0.000 C 
ATOM     26  N   UNL     1      48.255   3.160  19.649  0.00  0.00    +0.000 N 
ATOM     27  O   UNL     1      49.699   4.875  19.628  0.00  0.00    +0.000 OA
ATOM     28  H   UNL     1      47.536   2.578  19.253  0.00  0.00    +0.000 HD
ATOM     29  H   UNL     1      48.545   2.969  20.600  0.00  0.00    +0.000 HD
ENDBRANCH  21  25
BRANCH  19  31
ATOM     30  C   UNL     1      50.171   7.537  14.642  0.00  0.00    +0.000 C 
ATOM     31  O   UNL     1      48.940   7.427  15.343  0.00  0.00    +0.000 OA
ENDBRANCH  19  31
ENDBRANCH  18  24
ENDBRANCH  17  18
ENDBRANCH   1  17
TORSDOF 8
ENDMDL
MODEL 4
REMARK VINA RESULT:    -7.182      2.511      3.215
REMARK INTER + INTRA:         -11.757
REMARK INTER:                 -10.517
REMARK INTRA:                  -1.240
REMARK UNBOUND:                -1.217
REMARK  Name = 
REMARK  9 active torsions:
REMARK  status: ('A' for Active; 'I' for Inactive)
REMARK    1  A    between atoms: C_1  and  O_2
REMARK    2  A    between atoms: O_2  and  C_3
REMARK    3  A    between atoms: C_5  and  C_6
REMARK    4  A    between atoms: C_11  and  O_12
REMARK    5  A    between atoms: O_12  and  C_13
REMARK    6  A    between atoms: C_13  and  C_14
REMARK    7  A    between atoms: C_18  and  C_19
REMARK    8  A    between atoms: C_22  and  O_23
REMARK    9  A    between atoms: O_23  and  C_24
REMARK                            x       y       z     vdW  Elec       q    Type
REMARK                         _______ _______ _______ _____ _____    ______ ____
ROOT
ATOM      1  C   UNL     1      48.707   7.322  15.029  0.00  0.00    +0.000 A 
ATOM      2  C   UNL     1      48.455   8.678  14.809  0.00  0.00    +0.000 A 
ATOM      3  C   UNL     1      47.468   9.065  13.906  0.00  0.00    +0.000 A 
ATOM      4  C   UNL     1      46.745   8.099  13.200  0.00  0.00    +0.000 A 
ATOM      5  C   UNL     1      46.993   6.726  13.365  0.00  0.00    +0.000 A 
ATOM      6  C   UNL     1      47.963   6.361  14.317  0.00  0.00    +0.000 A 
ENDROOT
BRANCH   5   7
ATOM      7  C   UNL     1      46.363   5.708  12.492  0.00  0.00    +0.000 A 
ATOM      8  C   UNL     1      46.035   4.438  13.001  0.00  0.00    +0.000 A 
ATOM      9  C   UNL     1      45.341   3.492  12.240  0.00  0.00    +0.000 A 
ATOM     10  C   UNL     1      44.930   3.807  10.949  0.00  0.00    +0.000 A 
ATOM     11  C   UNL     1      45.289   5.037  10.401  0.00  0.00    +0.000 A 
ATOM     12  C   UNL     1      45.998   5.977  11.164  0.00  0.00    +0.000 A 
BRANCH  10  13
ATOM     13  O   UNL     1      44.188   2.995  10.138  0.00  0.00    +0.000 OA
BRANCH  13  14
ATOM     14  C   UNL     1      44.900   2.415   9.054  0.00  0.00    +0.000 C 
ATOM     15  F   UNL     1      44.487   1.126   8.940  0.00  0.00    +0.000 F 
ATOM     16  F   UNL     1      44.538   3.044   7.910  0.00  0.00    +0.000 F 
ENDBRANCH  13  14
ENDBRANCH  10  13
ENDBRANCH   5   7
BRANCH   1  17
ATOM     17  C   UNL     1      49.892   6.878  15.857  0.00  0.00    +0.000 C 
BRANCH  17  18
ATOM     18  O   UNL     1      49.506   6.136  17.011  0.00  0.00    +0.000 OA
BRANCH  18  24
ATOM     19  C   UNL     1      49.465   3.630  16.952  0.00  0.00    +0.000 A 
ATOM     20  C   UNL     1      50.215   2.466  17.171  0.00  0.00    +0.000 A 
ATOM     21  C   UNL     1      51.550   2.522  17.591  0.00  0.00    +0.000 A 
ATOM     22  C   UNL     1      52.147   3.770  17.793  0.00  0.00    +0.000 A 
ATOM     23  C   UNL     1      51.404   4.938  17.581  0.00  0.00    +0.000 A 
ATOM     24  C   UNL     1      50.066   4.886  17.163  0.00  0.00    +0.000 A 
BRANCH  21  25
ATOM     25  C   UNL     1      52.258   1.223  17.789  0.00  0.00    +0.000 C 
ATOM     26  N   UNL     1      51.537   0.127  18.160  0.00  0.00    +0.000 N 
ATOM     27  O   UNL     1      53.472   1.128  17.625  0.00  0.00    +0.000 OA
ATOM     28  H   UNL     1      50.548   0.109  18.341  0.00  0.00    +0.000 HD
ATOM     29  H   UNL     1      52.056  -0.733  18.294  0.00  0.00    +0.000 HD
ENDBRANCH  21  25
BRANCH  19  31
ATOM     30  C   UNL     1      47.113   3.725  17.402  0.00  0.00    +0.000 C 
ATOM     31  O   UNL     1      48.181   3.582  16.477  0.00  0.00    +0.000 OA
ENDBRANCH  19  31
ENDBRANCH  18  24
ENDBRANCH  17  18
ENDBRANCH   1  17
TORSDOF 8
ENDMDL
MODEL 5
REMARK VINA RESULT:    -7.129      2.176      3.091
REMARK INTER + INTRA:         -11.680
REMARK INTER:                 -10.483
REMARK INTRA:                  -1.197
REMARK UNBOUND:                -1.217
REMARK  Name = 
REMARK  9 active torsions:
REMARK  status: ('A' for Active; 'I' for Inactive)
REMARK    1  A    between atoms: C_1  and  O_2
REMARK    2  A    between atoms: O_2  and  C_3
REMARK    3  A    between atoms: C_5  and  C_6
REMARK    4  A    between atoms: C_11  and  O_12
REMARK    5  A    between atoms: O_12  and  C_13
REMARK    6  A    between atoms: C_13  and  C_14
REMARK    7  A    between atoms: C_18  and  C_19
REMARK    8  A    between atoms: C_22  and  O_23
REMARK    9  A    between atoms: O_23  and  C_24
REMARK                            x       y       z     vdW  Elec       q    Type
REMARK                         _______ _______ _______ _____ _____    ______ ____
ROOT
ATOM      1  C   UNL     1      44.784   6.289  12.194  0.00  0.00    +0.000 A 
ATOM      2  C   UNL     1      43.621   5.891  12.857  0.00  0.00    +0.000 A 
ATOM      3  C   UNL     1      42.989   4.702  12.502  0.00  0.00    +0.000 A 
ATOM      4  C   UNL     1      43.501   3.917  11.465  0.00  0.00    +0.000 A 
ATOM      5  C   UNL     1      44.647   4.301  10.748  0.00  0.00    +0.000 A 
ATOM      6  C   UNL     1      45.293   5.482  11.157  0.00  0.00    +0.000 A 
ENDROOT
BRANCH   5   7
ATOM      7  C   UNL     1      45.089   3.574   9.534  0.00  0.00    +0.000 A 
ATOM      8  C   UNL     1      45.469   4.282   8.379  0.00  0.00    +0.000 A 
ATOM      9  C   UNL     1      45.995   3.637   7.255  0.00  0.00    +0.000 A 
ATOM     10  C   UNL     1      46.181   2.259   7.270  0.00  0.00    +0.000 A 
ATOM     11  C   UNL     1      45.761   1.527   8.379  0.00  0.00    +0.000 A 
ATOM     12  C   UNL     1      45.221   2.177   9.498  0.00  0.00    +0.000 A 
BRANCH  10  13
ATOM     13  O   UNL     1      46.748   1.530   6.263  0.00  0.00    +0.000 OA
BRANCH  13  14
ATOM     14  C   UNL     1      48.026   1.983   5.839  0.00  0.00    +0.000 C 
ATOM     15  F   UNL     1      47.828   2.884   4.842  0.00  0.00    +0.000 F 
ATOM     16  F   UNL     1      48.611   2.654   6.861  0.00  0.00    +0.000 F 
ENDBRANCH  13  14
ENDBRANCH  10  13
ENDBRANCH   5   7
BRANCH   1  17
ATOM     17  C   UNL     1      45.380   7.658  12.429  0.00  0.00    +0.000 C 
BRANCH  17  18
ATOM     18  O   UNL     1      46.804   7.656  12.350  0.00  0.00    +0.000 OA
BRANCH  18  24
ATOM     19  C   UNL     1      47.994   6.429  14.184  0.00  0.00    +0.000 A 
ATOM     20  C   UNL     1      48.668   6.568  15.406  0.00  0.00    +0.000 A 
ATOM     21  C   UNL     1      48.856   7.821  16.001  0.00  0.00    +0.000 A 
ATOM     22  C   UNL     1      48.363   8.960  15.358  0.00  0.00    +0.000 A 
ATOM     23  C   UNL     1      47.686   8.831  14.139  0.00  0.00    +0.000 A 
ATOM     24  C   UNL     1      47.492   7.578  13.541  0.00  0.00    +0.000 A 
BRANCH  21  25
ATOM     25  C   UNL     1      49.592   7.855  17.300  0.00  0.00    +0.000 C 
ATOM     26  N   UNL     1      49.188   7.035  18.311  0.00  0.00    +0.000 N 
ATOM     27  O   UNL     1      50.547   8.608  17.471  0.00  0.00    +0.000 OA
ATOM     28  H   UNL     1      48.405   6.403  18.276  0.00  0.00    +0.000 HD
ATOM     29  H   UNL     1      49.706   7.095  19.178  0.00  0.00    +0.000 HD
ENDBRANCH  21  25
BRANCH  19  31
ATOM     30  C   UNL     1      47.039   4.231  14.171  0.00  0.00    +0.000 C 
ATOM     31  O   UNL     1      47.865   5.215  13.565  0.00  0.00    +0.000 OA
ENDBRANCH  19  31
ENDBRANCH  18  24
ENDBRANCH  17  18
ENDBRANCH   1  17
TORSDOF 8
ENDMDL
MODEL 6
REMARK VINA RESULT:    -7.060      2.759      3.650
REMARK INTER + INTRA:         -11.579
REMARK INTER:                 -10.220
REMARK INTRA:                  -1.359
REMARK UNBOUND:                -1.217
REMARK  Name = 
REMARK  9 active torsions:
REMARK  status: ('A' for Active; 'I' for Inactive)
REMARK    1  A    between atoms: C_1  and  O_2
REMARK    2  A    between atoms: O_2  and  C_3
REMARK    3  A    between atoms: C_5  and  C_6
REMARK    4  A    between atoms: C_11  and  O_12
REMARK    5  A    between atoms: O_12  and  C_13
REMARK    6  A    between atoms: C_13  and  C_14
REMARK    7  A    between atoms: C_18  and  C_19
REMARK    8  A    between atoms: C_22  and  O_23
REMARK    9  A    between atoms: O_23  and  C_24
REMARK                            x       y       z     vdW  Elec       q    Type
REMARK                         _______ _______ _______ _____ _____    ______ ____
ROOT
ATOM      1  C   UNL     1      49.551   7.188  15.099  0.00  0.00    +0.000 A 
ATOM      2  C   UNL     1      50.451   7.763  14.198  0.00  0.00    +0.000 A 
ATOM      3  C   UNL     1      50.161   7.774  12.836  0.00  0.00    +0.000 A 
ATOM      4  C   UNL     1      48.982   7.188  12.364  0.00  0.00    +0.000 A 
ATOM      5  C   UNL     1      48.069   6.567  13.233  0.00  0.00    +0.000 A 
ATOM      6  C   UNL     1      48.364   6.611  14.609  0.00  0.00    +0.000 A 
ENDROOT
BRANCH   5   7
ATOM      7  C   UNL     1      46.916   5.787  12.726  0.00  0.00    +0.000 A 
ATOM      8  C   UNL     1      46.217   6.212  11.582  0.00  0.00    +0.000 A 
ATOM      9  C   UNL     1      45.196   5.446  11.010  0.00  0.00    +0.000 A 
ATOM     10  C   UNL     1      44.866   4.211  11.559  0.00  0.00    +0.000 A 
ATOM     11  C   UNL     1      45.504   3.792  12.725  0.00  0.00    +0.000 A 
ATOM     12  C   UNL     1      46.517   4.571  13.302  0.00  0.00    +0.000 A 
BRANCH  10  13
ATOM     13  O   UNL     1      43.939   3.346  11.049  0.00  0.00    +0.000 OA
BRANCH  13  14
ATOM     14  C   UNL     1      44.306   2.723   9.826  0.00  0.00    +0.000 C 
ATOM     15  F   UNL     1      44.134   3.638   8.837  0.00  0.00    +0.000 F 
ATOM     16  F   UNL     1      45.629   2.435   9.864  0.00  0.00    +0.000 F 
ENDBRANCH  13  14
ENDBRANCH  10  13
ENDBRANCH   5   7
BRANCH   1  17
ATOM     17  C   UNL     1      49.926   6.996  16.551  0.00  0.00    +0.000 C 
BRANCH  17  18
ATOM     18  O   UNL     1      49.214   5.922  17.162  0.00  0.00    +0.000 OA
BRANCH  18  24
ATOM     19  C   UNL     1      49.390   3.433  16.926  0.00  0.00    +0.000 A 
ATOM     20  C   UNL     1      50.225   2.321  17.104  0.00  0.00    +0.000 A 
ATOM     21  C   UNL     1      51.528   2.455  17.600  0.00  0.00    +0.000 A 
ATOM     22  C   UNL     1      52.006   3.729  17.921  0.00  0.00    +0.000 A 
ATOM     23  C   UNL     1      51.177   4.845  17.750  0.00  0.00    +0.000 A 
ATOM     24  C   UNL     1      49.871   4.715  17.256  0.00  0.00    +0.000 A 
BRANCH  21  25
ATOM     25  C   UNL     1      52.334   1.206  17.746  0.00  0.00    +0.000 C 
ATOM     26  N   UNL     1      51.734   0.086  18.238  0.00  0.00    +0.000 N 
ATOM     27  O   UNL     1      53.521   1.175  17.433  0.00  0.00    +0.000 OA
ATOM     28  H   UNL     1      50.778   0.018  18.543  0.00  0.00    +0.000 HD
ATOM     29  H   UNL     1      52.318  -0.737  18.331  0.00  0.00    +0.000 HD
ENDBRANCH  21  25
BRANCH  19  31
ATOM     30  C   UNL     1      47.023   3.246  17.255  0.00  0.00    +0.000 C 
ATOM     31  O   UNL     1      48.140   3.315  16.380  0.00  0.00    +0.000 OA
ENDBRANCH  19  31
ENDBRANCH  18  24
ENDBRANCH  17  18
ENDBRANCH   1  17
TORSDOF 8
ENDMDL
MODEL 7
REMARK VINA RESULT:    -6.815      3.052      4.798
REMARK INTER + INTRA:         -11.219
REMARK INTER:                 -10.385
REMARK INTRA:                  -0.834
REMARK UNBOUND:                -1.217
REMARK  Name = 
REMARK  9 active torsions:
REMARK  status: ('A' for Active; 'I' for Inactive)
REMARK    1  A    between atoms: C_1  and  O_2
REMARK    2  A    between atoms: O_2  and  C_3
REMARK    3  A    between atoms: C_5  and  C_6
REMARK    4  A    between atoms: C_11  and  O_12
REMARK    5  A    between atoms: O_12  and  C_13
REMARK    6  A    between atoms: C_13  and  C_14
REMARK    7  A    between atoms: C_18  and  C_19
REMARK    8  A    between atoms: C_22  and  O_23
REMARK    9  A    between atoms: O_23  and  C_24
REMARK                            x       y       z     vdW  Elec       q    Type
REMARK                         _______ _______ _______ _____ _____    ______ ____
ROOT
ATOM      1  C   UNL     1      45.070   5.859  12.564  0.00  0.00    +0.000 A 
ATOM      2  C   UNL     1      43.700   5.988  12.805  0.00  0.00    +0.000 A 
ATOM      3  C   UNL     1      42.788   5.269  12.039  0.00  0.00    +0.000 A 
ATOM      4  C   UNL     1      43.238   4.435  11.011  0.00  0.00    +0.000 A 
ATOM      5  C   UNL     1      44.605   4.306  10.712  0.00  0.00    +0.000 A 
ATOM      6  C   UNL     1      45.508   5.009  11.531  0.00  0.00    +0.000 A 
ENDROOT
BRANCH   5   7
ATOM      7  C   UNL     1      45.076   3.573   9.513  0.00  0.00    +0.000 A 
ATOM      8  C   UNL     1      45.557   4.275   8.393  0.00  0.00    +0.000 A 
ATOM      9  C   UNL     1      46.112   3.619   7.290  0.00  0.00    +0.000 A 
ATOM     10  C   UNL     1      46.225   2.232   7.293  0.00  0.00    +0.000 A 
ATOM     11  C   UNL     1      45.706   1.509   8.365  0.00  0.00    +0.000 A 
ATOM     12  C   UNL     1      45.138   2.172   9.462  0.00  0.00    +0.000 A 
BRANCH  10  13
ATOM     13  O   UNL     1      46.810   1.488   6.307  0.00  0.00    +0.000 OA
BRANCH  13  14
ATOM     14  C   UNL     1      47.975   2.062   5.732  0.00  0.00    +0.000 C 
ATOM     15  F   UNL     1      47.570   3.056   4.899  0.00  0.00    +0.000 F 
ATOM     16  F   UNL     1      48.702   2.649   6.713  0.00  0.00    +0.000 F 
ENDBRANCH  13  14
ENDBRANCH  10  13
ENDBRANCH   5   7
BRANCH   1  17
ATOM     17  C   UNL     1      46.066   6.766  13.251  0.00  0.00    +0.000 C 
BRANCH  17  18
ATOM     18  O   UNL     1      47.366   6.185  13.336  0.00  0.00    +0.000 OA
BRANCH  18  24
ATOM     19  C   UNL     1      49.514   7.291  14.004  0.00  0.00    +0.000 A 
ATOM     20  C   UNL     1      50.509   8.196  13.608  0.00  0.00    +0.000 A 
ATOM     21  C   UNL     1      50.460   8.842  12.366  0.00  0.00    +0.000 A 
ATOM     22  C   UNL     1      49.395   8.574  11.502  0.00  0.00    +0.000 A 
ATOM     23  C   UNL     1      48.394   7.674  11.891  0.00  0.00    +0.000 A 
ATOM     24  C   UNL     1      48.438   7.028  13.135  0.00  0.00    +0.000 A 
BRANCH  21  25
ATOM     25  C   UNL     1      51.574   9.782  12.042  0.00  0.00    +0.000 C 
ATOM     26  N   UNL     1      52.850   9.434  12.373  0.00  0.00    +0.000 N 
ATOM     27  O   UNL     1      51.359  10.856  11.487  0.00  0.00    +0.000 OA
ATOM     28  H   UNL     1      53.124   8.591  12.848  0.00  0.00    +0.000 HD
ATOM     29  H   UNL     1      53.575  10.104  12.145  0.00  0.00    +0.000 HD
ENDBRANCH  21  25
BRANCH  19  31
ATOM     30  C   UNL     1      48.969   7.168  16.335  0.00  0.00    +0.000 C 
ATOM     31  O   UNL     1      49.591   6.608  15.188  0.00  0.00    +0.000 OA
ENDBRANCH  19  31
ENDBRANCH  18  24
ENDBRANCH  17  18
ENDBRANCH   1  17
TORSDOF 8
ENDMDL
MODEL 8
REMARK VINA RESULT:    -6.810      3.272      4.528
REMARK INTER + INTRA:         -11.212
REMARK INTER:                 -10.040
REMARK INTRA:                  -1.172
REMARK UNBOUND:                -1.217
REMARK  Name = 
REMARK  9 active torsions:
REMARK  status: ('A' for Active; 'I' for Inactive)
REMARK    1  A    between atoms: C_1  and  O_2
REMARK    2  A    between atoms: O_2  and  C_3
REMARK    3  A    between atoms: C_5  and  C_6
REMARK    4  A    between atoms: C_11  and  O_12
REMARK    5  A    between atoms: O_12  and  C_13
REMARK    6  A    between atoms: C_13  and  C_14
REMARK    7  A    between atoms: C_18  and  C_19
REMARK    8  A    between atoms: C_22  and  O_23
REMARK    9  A    between atoms: O_23  and  C_24
REMARK                            x       y       z     vdW  Elec       q    Type
REMARK                         _______ _______ _______ _____ _____    ______ ____
ROOT
ATOM      1  C   UNL     1      48.290   5.375  16.034  0.00  0.00    +0.000 A 
ATOM      2  C   UNL     1      49.044   6.527  15.802  0.00  0.00    +0.000 A 
ATOM      3  C   UNL     1      48.833   7.277  14.648  0.00  0.00    +0.000 A 
ATOM      4  C   UNL     1      47.884   6.865  13.707  0.00  0.00    +0.000 A 
ATOM      5  C   UNL     1      47.131   5.692  13.885  0.00  0.00    +0.000 A 
ATOM      6  C   UNL     1      47.332   4.978  15.081  0.00  0.00    +0.000 A 
ENDROOT
BRANCH   5   7
ATOM      7  C   UNL     1      46.261   5.153  12.814  0.00  0.00    +0.000 A 
ATOM      8  C   UNL     1      46.039   5.893  11.638  0.00  0.00    +0.000 A 
ATOM      9  C   UNL     1      45.316   5.371  10.560  0.00  0.00    +0.000 A 
ATOM     10  C   UNL     1      44.817   4.075  10.623  0.00  0.00    +0.000 A 
ATOM     11  C   UNL     1      44.974   3.341  11.797  0.00  0.00    +0.000 A 
ATOM     12  C   UNL     1      45.688   3.874  12.880  0.00  0.00    +0.000 A 
BRANCH  10  13
ATOM     13  O   UNL     1      44.158   3.434   9.611  0.00  0.00    +0.000 OA
BRANCH  13  14
ATOM     14  C   UNL     1      44.972   2.603   8.795  0.00  0.00    +0.000 C 
ATOM     15  F   UNL     1      44.491   1.337   8.898  0.00  0.00    +0.000 F 
ATOM     16  F   UNL     1      44.817   2.976   7.502  0.00  0.00    +0.000 F 
ENDBRANCH  13  14
ENDBRANCH  10  13
ENDBRANCH   5   7
BRANCH   1  17
ATOM     17  C   UNL     1      48.627   4.445  17.178  0.00  0.00    +0.000 C 
BRANCH  17  18
ATOM     18  O   UNL     1      49.896   4.734  17.761  0.00  0.00    +0.000 OA
BRANCH  18  24
ATOM     19  C   UNL     1      52.158   3.752  18.208  0.00  0.00    +0.000 A 
ATOM     20  C   UNL     1      52.929   2.581  18.163  0.00  0.00    +0.000 A 
ATOM     21  C   UNL     1      52.391   1.365  17.722  0.00  0.00    +0.000 A 
ATOM     22  C   UNL     1      51.052   1.320  17.322  0.00  0.00    +0.000 A 
ATOM     23  C   UNL     1      50.276   2.485  17.360  0.00  0.00    +0.000 A 
ATOM     24  C   UNL     1      50.812   3.705  17.798  0.00  0.00    +0.000 A 
BRANCH  21  25
ATOM     25  C   UNL     1      53.298   0.179  17.719  0.00  0.00    +0.000 C 
ATOM     26  N   UNL     1      53.951  -0.151  16.569  0.00  0.00    +0.000 N 
ATOM     27  O   UNL     1      53.461  -0.499  18.730  0.00  0.00    +0.000 OA
ATOM     28  H   UNL     1      53.864   0.326  15.688  0.00  0.00    +0.000 HD
ATOM     29  H   UNL     1      54.548  -0.968  16.606  0.00  0.00    +0.000 HD
ENDBRANCH  21  25
BRANCH  19  31
ATOM     30  C   UNL     1      52.570   5.168  20.098  0.00  0.00    +0.000 C 
ATOM     31  O   UNL     1      52.660   4.927  18.701  0.00  0.00    +0.000 OA
ENDBRANCH  19  31
ENDBRANCH  18  24
ENDBRANCH  17  18
ENDBRANCH   1  17
TORSDOF 8
ENDMDL
MODEL 9
REMARK VINA RESULT:    -6.303      4.751      8.470
REMARK INTER + INTRA:         -10.467
REMARK INTER:                  -9.412
REMARK INTRA:                  -1.055
REMARK UNBOUND:                -1.217
REMARK  Name = 
REMARK  9 active torsions:
REMARK  status: ('A' for Active; 'I' for Inactive)
REMARK    1  A    between atoms: C_1  and  O_2
REMARK    2  A    between atoms: O_2  and  C_3
REMARK    3  A    between atoms: C_5  and  C_6
REMARK    4  A    between atoms: C_11  and  O_12
REMARK    5  A    between atoms: O_12  and  C_13
REMARK    6  A    between atoms: C_13  and  C_14
REMARK    7  A    between atoms: C_18  and  C_19
REMARK    8  A    between atoms: C_22  and  O_23
REMARK    9  A    between atoms: O_23  and  C_24
REMARK                            x       y       z     vdW  Elec       q    Type
REMARK                         _______ _______ _______ _____ _____    ______ ____
ROOT
ATOM      1  C   UNL     1      49.101   6.676  16.527  0.00  0.00    +0.000 A 
ATOM      2  C   UNL     1      48.423   7.054  17.688  0.00  0.00    +0.000 A 
ATOM      3  C   UNL     1      48.701   6.420  18.896  0.00  0.00    +0.000 A 
ATOM      4  C   UNL     1      49.642   5.386  18.945  0.00  0.00    +0.000 A 
ATOM      5  C   UNL     1      50.319   4.951  17.794  0.00  0.00    +0.000 A 
ATOM      6  C   UNL     1      50.053   5.640  16.596  0.00  0.00    +0.000 A 
ENDROOT
BRANCH   5   7
ATOM      7  C   UNL     1      51.176   3.742  17.802  0.00  0.00    +0.000 A 
ATOM      8  C   UNL     1      52.463   3.786  18.368  0.00  0.00    +0.000 A 
ATOM      9  C   UNL     1      53.257   2.641  18.494  0.00  0.00    +0.000 A 
ATOM     10  C   UNL     1      52.765   1.408  18.079  0.00  0.00    +0.000 A 
ATOM     11  C   UNL     1      51.516   1.345  17.464  0.00  0.00    +0.000 A 
ATOM     12  C   UNL     1      50.731   2.499  17.328  0.00  0.00    +0.000 A 
BRANCH  10  13
ATOM     13  O   UNL     1      53.416   0.214  18.214  0.00  0.00    +0.000 OA
BRANCH  13  14
ATOM     14  C   UNL     1      54.382  -0.061  17.209  0.00  0.00    +0.000 C 
ATOM     15  F   UNL     1      53.718  -0.184  16.031  0.00  0.00    +0.000 F 
ATOM     16  F   UNL     1      55.200   1.011  17.086  0.00  0.00    +0.000 F 
ENDBRANCH  13  14
ENDBRANCH  10  13
ENDBRANCH   5   7
BRANCH   1  17
ATOM     17  C   UNL     1      48.686   7.214  15.177  0.00  0.00    +0.000 C 
BRANCH  17  18
ATOM     18  O   UNL     1      48.608   6.195  14.183  0.00  0.00    +0.000 OA
BRANCH  18  24
ATOM     19  C   UNL     1      46.635   4.722  13.716  0.00  0.00    +0.000 A 
ATOM     20  C   UNL     1      45.370   4.656  13.114  0.00  0.00    +0.000 A 
ATOM     21  C   UNL     1      44.809   5.762  12.464  0.00  0.00    +0.000 A 
ATOM     22  C   UNL     1      45.527   6.961  12.419  0.00  0.00    +0.000 A 
ATOM     23  C   UNL     1      46.793   7.035  13.015  0.00  0.00    +0.000 A 
ATOM     24  C   UNL     1      47.359   5.928  13.664  0.00  0.00    +0.000 A 
BRANCH  21  25
ATOM     25  C   UNL     1      43.454   5.585  11.862  0.00  0.00    +0.000 C 
ATOM     26  N   UNL     1      42.809   6.672  11.352  0.00  0.00    +0.000 N 
ATOM     27  O   UNL     1      42.916   4.482  11.821  0.00  0.00    +0.000 OA
ATOM     28  H   UNL     1      43.156   7.616  11.361  0.00  0.00    +0.000 HD
ATOM     29  H   UNL     1      41.889   6.511  10.962  0.00  0.00    +0.000 HD
ENDBRANCH  21  25
BRANCH  19  31
ATOM     30  C   UNL     1      47.151   3.715  15.829  0.00  0.00    +0.000 C 
ATOM     31  O   UNL     1      47.159   3.664  14.410  0.00  0.00    +0.000 OA
ENDBRANCH  19  31
ENDBRANCH  18  24
ENDBRANCH  17  18
ENDBRANCH   1  17
TORSDOF 8
ENDMDL
