MODEL 1
REMARK VINA RESULT:    -8.925      0.000      0.000
REMARK INTER + INTRA:         -13.590
REMARK INTER:                 -12.577
REMARK INTRA:                  -1.013
REMARK UNBOUND:                -1.013
REMARK  Name = 
REMARK  10 active torsions:
REMARK  status: ('A' for Active; 'I' for Inactive)
REMARK    1  A    between atoms: C_1  and  C_2
REMARK    2  A    between atoms: C_5  and  O_6
REMARK    3  A    between atoms: O_6  and  C_7
REMARK    4  A    between atoms: C_9  and  C_10
REMARK    5  A    between atoms: C_10  and  C_11
REMARK    6  A    between atoms: C_10  and  C_12
REMARK    7  A    between atoms: C_10  and  C_13
REMARK    8  A    between atoms: C_13  and  N_14
REMARK    9  A    between atoms: C_18  and  C_19
REMARK   10  A    between atoms: C_26  and  C_27
REMARK                            x       y       z     vdW  Elec       q    Type
REMARK                         _______ _______ _______ _____ _____    ______ ____
ROOT
ATOM      1  C   UNL     1      43.551   5.081  12.065  0.00  0.00    +0.000 C 
ATOM      2  C   UNL     1      43.043   4.390  13.352  0.00  0.00    +0.000 C 
ATOM      3  C   UNL     1      42.625   6.270  11.710  0.00  0.00    +0.000 C 
ENDROOT
BRANCH   1   6
ATOM      4  C   UNL     1      47.092   5.446  13.561  0.00  0.00    +0.000 A 
ATOM      5  C   UNL     1      45.827   4.961  13.216  0.00  0.00    +0.000 A 
ATOM      6  C   UNL     1      44.973   5.645  12.324  0.00  0.00    +0.000 A 
ATOM      7  C   UNL     1      45.464   6.823  11.740  0.00  0.00    +0.000 A 
ATOM      8  C   UNL     1      46.746   7.298  12.048  0.00  0.00    +0.000 A 
ATOM      9  C   UNL     1      47.562   6.616  12.960  0.00  0.00    +0.000 A 
BRANCH   9  10
ATOM     10  C   UNL     1      48.858   7.143  13.272  0.00  0.00    +0.000 C 
ATOM     11  N   UNL     1      49.893   7.592  13.553  0.00  0.00    +0.000 NA
ENDBRANCH   9  10
BRANCH   4  12
ATOM     12  O   UNL     1      47.909   4.803  14.464  0.00  0.00    +0.000 OA
BRANCH  12  17
ATOM     13  C   UNL     1      47.235   2.939  17.458  0.00  0.00    +0.000 C 
ATOM     14  C   UNL     1      48.233   3.881  16.810  0.00  0.00    +0.000 C 
ATOM     15  N   UNL     1      48.670   4.936  17.751  0.00  0.00    +0.000 NA
ATOM     16  C   UNL     1      48.607   5.928  16.662  0.00  0.00    +0.000 C 
ATOM     17  C   UNL     1      47.656   4.986  15.881  0.00  0.00    +0.000 C 
ATOM     18  H   UNL     1      49.602   4.793  18.141  0.00  0.00    +0.000 HD
ENDBRANCH  12  17
ENDBRANCH   4  12
ENDBRANCH   1   6
BRANCH   1  19
ATOM     19  C   UNL     1      43.509   4.046  10.902  0.00  0.00    +0.000 C 
BRANCH  19  20
ATOM     20  N   UNL     1      43.816   4.632   9.597  0.00  0.00    +0.000 N 
ATOM     21  C   UNL     1      44.762   3.907   8.884  0.00  0.00    +0.000 A 
ATOM     22  N   UNL     1      44.862   2.583   9.068  0.00  0.00    +0.000 NA
ATOM     23  C   UNL     1      45.840   1.939   8.406  0.00  0.00    +0.000 A 
ATOM     24  C   UNL     1      46.711   2.564   7.549  0.00  0.00    +0.000 A 
ATOM     25  C   UNL     1      46.527   3.921   7.415  0.00  0.00    +0.000 A 
ATOM     26  N   UNL     1      45.565   4.611   8.073  0.00  0.00    +0.000 NA
ATOM     27  H   UNL     1      44.156   5.588   9.597  0.00  0.00    +0.000 HD
BRANCH  24  28
ATOM     28  C   UNL     1      47.770   1.787   6.896  0.00  0.00    +0.000 C 
ATOM     29  N   UNL     1      48.671   2.455   6.117  0.00  0.00    +0.000 N 
ATOM     30  O   UNL     1      47.825   0.573   7.028  0.00  0.00    +0.000 OA
ATOM     31  H   UNL     1      48.555   3.409   5.806  0.00  0.00    +0.000 HD
ATOM     32  H   UNL     1      49.327   1.876   5.605  0.00  0.00    +0.000 HD
ENDBRANCH  24  28
ENDBRANCH  19  20
ENDBRANCH   1  19
TORSDOF 7
ENDMDL
MODEL 2
REMARK VINA RESULT:    -6.912      1.786      2.535
REMARK INTER + INTRA:         -10.754
REMARK INTER:                 -10.042
REMARK INTRA:                  -0.713
REMARK UNBOUND:                -1.013
REMARK  Name = 
REMARK  10 active torsions:
REMARK  status: ('A' for Active; 'I' for Inactive)
REMARK    1  A    between atoms: C_1  and  C_2
REMARK    2  A    between atoms: C_5  and  O_6
REMARK    3  A    between atoms: O_6  and  C_7
REMARK    4  A    between atoms: C_9  and  C_10
REMARK    5  A    between atoms: C_10  and  C_11
REMARK    6  A    between atoms: C_10  and  C_12
REMARK    7  A    between atoms: C_10  and  C_13
REMARK    8  A    between atoms: C_13  and  N_14
REMARK    9  A    between atoms: C_18  and  C_19
REMARK   10  A    between atoms: C_26  and  C_27
REMARK                            x       y       z     vdW  Elec       q    Type
REMARK                         _______ _______ _______ _____ _____    ______ ____
ROOT
ATOM      1  C   UNL     1      43.759   5.130  11.774  0.00  0.00    +0.000 C 
ATOM      2  C   UNL     1      44.204   4.171  12.903  0.00  0.00    +0.000 C 
ATOM      3  C   UNL     1      42.323   5.636  12.056  0.00  0.00    +0.000 C 
ENDROOT
BRANCH   1   6
ATOM      4  C   UNL     1      46.992   7.224  12.025  0.00  0.00    +0.000 A 
ATOM      5  C   UNL     1      46.087   6.162  11.950  0.00  0.00    +0.000 A 
ATOM      6  C   UNL     1      44.703   6.360  11.755  0.00  0.00    +0.000 A 
ATOM      7  C   UNL     1      44.262   7.681  11.579  0.00  0.00    +0.000 A 
ATOM      8  C   UNL     1      45.166   8.751  11.612  0.00  0.00    +0.000 A 
ATOM      9  C   UNL     1      46.531   8.529  11.839  0.00  0.00    +0.000 A 
BRANCH   9  10
ATOM     10  C   UNL     1      47.424   9.648  11.892  0.00  0.00    +0.000 C 
ATOM     11  N   UNL     1      48.160  10.549  11.899  0.00  0.00    +0.000 NA
ENDBRANCH   9  10
BRANCH   4  12
ATOM     12  O   UNL     1      48.336   7.036  12.259  0.00  0.00    +0.000 OA
BRANCH  12  17
ATOM     13  C   UNL     1      49.710   8.429  15.270  0.00  0.00    +0.000 C 
ATOM     14  C   UNL     1      48.499   7.711  14.703  0.00  0.00    +0.000 C 
ATOM     15  N   UNL     1      48.049   6.621  15.596  0.00  0.00    +0.000 NA
ATOM     16  C   UNL     1      47.804   5.764  14.423  0.00  0.00    +0.000 C 
ATOM     17  C   UNL     1      48.762   6.656  13.593  0.00  0.00    +0.000 C 
ATOM     18  H   UNL     1      47.216   6.840  16.143  0.00  0.00    +0.000 HD
ENDBRANCH  12  17
ENDBRANCH   4  12
ENDBRANCH   1   6
BRANCH   1  19
ATOM     19  C   UNL     1      43.759   4.341  10.430  0.00  0.00    +0.000 C 
BRANCH  19  20
ATOM     20  N   UNL     1      44.549   3.111  10.483  0.00  0.00    +0.000 N 
ATOM     21  C   UNL     1      45.354   2.932   9.368  0.00  0.00    +0.000 A 
ATOM     22  N   UNL     1      45.817   4.001   8.704  0.00  0.00    +0.000 NA
ATOM     23  C   UNL     1      46.536   3.774   7.589  0.00  0.00    +0.000 A 
ATOM     24  C   UNL     1      46.827   2.517   7.122  0.00  0.00    +0.000 A 
ATOM     25  C   UNL     1      46.319   1.482   7.871  0.00  0.00    +0.000 A 
ATOM     26  N   UNL     1      45.580   1.665   8.992  0.00  0.00    +0.000 NA
ATOM     27  H   UNL     1      44.031   2.244  10.582  0.00  0.00    +0.000 HD
BRANCH  24  28
ATOM     28  C   UNL     1      47.588   2.364   5.877  0.00  0.00    +0.000 C 
ATOM     29  N   UNL     1      47.300   3.203   4.839  0.00  0.00    +0.000 N 
ATOM     30  O   UNL     1      48.437   1.490   5.767  0.00  0.00    +0.000 OA
ATOM     31  H   UNL     1      46.481   3.794   4.798  0.00  0.00    +0.000 HD
ATOM     32  H   UNL     1      47.775   3.005   3.966  0.00  0.00    +0.000 HD
ENDBRANCH  24  28
ENDBRANCH  19  20
ENDBRANCH   1  19
TORSDOF 7
ENDMDL
MODEL 3
REMARK VINA RESULT:    -6.730      2.270      8.202
REMARK INTER + INTRA:         -10.498
REMARK INTER:                  -9.476
REMARK INTRA:                  -1.022
REMARK UNBOUND:                -1.013
REMARK  Name = 
REMARK  10 active torsions:
REMARK  status: ('A' for Active; 'I' for Inactive)
REMARK    1  A    between atoms: C_1  and  C_2
REMARK    2  A    between atoms: C_5  and  O_6
REMARK    3  A    between atoms: O_6  and  C_7
REMARK    4  A    between atoms: C_9  and  C_10
REMARK    5  A    between atoms: C_10  and  C_11
REMARK    6  A    between atoms: C_10  and  C_12
REMARK    7  A    between atoms: C_10  and  C_13
REMARK    8  A    between atoms: C_13  and  N_14
REMARK    9  A    between atoms: C_18  and  C_19
REMARK   10  A    between atoms: C_26  and  C_27
REMARK                            x       y       z     vdW  Elec       q    Type
REMARK                         _______ _______ _______ _____ _____    ______ ____
ROOT
ATOM      1  C   UNL     1      47.383   7.814  12.514  0.00  0.00    +0.000 C 
ATOM      2  C   UNL     1      48.598   7.660  11.569  0.00  0.00    +0.000 C 
ATOM      3  C   UNL     1      46.587   9.087  12.137  0.00  0.00    +0.000 C 
ENDROOT
BRANCH   1   6
ATOM      4  C   UNL     1      45.267   5.096  10.771  0.00  0.00    +0.000 A 
ATOM      5  C   UNL     1      46.162   6.138  11.024  0.00  0.00    +0.000 A 
ATOM      6  C   UNL     1      46.444   6.593  12.331  0.00  0.00    +0.000 A 
ATOM      7  C   UNL     1      45.828   5.915  13.394  0.00  0.00    +0.000 A 
ATOM      8  C   UNL     1      44.959   4.842  13.155  0.00  0.00    +0.000 A 
ATOM      9  C   UNL     1      44.672   4.431  11.846  0.00  0.00    +0.000 A 
BRANCH   9  10
ATOM     10  C   UNL     1      43.759   3.347  11.636  0.00  0.00    +0.000 C 
ATOM     11  N   UNL     1      43.027   2.452  11.499  0.00  0.00    +0.000 NA
ENDBRANCH   9  10
BRANCH   4  12
ATOM     12  O   UNL     1      44.957   4.680   9.496  0.00  0.00    +0.000 OA
BRANCH  12  17
ATOM     13  C   UNL     1      45.528   1.274   8.511  0.00  0.00    +0.000 C 
ATOM     14  C   UNL     1      45.299   2.674   7.972  0.00  0.00    +0.000 C 
ATOM     15  N   UNL     1      46.231   2.988   6.867  0.00  0.00    +0.000 NA
ATOM     16  C   UNL     1      46.405   4.349   7.404  0.00  0.00    +0.000 C 
ATOM     17  C   UNL     1      45.912   3.850   8.785  0.00  0.00    +0.000 C 
ATOM     18  H   UNL     1      45.811   2.949   5.938  0.00  0.00    +0.000 HD
ENDBRANCH  12  17
ENDBRANCH   4  12
ENDBRANCH   1   6
BRANCH   1  19
ATOM     19  C   UNL     1      47.910   7.963  13.973  0.00  0.00    +0.000 C 
BRANCH  19  20
ATOM     20  N   UNL     1      49.277   7.470  14.146  0.00  0.00    +0.000 N 
ATOM     21  C   UNL     1      49.420   6.639  15.248  0.00  0.00    +0.000 A 
ATOM     22  N   UNL     1      48.380   5.902  15.665  0.00  0.00    +0.000 NA
ATOM     23  C   UNL     1      48.550   5.166  16.779  0.00  0.00    +0.000 A 
ATOM     24  C   UNL     1      49.727   5.123  17.482  0.00  0.00    +0.000 A 
ATOM     25  C   UNL     1      50.740   5.903  16.976  0.00  0.00    +0.000 A 
ATOM     26  N   UNL     1      50.609   6.669  15.867  0.00  0.00    +0.000 NA
ATOM     27  H   UNL     1      50.003   8.172  14.243  0.00  0.00    +0.000 HD
BRANCH  24  28
ATOM     28  C   UNL     1      49.811   4.320  18.707  0.00  0.00    +0.000 C 
ATOM     29  N   UNL     1      49.089   3.162  18.769  0.00  0.00    +0.000 N 
ATOM     30  O   UNL     1      50.489   4.694  19.654  0.00  0.00    +0.000 OA
ATOM     31  H   UNL     1      48.361   2.913  18.115  0.00  0.00    +0.000 HD
ATOM     32  H   UNL     1      49.094   2.686  19.663  0.00  0.00    +0.000 HD
ENDBRANCH  24  28
ENDBRANCH  19  20
ENDBRANCH   1  19
TORSDOF 7
ENDMDL
MODEL 4
REMARK VINA RESULT:    -6.647      2.951      4.905
REMARK INTER + INTRA:         -10.381
REMARK INTER:                  -9.334
REMARK INTRA:                  -1.046
REMARK UNBOUND:                -1.013
REMARK  Name = 
REMARK  10 active torsions:
REMARK  status: ('A' for Active; 'I' for Inactive)
REMARK    1  A    between atoms: C_1  and  C_2
REMARK    2  A    between atoms: C_5  and  O_6
REMARK    3  A    between atoms: O_6  and  C_7
REMARK    4  A    between atoms: C_9  and  C_10
REMARK    5  A    between atoms: C_10  and  C_11
REMARK    6  A    between atoms: C_10  and  C_12
REMARK    7  A    between atoms: C_10  and  C_13
REMARK    8  A    between atoms: C_13  and  N_14
REMARK    9  A    between atoms: C_18  and  C_19
REMARK   10  A    between atoms: C_26  and  C_27
REMARK                            x       y       z     vdW  Elec       q    Type
REMARK                         _______ _______ _______ _____ _____    ______ ____
ROOT
ATOM      1  C   UNL     1      48.236   8.456  12.703  0.00  0.00    +0.000 C 
ATOM      2  C   UNL     1      48.712   9.870  12.295  0.00  0.00    +0.000 C 
ATOM      3  C   UNL     1      49.100   7.388  11.989  0.00  0.00    +0.000 C 
ENDROOT
BRANCH   1   6
ATOM      4  C   UNL     1      48.934   6.759  16.100  0.00  0.00    +0.000 A 
ATOM      5  C   UNL     1      48.814   7.018  14.732  0.00  0.00    +0.000 A 
ATOM      6  C   UNL     1      48.430   8.281  14.232  0.00  0.00    +0.000 A 
ATOM      7  C   UNL     1      48.221   9.306  15.169  0.00  0.00    +0.000 A 
ATOM      8  C   UNL     1      48.377   9.069  16.541  0.00  0.00    +0.000 A 
ATOM      9  C   UNL     1      48.729   7.797  17.012  0.00  0.00    +0.000 A 
BRANCH   9  10
ATOM     10  C   UNL     1      48.854   7.582  18.423  0.00  0.00    +0.000 C 
ATOM     11  N   UNL     1      48.972   7.442  19.572  0.00  0.00    +0.000 NA
ENDBRANCH   9  10
BRANCH   4  12
ATOM     12  O   UNL     1      49.266   5.516  16.591  0.00  0.00    +0.000 OA
BRANCH  12  17
ATOM     13  C   UNL     1      48.978   1.937  16.558  0.00  0.00    +0.000 C 
ATOM     14  C   UNL     1      48.612   3.180  17.348  0.00  0.00    +0.000 C 
ATOM     15  N   UNL     1      47.206   3.134  17.808  0.00  0.00    +0.000 NA
ATOM     16  C   UNL     1      47.057   4.564  17.485  0.00  0.00    +0.000 C 
ATOM     17  C   UNL     1      48.274   4.459  16.531  0.00  0.00    +0.000 C 
ATOM     18  H   UNL     1      47.094   2.908  18.797  0.00  0.00    +0.000 HD
ENDBRANCH  12  17
ENDBRANCH   4  12
ENDBRANCH   1   6
BRANCH   1  19
ATOM     19  C   UNL     1      46.754   8.287  12.254  0.00  0.00    +0.000 C 
BRANCH  19  20
ATOM     20  N   UNL     1      45.931   7.579  13.234  0.00  0.00    +0.000 N 
ATOM     21  C   UNL     1      45.422   6.381  12.754  0.00  0.00    +0.000 A 
ATOM     22  N   UNL     1      46.103   5.694  11.826  0.00  0.00    +0.000 NA
ATOM     23  C   UNL     1      45.534   4.574  11.343  0.00  0.00    +0.000 A 
ATOM     24  C   UNL     1      44.318   4.102  11.767  0.00  0.00    +0.000 A 
ATOM     25  C   UNL     1      43.697   4.866  12.728  0.00  0.00    +0.000 A 
ATOM     26  N   UNL     1      44.226   6.006  13.232  0.00  0.00    +0.000 NA
ATOM     27  H   UNL     1      45.130   8.082  13.602  0.00  0.00    +0.000 HD
BRANCH  24  28
ATOM     28  C   UNL     1      43.757   2.891  11.159  0.00  0.00    +0.000 C 
ATOM     29  N   UNL     1      44.240   2.498   9.944  0.00  0.00    +0.000 N 
ATOM     30  O   UNL     1      42.864   2.269  11.716  0.00  0.00    +0.000 OA
ATOM     31  H   UNL     1      44.817   3.075   9.349  0.00  0.00    +0.000 HD
ATOM     32  H   UNL     1      43.763   1.715   9.511  0.00  0.00    +0.000 HD
ENDBRANCH  24  28
ENDBRANCH  19  20
ENDBRANCH   1  19
TORSDOF 7
ENDMDL
MODEL 5
REMARK VINA RESULT:    -6.473      3.293      5.895
REMARK INTER + INTRA:         -10.135
REMARK INTER:                  -8.810
REMARK INTRA:                  -1.325
REMARK UNBOUND:                -1.013
REMARK  Name = 
REMARK  10 active torsions:
REMARK  status: ('A' for Active; 'I' for Inactive)
REMARK    1  A    between atoms: C_1  and  C_2
REMARK    2  A    between atoms: C_5  and  O_6
REMARK    3  A    between atoms: O_6  and  C_7
REMARK    4  A    between atoms: C_9  and  C_10
REMARK    5  A    between atoms: C_10  and  C_11
REMARK    6  A    between atoms: C_10  and  C_12
REMARK    7  A    between atoms: C_10  and  C_13
REMARK    8  A    between atoms: C_13  and  N_14
REMARK    9  A    between atoms: C_18  and  C_19
REMARK   10  A    between atoms: C_26  and  C_27
REMARK                            x       y       z     vdW  Elec       q    Type
REMARK                         _______ _______ _______ _____ _____    ______ ____
ROOT
ATOM      1  C   UNL     1      49.292   8.479  14.817  0.00  0.00    +0.000 C 
ATOM      2  C   UNL     1      48.946   9.983  14.714  0.00  0.00    +0.000 C 
ATOM      3  C   UNL     1      50.822   8.284  14.684  0.00  0.00    +0.000 C 
ENDROOT
BRANCH   1   6
ATOM      4  C   UNL     1      48.571   6.024  17.708  0.00  0.00    +0.000 A 
ATOM      5  C   UNL     1      49.003   6.583  16.502  0.00  0.00    +0.000 A 
ATOM      6  C   UNL     1      48.865   7.958  16.214  0.00  0.00    +0.000 A 
ATOM      7  C   UNL     1      48.320   8.773  17.219  0.00  0.00    +0.000 A 
ATOM      8  C   UNL     1      47.920   8.230  18.447  0.00  0.00    +0.000 A 
ATOM      9  C   UNL     1      48.039   6.856  18.695  0.00  0.00    +0.000 A 
BRANCH   9  10
ATOM     10  C   UNL     1      47.596   6.330  19.952  0.00  0.00    +0.000 C 
ATOM     11  N   UNL     1      47.258   5.928  20.990  0.00  0.00    +0.000 NA
ENDBRANCH   9  10
BRANCH   4  12
ATOM     12  O   UNL     1      48.664   4.675  17.973  0.00  0.00    +0.000 OA
BRANCH  12  17
ATOM     13  C   UNL     1      51.241   2.242  17.396  0.00  0.00    +0.000 C 
ATOM     14  C   UNL     1      49.737   2.434  17.440  0.00  0.00    +0.000 C 
ATOM     15  N   UNL     1      49.074   1.777  16.292  0.00  0.00    +0.000 NA
ATOM     16  C   UNL     1      48.169   2.932  16.157  0.00  0.00    +0.000 C 
ATOM     17  C   UNL     1      49.186   3.799  16.941  0.00  0.00    +0.000 C 
ATOM     18  H   UNL     1      48.609   0.898  16.521  0.00  0.00    +0.000 HD
ENDBRANCH  12  17
ENDBRANCH   4  12
ENDBRANCH   1   6
BRANCH   1  19
ATOM     19  C   UNL     1      48.586   7.730  13.646  0.00  0.00    +0.000 C 
BRANCH  19  20
ATOM     20  N   UNL     1      47.132   7.898  13.648  0.00  0.00    +0.000 N 
ATOM     21  C   UNL     1      46.450   6.732  13.330  0.00  0.00    +0.000 A 
ATOM     22  N   UNL     1      46.991   5.543  13.628  0.00  0.00    +0.000 NA
ATOM     23  C   UNL     1      46.321   4.443  13.237  0.00  0.00    +0.000 A 
ATOM     24  C   UNL     1      45.121   4.486  12.575  0.00  0.00    +0.000 A 
ATOM     25  C   UNL     1      44.638   5.748  12.319  0.00  0.00    +0.000 A 
ATOM     26  N   UNL     1      45.284   6.881  12.683  0.00  0.00    +0.000 NA
ATOM     27  H   UNL     1      46.757   8.606  13.026  0.00  0.00    +0.000 HD
BRANCH  24  28
ATOM     28  C   UNL     1      44.479   3.235  12.154  0.00  0.00    +0.000 C 
ATOM     29  N   UNL     1      44.779   2.742  10.917  0.00  0.00    +0.000 N 
ATOM     30  O   UNL     1      43.678   2.668  12.884  0.00  0.00    +0.000 OA
ATOM     31  H   UNL     1      45.261   3.265  10.199  0.00  0.00    +0.000 HD
ATOM     32  H   UNL     1      44.245   1.932  10.622  0.00  0.00    +0.000 HD
ENDBRANCH  24  28
ENDBRANCH  19  20
ENDBRANCH   1  19
TORSDOF 7
ENDMDL
MODEL 6
REMARK VINA RESULT:    -6.460      3.773      6.161
REMARK INTER + INTRA:         -10.117
REMARK INTER:                  -9.181
REMARK INTRA:                  -0.936
REMARK UNBOUND:                -1.013
REMARK  Name = 
REMARK  10 active torsions:
REMARK  status: ('A' for Active; 'I' for Inactive)
REMARK    1  A    between atoms: C_1  and  C_2
REMARK    2  A    between atoms: C_5  and  O_6
REMARK    3  A    between atoms: O_6  and  C_7
REMARK    4  A    between atoms: C_9  and  C_10
REMARK    5  A    between atoms: C_10  and  C_11
REMARK    6  A    between atoms: C_10  and  C_12
REMARK    7  A    between atoms: C_10  and  C_13
REMARK    8  A    between atoms: C_13  and  N_14
REMARK    9  A    between atoms: C_18  and  C_19
REMARK   10  A    between atoms: C_26  and  C_27
REMARK                            x       y       z     vdW  Elec       q    Type
REMARK                         _______ _______ _______ _____ _____    ______ ____
ROOT
ATOM      1  C   UNL     1      48.138   4.180  16.993  0.00  0.00    +0.000 C 
ATOM      2  C   UNL     1      48.421   2.660  16.931  0.00  0.00    +0.000 C 
ATOM      3  C   UNL     1      47.494   4.536  18.355  0.00  0.00    +0.000 C 
ENDROOT
BRANCH   1   6
ATOM      4  C   UNL     1      51.883   5.014  17.421  0.00  0.00    +0.000 A 
ATOM      5  C   UNL     1      50.650   4.354  17.410  0.00  0.00    +0.000 A 
ATOM      6  C   UNL     1      49.481   4.947  16.885  0.00  0.00    +0.000 A 
ATOM      7  C   UNL     1      49.608   6.223  16.314  0.00  0.00    +0.000 A 
ATOM      8  C   UNL     1      50.847   6.877  16.284  0.00  0.00    +0.000 A 
ATOM      9  C   UNL     1      51.986   6.279  16.840  0.00  0.00    +0.000 A 
BRANCH   9  10
ATOM     10  C   UNL     1      53.232   6.987  16.815  0.00  0.00    +0.000 C 
ATOM     11  N   UNL     1      54.241   7.565  16.834  0.00  0.00    +0.000 NA
ENDBRANCH   9  10
BRANCH   4  12
ATOM     12  O   UNL     1      53.015   4.455  17.972  0.00  0.00    +0.000 OA
BRANCH  12  17
ATOM     13  C   UNL     1      52.126   0.995  17.610  0.00  0.00    +0.000 C 
ATOM     14  C   UNL     1      53.263   1.926  17.989  0.00  0.00    +0.000 C 
ATOM     15  N   UNL     1      53.960   1.460  19.208  0.00  0.00    +0.000 NA
ATOM     16  C   UNL     1      54.048   2.851  19.686  0.00  0.00    +0.000 C 
ATOM     17  C   UNL     1      52.882   3.232  18.741  0.00  0.00    +0.000 C 
ATOM     18  H   UNL     1      54.861   1.013  19.033  0.00  0.00    +0.000 HD
ENDBRANCH  12  17
ENDBRANCH   4  12
ENDBRANCH   1   6
BRANCH   1  19
ATOM     19  C   UNL     1      47.137   4.540  15.854  0.00  0.00    +0.000 C 
BRANCH  19  20
ATOM     20  N   UNL     1      47.214   3.633  14.709  0.00  0.00    +0.000 N 
ATOM     21  C   UNL     1      46.372   3.997  13.668  0.00  0.00    +0.000 A 
ATOM     22  N   UNL     1      46.063   5.289  13.484  0.00  0.00    +0.000 NA
ATOM     23  C   UNL     1      45.188   5.582  12.505  0.00  0.00    +0.000 A 
ATOM     24  C   UNL     1      44.624   4.635  11.687  0.00  0.00    +0.000 A 
ATOM     25  C   UNL     1      45.006   3.339  11.943  0.00  0.00    +0.000 A 
ATOM     26  N   UNL     1      45.873   2.997  12.927  0.00  0.00    +0.000 NA
ATOM     27  H   UNL     1      47.009   2.656  14.890  0.00  0.00    +0.000 HD
BRANCH  24  28
ATOM     28  C   UNL     1      43.651   5.043  10.668  0.00  0.00    +0.000 C 
ATOM     29  N   UNL     1      43.846   4.617   9.385  0.00  0.00    +0.000 N 
ATOM     30  O   UNL     1      42.708   5.765  10.958  0.00  0.00    +0.000 OA
ATOM     31  H   UNL     1      44.704   4.202   9.050  0.00  0.00    +0.000 HD
ATOM     32  H   UNL     1      43.212   4.997   8.692  0.00  0.00    +0.000 HD
ENDBRANCH  24  28
ENDBRANCH  19  20
ENDBRANCH   1  19
TORSDOF 7
ENDMDL
MODEL 7
REMARK VINA RESULT:    -6.449      1.747      2.100
REMARK INTER + INTRA:         -10.101
REMARK INTER:                  -9.678
REMARK INTRA:                  -0.423
REMARK UNBOUND:                -1.013
REMARK  Name = 
REMARK  10 active torsions:
REMARK  status: ('A' for Active; 'I' for Inactive)
REMARK    1  A    between atoms: C_1  and  C_2
REMARK    2  A    between atoms: C_5  and  O_6
REMARK    3  A    between atoms: O_6  and  C_7
REMARK    4  A    between atoms: C_9  and  C_10
REMARK    5  A    between atoms: C_10  and  C_11
REMARK    6  A    between atoms: C_10  and  C_12
REMARK    7  A    between atoms: C_10  and  C_13
REMARK    8  A    between atoms: C_13  and  N_14
REMARK    9  A    between atoms: C_18  and  C_19
REMARK   10  A    between atoms: C_26  and  C_27
REMARK                            x       y       z     vdW  Elec       q    Type
REMARK                         _______ _______ _______ _____ _____    ______ ____
ROOT
ATOM      1  C   UNL     1      43.893   5.814  11.870  0.00  0.00    +0.000 C 
ATOM      2  C   UNL     1      43.545   5.379  13.313  0.00  0.00    +0.000 C 
ATOM      3  C   UNL     1      42.902   6.907  11.401  0.00  0.00    +0.000 C 
ENDROOT
BRANCH   1   6
ATOM      4  C   UNL     1      46.904   8.015  12.866  0.00  0.00    +0.000 A 
ATOM      5  C   UNL     1      45.668   7.362  12.854  0.00  0.00    +0.000 A 
ATOM      6  C   UNL     1      45.318   6.425  11.858  0.00  0.00    +0.000 A 
ATOM      7  C   UNL     1      46.290   6.121  10.892  0.00  0.00    +0.000 A 
ATOM      8  C   UNL     1      47.547   6.740  10.917  0.00  0.00    +0.000 A 
ATOM      9  C   UNL     1      47.858   7.690  11.899  0.00  0.00    +0.000 A 
BRANCH   9  10
ATOM     10  C   UNL     1      49.143   8.323  11.881  0.00  0.00    +0.000 C 
ATOM     11  N   UNL     1      50.169   8.871  11.866  0.00  0.00    +0.000 NA
ENDBRANCH   9  10
BRANCH   4  12
ATOM     12  O   UNL     1      47.231   8.962  13.811  0.00  0.00    +0.000 OA
BRANCH  12  17
ATOM     13  C   UNL     1      48.593   6.153  15.584  0.00  0.00    +0.000 C 
ATOM     14  C   UNL     1      48.821   7.620  15.269  0.00  0.00    +0.000 C 
ATOM     15  N   UNL     1      49.217   8.377  16.477  0.00  0.00    +0.000 NA
ATOM     16  C   UNL     1      48.355   9.495  16.055  0.00  0.00    +0.000 C 
ATOM     17  C   UNL     1      47.558   8.519  15.153  0.00  0.00    +0.000 C 
ATOM     18  H   UNL     1      50.211   8.602  16.526  0.00  0.00    +0.000 HD
ENDBRANCH  12  17
ENDBRANCH   4  12
ENDBRANCH   1   6
BRANCH   1  19
ATOM     19  C   UNL     1      43.753   4.574  10.936  0.00  0.00    +0.000 C 
BRANCH  19  20
ATOM     20  N   UNL     1      43.940   4.895   9.521  0.00  0.00    +0.000 N 
ATOM     21  C   UNL     1      44.770   3.997   8.865  0.00  0.00    +0.000 A 
ATOM     22  N   UNL     1      44.834   2.724   9.281  0.00  0.00    +0.000 NA
ATOM     23  C   UNL     1      45.705   1.911   8.656  0.00  0.00    +0.000 A 
ATOM     24  C   UNL     1      46.502   2.317   7.615  0.00  0.00    +0.000 A 
ATOM     25  C   UNL     1      46.362   3.635   7.250  0.00  0.00    +0.000 A 
ATOM     26  N   UNL     1      45.508   4.491   7.860  0.00  0.00    +0.000 NA
ATOM     27  H   UNL     1      44.317   5.812   9.310  0.00  0.00    +0.000 HD
BRANCH  24  28
ATOM     28  C   UNL     1      47.450   1.371   7.015  0.00  0.00    +0.000 C 
ATOM     29  N   UNL     1      48.509   1.876   6.317  0.00  0.00    +0.000 N 
ATOM     30  O   UNL     1      47.278   0.165   7.119  0.00  0.00    +0.000 OA
ATOM     31  H   UNL     1      48.587   2.839   6.024  0.00  0.00    +0.000 HD
ATOM     32  H   UNL     1      49.086   1.195   5.836  0.00  0.00    +0.000 HD
ENDBRANCH  24  28
ENDBRANCH  19  20
ENDBRANCH   1  19
TORSDOF 7
ENDMDL
MODEL 8
REMARK VINA RESULT:    -6.434      3.825      6.462
REMARK INTER + INTRA:         -10.080
REMARK INTER:                  -9.183
REMARK INTRA:                  -0.897
REMARK UNBOUND:                -1.013
REMARK  Name = 
REMARK  10 active torsions:
REMARK  status: ('A' for Active; 'I' for Inactive)
REMARK    1  A    between atoms: C_1  and  C_2
REMARK    2  A    between atoms: C_5  and  O_6
REMARK    3  A    between atoms: O_6  and  C_7
REMARK    4  A    between atoms: C_9  and  C_10
REMARK    5  A    between atoms: C_10  and  C_11
REMARK    6  A    between atoms: C_10  and  C_12
REMARK    7  A    between atoms: C_10  and  C_13
REMARK    8  A    between atoms: C_13  and  N_14
REMARK    9  A    between atoms: C_18  and  C_19
REMARK   10  A    between atoms: C_26  and  C_27
REMARK                            x       y       z     vdW  Elec       q    Type
REMARK                         _______ _______ _______ _____ _____    ______ ____
ROOT
ATOM      1  C   UNL     1      48.189   4.811  16.807  0.00  0.00    +0.000 C 
ATOM      2  C   UNL     1      47.199   4.770  17.994  0.00  0.00    +0.000 C 
ATOM      3  C   UNL     1      48.704   6.257  16.606  0.00  0.00    +0.000 C 
ENDROOT
BRANCH   1   6
ATOM      4  C   UNL     1      51.766   3.786  17.835  0.00  0.00    +0.000 A 
ATOM      5  C   UNL     1      50.601   4.518  17.591  0.00  0.00    +0.000 A 
ATOM      6  C   UNL     1      49.409   3.912  17.136  0.00  0.00    +0.000 A 
ATOM      7  C   UNL     1      49.414   2.516  16.986  0.00  0.00    +0.000 A 
ATOM      8  C   UNL     1      50.565   1.767  17.265  0.00  0.00    +0.000 A 
ATOM      9  C   UNL     1      51.745   2.397  17.686  0.00  0.00    +0.000 A 
BRANCH   9  10
ATOM     10  C   UNL     1      52.911   1.604  17.938  0.00  0.00    +0.000 C 
ATOM     11  N   UNL     1      53.850   0.940  18.112  0.00  0.00    +0.000 NA
ENDBRANCH   9  10
BRANCH   4  12
ATOM     12  O   UNL     1      52.942   4.379  18.237  0.00  0.00    +0.000 OA
BRANCH  12  17
ATOM     13  C   UNL     1      52.837   7.018  15.804  0.00  0.00    +0.000 C 
ATOM     14  C   UNL     1      53.529   6.562  17.075  0.00  0.00    +0.000 C 
ATOM     15  N   UNL     1      54.994   6.752  16.991  0.00  0.00    +0.000 NA
ATOM     16  C   UNL     1      55.198   5.452  17.653  0.00  0.00    +0.000 C 
ATOM     17  C   UNL     1      53.766   5.034  17.237  0.00  0.00    +0.000 C 
ATOM     18  H   UNL     1      55.345   7.555  17.514  0.00  0.00    +0.000 HD
ENDBRANCH  12  17
ENDBRANCH   4  12
ENDBRANCH   1   6
BRANCH   1  19
ATOM     19  C   UNL     1      47.432   4.364  15.520  0.00  0.00    +0.000 C 
BRANCH  19  20
ATOM     20  N   UNL     1      46.936   5.486  14.723  0.00  0.00    +0.000 N 
ATOM     21  C   UNL     1      46.200   5.084  13.617  0.00  0.00    +0.000 A 
ATOM     22  N   UNL     1      45.517   3.931  13.656  0.00  0.00    +0.000 NA
ATOM     23  C   UNL     1      44.877   3.553  12.534  0.00  0.00    +0.000 A 
ATOM     24  C   UNL     1      44.876   4.294  11.380  0.00  0.00    +0.000 A 
ATOM     25  C   UNL     1      45.595   5.465  11.435  0.00  0.00    +0.000 A 
ATOM     26  N   UNL     1      46.265   5.878  12.538  0.00  0.00    +0.000 NA
ATOM     27  H   UNL     1      47.632   6.129  14.363  0.00  0.00    +0.000 HD
BRANCH  24  28
ATOM     28  C   UNL     1      44.179   3.787  10.192  0.00  0.00    +0.000 C 
ATOM     29  N   UNL     1      44.040   4.622   9.122  0.00  0.00    +0.000 N 
ATOM     30  O   UNL     1      43.716   2.655  10.176  0.00  0.00    +0.000 OA
ATOM     31  H   UNL     1      44.211   5.617   9.152  0.00  0.00    +0.000 HD
ATOM     32  H   UNL     1      43.470   4.273   8.360  0.00  0.00    +0.000 HD
ENDBRANCH  24  28
ENDBRANCH  19  20
ENDBRANCH   1  19
TORSDOF 7
ENDMDL
MODEL 9
REMARK VINA RESULT:    -6.366      3.660      7.868
REMARK INTER + INTRA:          -9.984
REMARK INTER:                  -8.208
REMARK INTRA:                  -1.776
REMARK UNBOUND:                -1.013
REMARK  Name = 
REMARK  10 active torsions:
REMARK  status: ('A' for Active; 'I' for Inactive)
REMARK    1  A    between atoms: C_1  and  C_2
REMARK    2  A    between atoms: C_5  and  O_6
REMARK    3  A    between atoms: O_6  and  C_7
REMARK    4  A    between atoms: C_9  and  C_10
REMARK    5  A    between atoms: C_10  and  C_11
REMARK    6  A    between atoms: C_10  and  C_12
REMARK    7  A    between atoms: C_10  and  C_13
REMARK    8  A    between atoms: C_13  and  N_14
REMARK    9  A    between atoms: C_18  and  C_19
REMARK   10  A    between atoms: C_26  and  C_27
REMARK                            x       y       z     vdW  Elec       q    Type
REMARK                         _______ _______ _______ _____ _____    ______ ____
ROOT
ATOM      1  C   UNL     1      48.900   8.105  13.102  0.00  0.00    +0.000 C 
ATOM      2  C   UNL     1      49.384   8.477  11.680  0.00  0.00    +0.000 C 
ATOM      3  C   UNL     1      48.261   9.343  13.777  0.00  0.00    +0.000 C 
ENDROOT
BRANCH   1   6
ATOM      4  C   UNL     1      46.794   4.987  13.964  0.00  0.00    +0.000 A 
ATOM      5  C   UNL     1      47.697   6.051  14.025  0.00  0.00    +0.000 A 
ATOM      6  C   UNL     1      47.810   7.007  12.992  0.00  0.00    +0.000 A 
ATOM      7  C   UNL     1      46.932   6.884  11.904  0.00  0.00    +0.000 A 
ATOM      8  C   UNL     1      45.995   5.844  11.850  0.00  0.00    +0.000 A 
ATOM      9  C   UNL     1      45.924   4.890  12.875  0.00  0.00    +0.000 A 
BRANCH   9  10
ATOM     10  C   UNL     1      44.972   3.824  12.776  0.00  0.00    +0.000 C 
ATOM     11  N   UNL     1      44.175   2.979  12.717  0.00  0.00    +0.000 NA
ENDBRANCH   9  10
BRANCH   4  12
ATOM     12  O   UNL     1      46.712   4.028  14.950  0.00  0.00    +0.000 OA
BRANCH  12  17
ATOM     13  C   UNL     1      47.011   5.285  18.300  0.00  0.00    +0.000 C 
ATOM     14  C   UNL     1      47.009   4.013  17.473  0.00  0.00    +0.000 C 
ATOM     15  N   UNL     1      48.098   3.099  17.884  0.00  0.00    +0.000 NA
ATOM     16  C   UNL     1      48.358   2.778  16.470  0.00  0.00    +0.000 C 
ATOM     17  C   UNL     1      47.647   4.092  16.058  0.00  0.00    +0.000 C 
ATOM     18  H   UNL     1      47.793   2.307  18.450  0.00  0.00    +0.000 HD
ENDBRANCH  12  17
ENDBRANCH   4  12
ENDBRANCH   1   6
BRANCH   1  19
ATOM     19  C   UNL     1      50.135   7.656  13.940  0.00  0.00    +0.000 C 
BRANCH  19  20
ATOM     20  N   UNL     1      50.244   8.350  15.223  0.00  0.00    +0.000 N 
ATOM     21  C   UNL     1      50.475   7.490  16.288  0.00  0.00    +0.000 A 
ATOM     22  N   UNL     1      51.137   6.342  16.084  0.00  0.00    +0.000 NA
ATOM     23  C   UNL     1      51.274   5.512  17.135  0.00  0.00    +0.000 A 
ATOM     24  C   UNL     1      50.791   5.794  18.388  0.00  0.00    +0.000 A 
ATOM     25  C   UNL     1      50.134   6.997  18.505  0.00  0.00    +0.000 A 
ATOM     26  N   UNL     1      49.962   7.856  17.472  0.00  0.00    +0.000 NA
ATOM     27  H   UNL     1      49.449   8.914  15.502  0.00  0.00    +0.000 HD
BRANCH  24  28
ATOM     28  C   UNL     1      50.955   4.813  19.466  0.00  0.00    +0.000 C 
ATOM     29  N   UNL     1      49.842   4.415  20.149  0.00  0.00    +0.000 N 
ATOM     30  O   UNL     1      52.063   4.387  19.759  0.00  0.00    +0.000 OA
ATOM     31  H   UNL     1      48.947   4.880  20.095  0.00  0.00    +0.000 HD
ATOM     32  H   UNL     1      50.006   3.813  20.948  0.00  0.00    +0.000 HD
ENDBRANCH  24  28
ENDBRANCH  19  20
ENDBRANCH   1  19
TORSDOF 7
ENDMDL
