MODEL 1
REMARK VINA RESULT:    -8.973      0.000      0.000
REMARK INTER + INTRA:         -13.228
REMARK INTER:                 -12.121
REMARK INTRA:                  -1.107
REMARK UNBOUND:                -1.107
REMARK  Name = 
REMARK  6 active torsions:
REMARK  status: ('A' for Active; 'I' for Inactive)
REMARK    1  A    between atoms: C_2  and  C_4
REMARK    2  A    between atoms: C_7  and  N_8
REMARK    3  A    between atoms: N_8  and  C_9
REMARK    4  A    between atoms: C_9  and  C_10
REMARK    5  A    between atoms: C_10  and  C_13
REMARK    6  A    between atoms: C_17  and  C_18
REMARK                            x       y       z     vdW  Elec       q    Type
REMARK                         _______ _______ _______ _____ _____    ______ ____
ROOT
ATOM      1  C   UNL     1      43.311   5.067  12.486  0.00  0.00    +0.000 C 
ATOM      2  F   UNL     1      42.711   6.286  12.324  0.00  0.00    +0.000 F 
ATOM      3  F   UNL     1      42.667   4.491  13.547  0.00  0.00    +0.000 F 
ENDROOT
BRANCH   1   4
ATOM      4  C   UNL     1      44.807   5.199  12.709  0.00  0.00    +0.000 A 
ATOM      5  C   UNL     1      45.517   4.099  13.212  0.00  0.00    +0.000 A 
ATOM      6  C   UNL     1      46.868   4.213  13.505  0.00  0.00    +0.000 A 
ATOM      7  C   UNL     1      47.524   5.422  13.285  0.00  0.00    +0.000 A 
ATOM      8  C   UNL     1      46.867   6.535  12.723  0.00  0.00    +0.000 A 
ATOM      9  C   UNL     1      45.491   6.410  12.462  0.00  0.00    +0.000 A 
BRANCH   8  10
ATOM     10  C   UNL     1      47.697   7.796  12.452  0.00  0.00    +0.000 C 
ATOM     11  C   UNL     1      49.190   7.797  12.845  0.00  0.00    +0.000 C 
ATOM     12  C   UNL     1      49.435   8.019  14.342  0.00  0.00    +0.000 C 
ATOM     13  C   UNL     1      48.553   9.102  14.968  0.00  0.00    +0.000 C 
ATOM     14  N   UNL     1      47.158   9.020  14.546  0.00  0.00    +0.000 NA
ATOM     15  C   UNL     1      47.057   9.056  13.086  0.00  0.00    +0.000 C 
ATOM     16  H   UNL     1      46.628   9.790  14.950  0.00  0.00    +0.000 HD
ENDBRANCH   8  10
ENDBRANCH   1   4
BRANCH   1  17
ATOM     17  C   UNL     1      43.033   4.203  11.224  0.00  0.00    +0.000 C 
BRANCH  17  18
ATOM     18  N   UNL     1      43.715   4.694  10.011  0.00  0.00    +0.000 N 
ATOM     19  H   UNL     1      43.174   5.367   9.469  0.00  0.00    +0.000 HD
BRANCH  18  23
ATOM     20  C   UNL     1      46.385   2.308   7.778  0.00  0.00    +0.000 A 
ATOM     21  C   UNL     1      45.509   1.701   8.679  0.00  0.00    +0.000 A 
ATOM     22  C   UNL     1      44.608   2.479   9.415  0.00  0.00    +0.000 A 
ATOM     23  C   UNL     1      44.536   3.868   9.249  0.00  0.00    +0.000 A 
ATOM     24  C   UNL     1      45.448   4.461   8.366  0.00  0.00    +0.000 A 
ATOM     25  C   UNL     1      46.365   3.697   7.634  0.00  0.00    +0.000 A 
BRANCH  20  27
ATOM     26  N   UNL     1      48.460   2.188   6.511  0.00  0.00    +0.000 N 
ATOM     27  C   UNL     1      47.371   1.517   6.985  0.00  0.00    +0.000 C 
ATOM     28  O   UNL     1      47.232   0.307   6.809  0.00  0.00    +0.000 OA
ATOM     29  H   UNL     1      49.177   1.611   6.075  0.00  0.00    +0.000 HD
ATOM     30  H   UNL     1      48.732   3.095   6.853  0.00  0.00    +0.000 HD
ENDBRANCH  20  27
ENDBRANCH  18  23
ENDBRANCH  17  18
ENDBRANCH   1  17
TORSDOF 6
ENDMDL
MODEL 2
REMARK VINA RESULT:    -8.364      1.575      2.278
REMARK INTER + INTRA:         -12.405
REMARK INTER:                 -11.214
REMARK INTRA:                  -1.191
REMARK UNBOUND:                -1.107
REMARK  Name = 
REMARK  6 active torsions:
REMARK  status: ('A' for Active; 'I' for Inactive)
REMARK    1  A    between atoms: C_2  and  C_4
REMARK    2  A    between atoms: C_7  and  N_8
REMARK    3  A    between atoms: N_8  and  C_9
REMARK    4  A    between atoms: C_9  and  C_10
REMARK    5  A    between atoms: C_10  and  C_13
REMARK    6  A    between atoms: C_17  and  C_18
REMARK                            x       y       z     vdW  Elec       q    Type
REMARK                         _______ _______ _______ _____ _____    ______ ____
ROOT
ATOM      1  C   UNL     1      44.161   4.456  12.456  0.00  0.00    +0.000 C 
ATOM      2  F   UNL     1      43.327   4.298  13.530  0.00  0.00    +0.000 F 
ATOM      3  F   UNL     1      45.145   3.522  12.630  0.00  0.00    +0.000 F 
ENDROOT
BRANCH   1   4
ATOM      4  C   UNL     1      44.704   5.871  12.367  0.00  0.00    +0.000 A 
ATOM      5  C   UNL     1      44.072   6.787  11.512  0.00  0.00    +0.000 A 
ATOM      6  C   UNL     1      44.593   8.061  11.345  0.00  0.00    +0.000 A 
ATOM      7  C   UNL     1      45.740   8.437  12.039  0.00  0.00    +0.000 A 
ATOM      8  C   UNL     1      46.373   7.572  12.955  0.00  0.00    +0.000 A 
ATOM      9  C   UNL     1      45.850   6.274  13.088  0.00  0.00    +0.000 A 
BRANCH   8  10
ATOM     10  C   UNL     1      47.588   8.107  13.724  0.00  0.00    +0.000 C 
ATOM     11  C   UNL     1      48.345   9.326  13.154  0.00  0.00    +0.000 C 
ATOM     12  C   UNL     1      49.292   8.981  12.000  0.00  0.00    +0.000 C 
ATOM     13  C   UNL     1      50.103   7.700  12.215  0.00  0.00    +0.000 C 
ATOM     14  N   UNL     1      49.305   6.601  12.748  0.00  0.00    +0.000 NA
ATOM     15  C   UNL     1      48.637   7.000  13.989  0.00  0.00    +0.000 C 
ATOM     16  H   UNL     1      49.900   5.792  12.920  0.00  0.00    +0.000 HD
ENDBRANCH   8  10
ENDBRANCH   1   4
BRANCH   1  17
ATOM     17  C   UNL     1      43.378   4.100  11.162  0.00  0.00    +0.000 C 
BRANCH  17  18
ATOM     18  N   UNL     1      43.768   2.804  10.574  0.00  0.00    +0.000 N 
ATOM     19  H   UNL     1      43.898   2.057  11.254  0.00  0.00    +0.000 HD
BRANCH  18  23
ATOM     20  C   UNL     1      46.443   2.737   7.310  0.00  0.00    +0.000 A 
ATOM     21  C   UNL     1      46.171   1.555   8.001  0.00  0.00    +0.000 A 
ATOM     22  C   UNL     1      45.275   1.560   9.076  0.00  0.00    +0.000 A 
ATOM     23  C   UNL     1      44.607   2.728   9.466  0.00  0.00    +0.000 A 
ATOM     24  C   UNL     1      44.921   3.911   8.781  0.00  0.00    +0.000 A 
ATOM     25  C   UNL     1      45.827   3.923   7.714  0.00  0.00    +0.000 A 
BRANCH  20  27
ATOM     26  N   UNL     1      48.692   2.419   6.434  0.00  0.00    +0.000 N 
ATOM     27  C   UNL     1      47.403   2.777   6.169  0.00  0.00    +0.000 C 
ATOM     28  O   UNL     1      47.037   3.073   5.031  0.00  0.00    +0.000 OA
ATOM     29  H   UNL     1      49.302   2.340   5.623  0.00  0.00    +0.000 HD
ATOM     30  H   UNL     1      48.959   1.928   7.272  0.00  0.00    +0.000 HD
ENDBRANCH  20  27
ENDBRANCH  18  23
ENDBRANCH  17  18
ENDBRANCH   1  17
TORSDOF 6
ENDMDL
MODEL 3
REMARK VINA RESULT:    -8.298      2.097      2.830
REMARK INTER + INTRA:         -12.316
REMARK INTER:                 -11.325
REMARK INTRA:                  -0.990
REMARK UNBOUND:                -1.107
REMARK  Name = 
REMARK  6 active torsions:
REMARK  status: ('A' for Active; 'I' for Inactive)
REMARK    1  A    between atoms: C_2  and  C_4
REMARK    2  A    between atoms: C_7  and  N_8
REMARK    3  A    between atoms: N_8  and  C_9
REMARK    4  A    between atoms: C_9  and  C_10
REMARK    5  A    between atoms: C_10  and  C_13
REMARK    6  A    between atoms: C_17  and  C_18
REMARK                            x       y       z     vdW  Elec       q    Type
REMARK                         _______ _______ _______ _____ _____    ______ ____
ROOT
ATOM      1  C   UNL     1      44.437   4.548  12.698  0.00  0.00    +0.000 C 
ATOM      2  F   UNL     1      43.323   4.731  13.472  0.00  0.00    +0.000 F 
ATOM      3  F   UNL     1      44.642   3.195  12.684  0.00  0.00    +0.000 F 
ENDROOT
BRANCH   1   4
ATOM      4  C   UNL     1      45.632   5.316  13.237  0.00  0.00    +0.000 A 
ATOM      5  C   UNL     1      45.928   6.575  12.694  0.00  0.00    +0.000 A 
ATOM      6  C   UNL     1      47.059   7.265  13.106  0.00  0.00    +0.000 A 
ATOM      7  C   UNL     1      47.895   6.710  14.072  0.00  0.00    +0.000 A 
ATOM      8  C   UNL     1      47.603   5.478  14.690  0.00  0.00    +0.000 A 
ATOM      9  C   UNL     1      46.471   4.778  14.238  0.00  0.00    +0.000 A 
BRANCH   8  10
ATOM     10  C   UNL     1      48.548   4.989  15.795  0.00  0.00    +0.000 C 
ATOM     11  C   UNL     1      48.143   3.748  16.619  0.00  0.00    +0.000 C 
ATOM     12  C   UNL     1      47.104   4.040  17.707  0.00  0.00    +0.000 C 
ATOM     13  C   UNL     1      47.357   5.335  18.484  0.00  0.00    +0.000 C 
ATOM     14  N   UNL     1      47.727   6.455  17.625  0.00  0.00    +0.000 NA
ATOM     15  C   UNL     1      48.890   6.114  16.803  0.00  0.00    +0.000 C 
ATOM     16  H   UNL     1      47.933   7.274  18.194  0.00  0.00    +0.000 HD
ENDBRANCH   8  10
ENDBRANCH   1   4
BRANCH   1  17
ATOM     17  C   UNL     1      44.117   5.005  11.248  0.00  0.00    +0.000 C 
BRANCH  17  18
ATOM     18  N   UNL     1      43.759   3.893  10.345  0.00  0.00    +0.000 N 
ATOM     19  H   UNL     1      43.192   3.167  10.779  0.00  0.00    +0.000 HD
BRANCH  18  23
ATOM     20  C   UNL     1      46.586   2.637   7.473  0.00  0.00    +0.000 A 
ATOM     21  C   UNL     1      45.947   1.687   8.273  0.00  0.00    +0.000 A 
ATOM     22  C   UNL     1      44.997   2.088   9.218  0.00  0.00    +0.000 A 
ATOM     23  C   UNL     1      44.639   3.434   9.369  0.00  0.00    +0.000 A 
ATOM     24  C   UNL     1      45.317   4.375   8.581  0.00  0.00    +0.000 A 
ATOM     25  C   UNL     1      46.280   3.989   7.642  0.00  0.00    +0.000 A 
BRANCH  20  27
ATOM     26  N   UNL     1      47.626   2.958   5.296  0.00  0.00    +0.000 N 
ATOM     27  C   UNL     1      47.615   2.253   6.464  0.00  0.00    +0.000 C 
ATOM     28  O   UNL     1      48.446   1.375   6.695  0.00  0.00    +0.000 OA
ATOM     29  H   UNL     1      48.406   2.762   4.671  0.00  0.00    +0.000 HD
ATOM     30  H   UNL     1      47.146   3.837   5.186  0.00  0.00    +0.000 HD
ENDBRANCH  20  27
ENDBRANCH  18  23
ENDBRANCH  17  18
ENDBRANCH   1  17
TORSDOF 6
ENDMDL
MODEL 4
REMARK VINA RESULT:    -7.776      1.384      2.154
REMARK INTER + INTRA:         -11.611
REMARK INTER:                 -10.787
REMARK INTRA:                  -0.824
REMARK UNBOUND:                -1.107
REMARK  Name = 
REMARK  6 active torsions:
REMARK  status: ('A' for Active; 'I' for Inactive)
REMARK    1  A    between atoms: C_2  and  C_4
REMARK    2  A    between atoms: C_7  and  N_8
REMARK    3  A    between atoms: N_8  and  C_9
REMARK    4  A    between atoms: C_9  and  C_10
REMARK    5  A    between atoms: C_10  and  C_13
REMARK    6  A    between atoms: C_17  and  C_18
REMARK                            x       y       z     vdW  Elec       q    Type
REMARK                         _______ _______ _______ _____ _____    ______ ____
ROOT
ATOM      1  C   UNL     1      45.095   4.873  12.557  0.00  0.00    +0.000 C 
ATOM      2  F   UNL     1      44.352   5.038  13.694  0.00  0.00    +0.000 F 
ATOM      3  F   UNL     1      45.427   3.546  12.539  0.00  0.00    +0.000 F 
ENDROOT
BRANCH   1   4
ATOM      4  C   UNL     1      46.311   5.783  12.539  0.00  0.00    +0.000 A 
ATOM      5  C   UNL     1      46.600   6.504  11.372  0.00  0.00    +0.000 A 
ATOM      6  C   UNL     1      47.748   7.279  11.295  0.00  0.00    +0.000 A 
ATOM      7  C   UNL     1      48.608   7.351  12.388  0.00  0.00    +0.000 A 
ATOM      8  C   UNL     1      48.327   6.694  13.602  0.00  0.00    +0.000 A 
ATOM      9  C   UNL     1      47.176   5.888  13.651  0.00  0.00    +0.000 A 
BRANCH   8  10
ATOM     10  C   UNL     1      49.301   6.897  14.770  0.00  0.00    +0.000 C 
ATOM     11  C   UNL     1      48.735   7.332  16.138  0.00  0.00    +0.000 C 
ATOM     12  C   UNL     1      48.403   8.826  16.223  0.00  0.00    +0.000 C 
ATOM     13  C   UNL     1      49.454   9.739  15.585  0.00  0.00    +0.000 C 
ATOM     14  N   UNL     1      49.926   9.253  14.293  0.00  0.00    +0.000 NA
ATOM     15  C   UNL     1      50.436   7.886  14.409  0.00  0.00    +0.000 C 
ATOM     16  H   UNL     1      50.657   9.867  13.938  0.00  0.00    +0.000 HD
ENDBRANCH   8  10
ENDBRANCH   1   4
BRANCH   1  17
ATOM     17  C   UNL     1      44.191   5.163  11.326  0.00  0.00    +0.000 C 
BRANCH  17  18
ATOM     18  N   UNL     1      43.847   3.956  10.550  0.00  0.00    +0.000 N 
ATOM     19  H   UNL     1      43.397   3.222  11.095  0.00  0.00    +0.000 HD
BRANCH  18  23
ATOM     20  C   UNL     1      46.479   2.689   7.504  0.00  0.00    +0.000 A 
ATOM     21  C   UNL     1      45.873   1.740   8.329  0.00  0.00    +0.000 A 
ATOM     22  C   UNL     1      44.987   2.145   9.333  0.00  0.00    +0.000 A 
ATOM     23  C   UNL     1      44.659   3.494   9.519  0.00  0.00    +0.000 A 
ATOM     24  C   UNL     1      45.305   4.434   8.703  0.00  0.00    +0.000 A 
ATOM     25  C   UNL     1      46.205   4.043   7.704  0.00  0.00    +0.000 A 
BRANCH  20  27
ATOM     26  N   UNL     1      47.334   2.958   5.241  0.00  0.00    +0.000 N 
ATOM     27  C   UNL     1      47.440   2.300   6.431  0.00  0.00    +0.000 C 
ATOM     28  O   UNL     1      48.319   1.461   6.628  0.00  0.00    +0.000 OA
ATOM     29  H   UNL     1      48.070   2.765   4.564  0.00  0.00    +0.000 HD
ATOM     30  H   UNL     1      46.815   3.814   5.136  0.00  0.00    +0.000 HD
ENDBRANCH  20  27
ENDBRANCH  18  23
ENDBRANCH  17  18
ENDBRANCH   1  17
TORSDOF 6
ENDMDL
MODEL 5
REMARK VINA RESULT:    -7.504      1.445      2.424
REMARK INTER + INTRA:         -11.243
REMARK INTER:                 -10.539
REMARK INTRA:                  -0.704
REMARK UNBOUND:                -1.107
REMARK  Name = 
REMARK  6 active torsions:
REMARK  status: ('A' for Active; 'I' for Inactive)
REMARK    1  A    between atoms: C_2  and  C_4
REMARK    2  A    between atoms: C_7  and  N_8
REMARK    3  A    between atoms: N_8  and  C_9
REMARK    4  A    between atoms: C_9  and  C_10
REMARK    5  A    between atoms: C_10  and  C_13
REMARK    6  A    between atoms: C_17  and  C_18
REMARK                            x       y       z     vdW  Elec       q    Type
REMARK                         _______ _______ _______ _____ _____    ______ ____
ROOT
ATOM      1  C   UNL     1      44.031   6.778  11.825  0.00  0.00    +0.000 C 
ATOM      2  F   UNL     1      42.895   6.949  11.080  0.00  0.00    +0.000 F 
ATOM      3  F   UNL     1      43.591   6.373  13.055  0.00  0.00    +0.000 F 
ENDROOT
BRANCH   1   4
ATOM      4  C   UNL     1      44.862   8.048  11.888  0.00  0.00    +0.000 A 
ATOM      5  C   UNL     1      44.295   9.251  11.443  0.00  0.00    +0.000 A 
ATOM      6  C   UNL     1      45.055  10.412  11.410  0.00  0.00    +0.000 A 
ATOM      7  C   UNL     1      46.381  10.383  11.834  0.00  0.00    +0.000 A 
ATOM      8  C   UNL     1      46.974   9.211  12.347  0.00  0.00    +0.000 A 
ATOM      9  C   UNL     1      46.199   8.038  12.343  0.00  0.00    +0.000 A 
BRANCH   8  10
ATOM     10  C   UNL     1      48.418   9.303  12.856  0.00  0.00    +0.000 C 
ATOM     11  C   UNL     1      49.264   8.013  12.912  0.00  0.00    +0.000 C 
ATOM     12  C   UNL     1      48.950   7.119  14.117  0.00  0.00    +0.000 C 
ATOM     13  C   UNL     1      48.761   7.883  15.431  0.00  0.00    +0.000 C 
ATOM     14  N   UNL     1      47.943   9.082  15.284  0.00  0.00    +0.000 NA
ATOM     15  C   UNL     1      48.497   9.963  14.254  0.00  0.00    +0.000 C 
ATOM     16  H   UNL     1      47.892   9.577  16.172  0.00  0.00    +0.000 HD
ENDBRANCH   8  10
ENDBRANCH   1   4
BRANCH   1  17
ATOM     17  C   UNL     1      44.864   5.623  11.203  0.00  0.00    +0.000 C 
BRANCH  17  18
ATOM     18  N   UNL     1      44.197   4.959  10.066  0.00  0.00    +0.000 N 
ATOM     19  H   UNL     1      43.215   4.739  10.227  0.00  0.00    +0.000 HD
BRANCH  18  23
ATOM     20  C   UNL     1      46.429   2.298   7.669  0.00  0.00    +0.000 A 
ATOM     21  C   UNL     1      45.572   1.790   8.647  0.00  0.00    +0.000 A 
ATOM     22  C   UNL     1      44.815   2.661   9.438  0.00  0.00    +0.000 A 
ATOM     23  C   UNL     1      44.868   4.048   9.256  0.00  0.00    +0.000 A 
ATOM     24  C   UNL     1      45.761   4.540   8.293  0.00  0.00    +0.000 A 
ATOM     25  C   UNL     1      46.535   3.681   7.504  0.00  0.00    +0.000 A 
BRANCH  20  27
ATOM     26  N   UNL     1      48.319   1.981   6.168  0.00  0.00    +0.000 N 
ATOM     27  C   UNL     1      47.264   1.406   6.813  0.00  0.00    +0.000 C 
ATOM     28  O   UNL     1      47.040   0.198   6.734  0.00  0.00    +0.000 OA
ATOM     29  H   UNL     1      48.944   1.338   5.686  0.00  0.00    +0.000 HD
ATOM     30  H   UNL     1      48.680   2.888   6.416  0.00  0.00    +0.000 HD
ENDBRANCH  20  27
ENDBRANCH  18  23
ENDBRANCH  17  18
ENDBRANCH   1  17
TORSDOF 6
ENDMDL
MODEL 6
REMARK VINA RESULT:    -6.966      3.502      5.612
REMARK INTER + INTRA:         -10.516
REMARK INTER:                  -9.286
REMARK INTRA:                  -1.230
REMARK UNBOUND:                -1.107
REMARK  Name = 
REMARK  6 active torsions:
REMARK  status: ('A' for Active; 'I' for Inactive)
REMARK    1  A    between atoms: C_2  and  C_4
REMARK    2  A    between atoms: C_7  and  N_8
REMARK    3  A    between atoms: N_8  and  C_9
REMARK    4  A    between atoms: C_9  and  C_10
REMARK    5  A    between atoms: C_10  and  C_13
REMARK    6  A    between atoms: C_17  and  C_18
REMARK                            x       y       z     vdW  Elec       q    Type
REMARK                         _______ _______ _______ _____ _____    ______ ____
ROOT
ATOM      1  C   UNL     1      48.768   7.620  13.264  0.00  0.00    +0.000 C 
ATOM      2  F   UNL     1      48.970   6.327  12.864  0.00  0.00    +0.000 F 
ATOM      3  F   UNL     1      49.802   8.329  12.714  0.00  0.00    +0.000 F 
ENDROOT
BRANCH   1   4
ATOM      4  C   UNL     1      48.713   7.742  14.777  0.00  0.00    +0.000 A 
ATOM      5  C   UNL     1      48.492   9.004  15.348  0.00  0.00    +0.000 A 
ATOM      6  C   UNL     1      48.519   9.163  16.726  0.00  0.00    +0.000 A 
ATOM      7  C   UNL     1      48.752   8.061  17.545  0.00  0.00    +0.000 A 
ATOM      8  C   UNL     1      48.916   6.764  17.019  0.00  0.00    +0.000 A 
ATOM      9  C   UNL     1      48.918   6.627  15.620  0.00  0.00    +0.000 A 
BRANCH   8  10
ATOM     10  C   UNL     1      49.094   5.606  18.010  0.00  0.00    +0.000 C 
ATOM     11  C   UNL     1      49.597   4.247  17.476  0.00  0.00    +0.000 C 
ATOM     12  C   UNL     1      48.514   3.417  16.779  0.00  0.00    +0.000 C 
ATOM     13  C   UNL     1      47.161   3.422  17.497  0.00  0.00    +0.000 C 
ATOM     14  N   UNL     1      46.763   4.747  17.959  0.00  0.00    +0.000 NA
ATOM     15  C   UNL     1      47.800   5.330  18.814  0.00  0.00    +0.000 C 
ATOM     16  H   UNL     1      45.885   4.686  18.472  0.00  0.00    +0.000 HD
ENDBRANCH   8  10
ENDBRANCH   1   4
BRANCH   1  17
ATOM     17  C   UNL     1      47.442   8.134  12.637  0.00  0.00    +0.000 C 
BRANCH  17  18
ATOM     18  N   UNL     1      46.233   7.577  13.276  0.00  0.00    +0.000 N 
ATOM     19  H   UNL     1      46.197   7.704  14.287  0.00  0.00    +0.000 HD
BRANCH  18  23
ATOM     20  C   UNL     1      44.550   4.044  11.697  0.00  0.00    +0.000 A 
ATOM     21  C   UNL     1      45.254   3.992  12.901  0.00  0.00    +0.000 A 
ATOM     22  C   UNL     1      45.805   5.159  13.443  0.00  0.00    +0.000 A 
ATOM     23  C   UNL     1      45.641   6.403  12.821  0.00  0.00    +0.000 A 
ATOM     24  C   UNL     1      44.961   6.427  11.595  0.00  0.00    +0.000 A 
ATOM     25  C   UNL     1      44.418   5.266  11.033  0.00  0.00    +0.000 A 
BRANCH  20  27
ATOM     26  N   UNL     1      44.614   2.301   9.999  0.00  0.00    +0.000 N 
ATOM     27  C   UNL     1      43.960   2.822  11.077  0.00  0.00    +0.000 C 
ATOM     28  O   UNL     1      42.958   2.282  11.546  0.00  0.00    +0.000 OA
ATOM     29  H   UNL     1      44.265   1.404   9.664  0.00  0.00    +0.000 HD
ATOM     30  H   UNL     1      45.559   2.555   9.760  0.00  0.00    +0.000 HD
ENDBRANCH  20  27
ENDBRANCH  18  23
ENDBRANCH  17  18
ENDBRANCH   1  17
TORSDOF 6
ENDMDL
MODEL 7
REMARK VINA RESULT:    -6.933      4.249      7.532
REMARK INTER + INTRA:         -10.472
REMARK INTER:                  -9.132
REMARK INTRA:                  -1.340
REMARK UNBOUND:                -1.107
REMARK  Name = 
REMARK  6 active torsions:
REMARK  status: ('A' for Active; 'I' for Inactive)
REMARK    1  A    between atoms: C_2  and  C_4
REMARK    2  A    between atoms: C_7  and  N_8
REMARK    3  A    between atoms: N_8  and  C_9
REMARK    4  A    between atoms: C_9  and  C_10
REMARK    5  A    between atoms: C_10  and  C_13
REMARK    6  A    between atoms: C_17  and  C_18
REMARK                            x       y       z     vdW  Elec       q    Type
REMARK                         _______ _______ _______ _____ _____    ______ ____
ROOT
ATOM      1  C   UNL     1      49.119   8.308  12.063  0.00  0.00    +0.000 C 
ATOM      2  F   UNL     1      49.385   9.621  12.345  0.00  0.00    +0.000 F 
ATOM      3  F   UNL     1      49.782   8.055  10.893  0.00  0.00    +0.000 F 
ENDROOT
BRANCH   1   4
ATOM      4  C   UNL     1      47.628   8.042  11.962  0.00  0.00    +0.000 A 
ATOM      5  C   UNL     1      46.732   9.072  12.286  0.00  0.00    +0.000 A 
ATOM      6  C   UNL     1      45.365   8.836  12.284  0.00  0.00    +0.000 A 
ATOM      7  C   UNL     1      44.881   7.576  11.944  0.00  0.00    +0.000 A 
ATOM      8  C   UNL     1      45.739   6.529  11.551  0.00  0.00    +0.000 A 
ATOM      9  C   UNL     1      47.122   6.777  11.590  0.00  0.00    +0.000 A 
BRANCH   8  10
ATOM     10  C   UNL     1      45.101   5.201  11.124  0.00  0.00    +0.000 C 
ATOM     11  C   UNL     1      43.583   5.167  10.844  0.00  0.00    +0.000 C 
ATOM     12  C   UNL     1      42.721   5.116  12.110  0.00  0.00    +0.000 C 
ATOM     13  C   UNL     1      43.248   4.167  13.189  0.00  0.00    +0.000 C 
ATOM     14  N   UNL     1      44.689   4.273  13.392  0.00  0.00    +0.000 NA
ATOM     15  C   UNL     1      45.404   4.065  12.131  0.00  0.00    +0.000 C 
ATOM     16  H   UNL     1      44.993   3.587  14.080  0.00  0.00    +0.000 HD
ENDBRANCH   8  10
ENDBRANCH   1   4
BRANCH   1  17
ATOM     17  C   UNL     1      49.746   7.423  13.176  0.00  0.00    +0.000 C 
BRANCH  17  18
ATOM     18  N   UNL     1      49.244   7.733  14.529  0.00  0.00    +0.000 N 
ATOM     19  H   UNL     1      49.722   8.508  14.986  0.00  0.00    +0.000 HD
BRANCH  18  23
ATOM     20  C   UNL     1      47.989   4.546  16.995  0.00  0.00    +0.000 A 
ATOM     21  C   UNL     1      48.905   5.478  17.487  0.00  0.00    +0.000 A 
ATOM     22  C   UNL     1      49.318   6.547  16.685  0.00  0.00    +0.000 A 
ATOM     23  C   UNL     1      48.809   6.733  15.394  0.00  0.00    +0.000 A 
ATOM     24  C   UNL     1      47.918   5.767  14.906  0.00  0.00    +0.000 A 
ATOM     25  C   UNL     1      47.506   4.684  15.691  0.00  0.00    +0.000 A 
BRANCH  20  27
ATOM     26  N   UNL     1      48.274   3.077  18.914  0.00  0.00    +0.000 N 
ATOM     27  C   UNL     1      47.534   3.383  17.810  0.00  0.00    +0.000 C 
ATOM     28  O   UNL     1      46.509   2.761  17.528  0.00  0.00    +0.000 OA
ATOM     29  H   UNL     1      47.884   2.358  19.521  0.00  0.00    +0.000 HD
ATOM     30  H   UNL     1      48.946   3.712  19.313  0.00  0.00    +0.000 HD
ENDBRANCH  20  27
ENDBRANCH  18  23
ENDBRANCH  17  18
ENDBRANCH   1  17
TORSDOF 6
ENDMDL
MODEL 8
REMARK VINA RESULT:    -6.701      4.146      6.431
REMARK INTER + INTRA:         -10.159
REMARK INTER:                  -8.527
REMARK INTRA:                  -1.633
REMARK UNBOUND:                -1.107
REMARK  Name = 
REMARK  6 active torsions:
REMARK  status: ('A' for Active; 'I' for Inactive)
REMARK    1  A    between atoms: C_2  and  C_4
REMARK    2  A    between atoms: C_7  and  N_8
REMARK    3  A    between atoms: N_8  and  C_9
REMARK    4  A    between atoms: C_9  and  C_10
REMARK    5  A    between atoms: C_10  and  C_13
REMARK    6  A    between atoms: C_17  and  C_18
REMARK                            x       y       z     vdW  Elec       q    Type
REMARK                         _______ _______ _______ _____ _____    ______ ____
ROOT
ATOM      1  C   UNL     1      49.412   8.710  14.162  0.00  0.00    +0.000 C 
ATOM      2  F   UNL     1      50.619   9.354  14.133  0.00  0.00    +0.000 F 
ATOM      3  F   UNL     1      48.553   9.535  13.488  0.00  0.00    +0.000 F 
ENDROOT
BRANCH   1   4
ATOM      4  C   UNL     1      48.958   8.426  15.583  0.00  0.00    +0.000 A 
ATOM      5  C   UNL     1      48.305   9.438  16.301  0.00  0.00    +0.000 A 
ATOM      6  C   UNL     1      47.952   9.238  17.628  0.00  0.00    +0.000 A 
ATOM      7  C   UNL     1      48.235   8.021  18.243  0.00  0.00    +0.000 A 
ATOM      8  C   UNL     1      48.833   6.954  17.543  0.00  0.00    +0.000 A 
ATOM      9  C   UNL     1      49.213   7.186  16.210  0.00  0.00    +0.000 A 
BRANCH   8  10
ATOM     10  C   UNL     1      49.036   5.630  18.292  0.00  0.00    +0.000 C 
ATOM     11  C   UNL     1      49.510   4.396  17.495  0.00  0.00    +0.000 C 
ATOM     12  C   UNL     1      48.397   3.713  16.693  0.00  0.00    +0.000 C 
ATOM     13  C   UNL     1      47.070   3.584  17.446  0.00  0.00    +0.000 C 
ATOM     14  N   UNL     1      46.699   4.799  18.164  0.00  0.00    +0.000 NA
ATOM     15  C   UNL     1      47.769   5.209  19.075  0.00  0.00    +0.000 C 
ATOM     16  H   UNL     1      45.839   4.644  18.686  0.00  0.00    +0.000 HD
ENDBRANCH   8  10
ENDBRANCH   1   4
BRANCH   1  17
ATOM     17  C   UNL     1      49.536   7.383  13.364  0.00  0.00    +0.000 C 
BRANCH  17  18
ATOM     18  N   UNL     1      48.499   7.219  12.327  0.00  0.00    +0.000 N 
ATOM     19  H   UNL     1      48.366   8.037  11.734  0.00  0.00    +0.000 HD
BRANCH  18  23
ATOM     20  C   UNL     1      45.017   4.889  12.831  0.00  0.00    +0.000 A 
ATOM     21  C   UNL     1      46.038   4.814  13.780  0.00  0.00    +0.000 A 
ATOM     22  C   UNL     1      47.192   5.592  13.633  0.00  0.00    +0.000 A 
ATOM     23  C   UNL     1      47.342   6.482  12.561  0.00  0.00    +0.000 A 
ATOM     24  C   UNL     1      46.321   6.515  11.601  0.00  0.00    +0.000 A 
ATOM     25  C   UNL     1      45.168   5.732  11.728  0.00  0.00    +0.000 A 
BRANCH  20  27
ATOM     26  N   UNL     1      43.890   2.738  12.649  0.00  0.00    +0.000 N 
ATOM     27  C   UNL     1      43.778   4.066  12.943  0.00  0.00    +0.000 C 
ATOM     28  O   UNL     1      42.715   4.552  13.330  0.00  0.00    +0.000 OA
ATOM     29  H   UNL     1      43.066   2.173  12.843  0.00  0.00    +0.000 HD
ATOM     30  H   UNL     1      44.779   2.268  12.589  0.00  0.00    +0.000 HD
ENDBRANCH  20  27
ENDBRANCH  18  23
ENDBRANCH  17  18
ENDBRANCH   1  17
TORSDOF 6
ENDMDL
MODEL 9
REMARK VINA RESULT:    -6.636      3.660      5.880
REMARK INTER + INTRA:         -10.071
REMARK INTER:                  -8.716
REMARK INTRA:                  -1.355
REMARK UNBOUND:                -1.107
REMARK  Name = 
REMARK  6 active torsions:
REMARK  status: ('A' for Active; 'I' for Inactive)
REMARK    1  A    between atoms: C_2  and  C_4
REMARK    2  A    between atoms: C_7  and  N_8
REMARK    3  A    between atoms: N_8  and  C_9
REMARK    4  A    between atoms: C_9  and  C_10
REMARK    5  A    between atoms: C_10  and  C_13
REMARK    6  A    between atoms: C_17  and  C_18
REMARK                            x       y       z     vdW  Elec       q    Type
REMARK                         _______ _______ _______ _____ _____    ______ ____
ROOT
ATOM      1  C   UNL     1      48.678   8.547  14.026  0.00  0.00    +0.000 C 
ATOM      2  F   UNL     1      49.319   9.752  13.911  0.00  0.00    +0.000 F 
ATOM      3  F   UNL     1      47.383   8.861  14.335  0.00  0.00    +0.000 F 
ENDROOT
BRANCH   1   4
ATOM      4  C   UNL     1      49.331   7.658  15.070  0.00  0.00    +0.000 A 
ATOM      5  C   UNL     1      50.715   7.756  15.274  0.00  0.00    +0.000 A 
ATOM      6  C   UNL     1      51.354   6.901  16.159  0.00  0.00    +0.000 A 
ATOM      7  C   UNL     1      50.615   5.950  16.859  0.00  0.00    +0.000 A 
ATOM      8  C   UNL     1      49.214   5.857  16.733  0.00  0.00    +0.000 A 
ATOM      9  C   UNL     1      48.588   6.710  15.807  0.00  0.00    +0.000 A 
BRANCH   8  10
ATOM     10  C   UNL     1      48.484   4.825  17.602  0.00  0.00    +0.000 C 
ATOM     11  C   UNL     1      49.308   3.699  18.262  0.00  0.00    +0.000 C 
ATOM     12  C   UNL     1      49.674   2.558  17.306  0.00  0.00    +0.000 C 
ATOM     13  C   UNL     1      48.536   2.130  16.376  0.00  0.00    +0.000 C 
ATOM     14  N   UNL     1      47.817   3.258  15.793  0.00  0.00    +0.000 NA
ATOM     15  C   UNL     1      47.317   4.150  16.841  0.00  0.00    +0.000 C 
ATOM     16  H   UNL     1      47.042   2.919  15.226  0.00  0.00    +0.000 HD
ENDBRANCH   8  10
ENDBRANCH   1   4
BRANCH   1  17
ATOM     17  C   UNL     1      48.690   7.844  12.640  0.00  0.00    +0.000 C 
BRANCH  17  18
ATOM     18  N   UNL     1      47.373   7.834  11.973  0.00  0.00    +0.000 N 
ATOM     19  H   UNL     1      46.824   8.680  12.117  0.00  0.00    +0.000 HD
BRANCH  18  23
ATOM     20  C   UNL     1      45.001   4.346  11.840  0.00  0.00    +0.000 A 
ATOM     21  C   UNL     1      44.901   5.286  10.813  0.00  0.00    +0.000 A 
ATOM     22  C   UNL     1      45.692   6.440  10.837  0.00  0.00    +0.000 A 
ATOM     23  C   UNL     1      46.620   6.669  11.861  0.00  0.00    +0.000 A 
ATOM     24  C   UNL     1      46.680   5.730  12.901  0.00  0.00    +0.000 A 
ATOM     25  C   UNL     1      45.884   4.579  12.897  0.00  0.00    +0.000 A 
BRANCH  20  27
ATOM     26  N   UNL     1      44.069   2.412  10.692  0.00  0.00    +0.000 N 
ATOM     27  C   UNL     1      44.166   3.110  11.860  0.00  0.00    +0.000 C 
ATOM     28  O   UNL     1      43.630   2.713  12.895  0.00  0.00    +0.000 OA
ATOM     29  H   UNL     1      43.594   1.513  10.755  0.00  0.00    +0.000 HD
ATOM     30  H   UNL     1      44.694   2.559   9.917  0.00  0.00    +0.000 HD
ENDBRANCH  20  27
ENDBRANCH  18  23
ENDBRANCH  17  18
ENDBRANCH   1  17
TORSDOF 6
ENDMDL
