MODEL 1
REMARK VINA RESULT:    -7.068      0.000      0.000
REMARK INTER + INTRA:          -8.737
REMARK INTER:                  -8.308
REMARK INTRA:                  -0.429
REMARK UNBOUND:                -0.429
REMARK  Name = 
REMARK  3 active torsions:
REMARK  status: ('A' for Active; 'I' for Inactive)
REMARK    1  A    between atoms: C_2  and  C_3
REMARK    2  A    between atoms: N_7  and  C_8
REMARK    3  A    between atoms: C_8  and  C_9
REMARK                            x       y       z     vdW  Elec       q    Type
REMARK                         _______ _______ _______ _____ _____    ______ ____
ROOT
ATOM      1  C   UNL     1      46.101   3.142   7.489  0.00  0.00    +0.000 A 
ATOM      2  C   UNL     1      45.660   2.061   8.230  0.00  0.00    +0.000 A 
ATOM      3  C   UNL     1      45.094   2.303   9.479  0.00  0.00    +0.000 A 
ATOM      4  C   UNL     1      44.976   3.606   9.959  0.00  0.00    +0.000 A 
ATOM      5  N   UNL     1      44.313   3.758  11.203  0.00  0.00    +0.000 N 
ATOM      6  N   UNL     1      45.411   4.633   9.200  0.00  0.00    +0.000 NA
ATOM      7  N   UNL     1      45.994   4.401   7.955  0.00  0.00    +0.000 NA
ATOM      8  H   UNL     1      44.720   3.092  11.856  0.00  0.00    +0.000 HD
ENDROOT
BRANCH   5   9
ATOM      9  C   UNL     1      44.078   5.080  11.828  0.00  0.00    +0.000 C 
ATOM     10  C   UNL     1      42.776   5.170  12.615  0.00  0.00    +0.000 C 
ATOM     11  C   UNL     1      42.967   6.006  11.393  0.00  0.00    +0.000 C 
BRANCH   9  12
ATOM     12  C   UNL     1      45.349   5.623  12.458  0.00  0.00    +0.000 A 
ATOM     13  C   UNL     1      45.894   6.857  12.079  0.00  0.00    +0.000 A 
ATOM     14  C   UNL     1      47.195   7.201  12.446  0.00  0.00    +0.000 A 
ATOM     15  C   UNL     1      47.918   6.309  13.217  0.00  0.00    +0.000 A 
ATOM     16  N   UNL     1      47.418   5.143  13.674  0.00  0.00    +0.000 NA
ATOM     17  C   UNL     1      46.156   4.838  13.290  0.00  0.00    +0.000 A 
ENDBRANCH   9  12
ENDBRANCH   5   9
BRANCH   1  19
ATOM     18  N   UNL     1      47.136   2.884   5.125  0.00  0.00    +0.000 NA
ATOM     19  C   UNL     1      46.678   2.972   6.187  0.00  0.00    +0.000 C 
ENDBRANCH   1  19
TORSDOF 3
ENDMDL
MODEL 2
REMARK VINA RESULT:    -6.583      1.775      6.238
REMARK INTER + INTRA:          -8.167
REMARK INTER:                  -8.101
REMARK INTRA:                  -0.066
REMARK UNBOUND:                -0.429
REMARK  Name = 
REMARK  3 active torsions:
REMARK  status: ('A' for Active; 'I' for Inactive)
REMARK    1  A    between atoms: C_2  and  C_3
REMARK    2  A    between atoms: N_7  and  C_8
REMARK    3  A    between atoms: C_8  and  C_9
REMARK                            x       y       z     vdW  Elec       q    Type
REMARK                         _______ _______ _______ _____ _____    ______ ____
ROOT
ATOM      1  C   UNL     1      47.448   4.795  15.148  0.00  0.00    +0.000 A 
ATOM      2  C   UNL     1      47.657   5.936  14.397  0.00  0.00    +0.000 A 
ATOM      3  C   UNL     1      46.974   6.066  13.189  0.00  0.00    +0.000 A 
ATOM      4  C   UNL     1      46.103   5.066  12.761  0.00  0.00    +0.000 A 
ATOM      5  N   UNL     1      45.394   5.325  11.561  0.00  0.00    +0.000 N 
ATOM      6  N   UNL     1      45.923   3.972  13.529  0.00  0.00    +0.000 NA
ATOM      7  N   UNL     1      46.612   3.825  14.731  0.00  0.00    +0.000 NA
ATOM      8  H   UNL     1      46.065   5.642  10.864  0.00  0.00    +0.000 HD
ENDROOT
BRANCH   5   9
ATOM      9  C   UNL     1      44.407   4.377  10.995  0.00  0.00    +0.000 C 
ATOM     10  C   UNL     1      42.966   4.870  11.061  0.00  0.00    +0.000 C 
ATOM     11  C   UNL     1      43.377   3.665  11.840  0.00  0.00    +0.000 C 
BRANCH   9  12
ATOM     12  C   UNL     1      44.911   3.770   9.697  0.00  0.00    +0.000 A 
ATOM     13  C   UNL     1      45.037   2.385   9.528  0.00  0.00    +0.000 A 
ATOM     14  C   UNL     1      45.765   1.864   8.458  0.00  0.00    +0.000 A 
ATOM     15  C   UNL     1      46.329   2.747   7.555  0.00  0.00    +0.000 A 
ATOM     16  N   UNL     1      46.176   4.085   7.626  0.00  0.00    +0.000 NA
ATOM     17  C   UNL     1      45.471   4.555   8.682  0.00  0.00    +0.000 A 
ENDBRANCH   9  12
ENDBRANCH   5   9
BRANCH   1  19
ATOM     18  N   UNL     1      48.667   4.416  17.406  0.00  0.00    +0.000 NA
ATOM     19  C   UNL     1      48.102   4.600  16.410  0.00  0.00    +0.000 C 
ENDBRANCH   1  19
TORSDOF 3
ENDMDL
MODEL 3
REMARK VINA RESULT:    -6.239      1.438      6.007
REMARK INTER + INTRA:          -7.763
REMARK INTER:                  -7.553
REMARK INTRA:                  -0.209
REMARK UNBOUND:                -0.429
REMARK  Name = 
REMARK  3 active torsions:
REMARK  status: ('A' for Active; 'I' for Inactive)
REMARK    1  A    between atoms: C_2  and  C_3
REMARK    2  A    between atoms: N_7  and  C_8
REMARK    3  A    between atoms: C_8  and  C_9
REMARK                            x       y       z     vdW  Elec       q    Type
REMARK                         _______ _______ _______ _____ _____    ______ ____
ROOT
ATOM      1  C   UNL     1      48.183   6.744  13.836  0.00  0.00    +0.000 A 
ATOM      2  C   UNL     1      47.541   7.753  13.144  0.00  0.00    +0.000 A 
ATOM      3  C   UNL     1      46.490   7.407  12.296  0.00  0.00    +0.000 A 
ATOM      4  C   UNL     1      46.104   6.075  12.161  0.00  0.00    +0.000 A 
ATOM      5  N   UNL     1      44.974   5.832  11.339  0.00  0.00    +0.000 N 
ATOM      6  N   UNL     1      46.753   5.123  12.861  0.00  0.00    +0.000 NA
ATOM      7  N   UNL     1      47.815   5.456  13.700  0.00  0.00    +0.000 NA
ATOM      8  H   UNL     1      45.111   6.334  10.464  0.00  0.00    +0.000 HD
ENDROOT
BRANCH   5   9
ATOM      9  C   UNL     1      44.420   4.476  11.124  0.00  0.00    +0.000 C 
ATOM     10  C   UNL     1      42.945   4.345  11.485  0.00  0.00    +0.000 C 
ATOM     11  C   UNL     1      43.971   3.584  12.257  0.00  0.00    +0.000 C 
BRANCH   9  12
ATOM     12  C   UNL     1      44.902   3.888   9.808  0.00  0.00    +0.000 A 
ATOM     13  C   UNL     1      45.002   2.504   9.609  0.00  0.00    +0.000 A 
ATOM     14  C   UNL     1      45.711   1.993   8.523  0.00  0.00    +0.000 A 
ATOM     15  C   UNL     1      46.285   2.885   7.634  0.00  0.00    +0.000 A 
ATOM     16  N   UNL     1      46.156   4.223   7.734  0.00  0.00    +0.000 NA
ATOM     17  C   UNL     1      45.468   4.683   8.806  0.00  0.00    +0.000 A 
ENDBRANCH   9  12
ENDBRANCH   5   9
BRANCH   1  19
ATOM     18  N   UNL     1      50.160   7.268  15.432  0.00  0.00    +0.000 NA
ATOM     19  C   UNL     1      49.261   7.025  14.741  0.00  0.00    +0.000 C 
ENDBRANCH   1  19
TORSDOF 3
ENDMDL
MODEL 4
REMARK VINA RESULT:    -5.605      2.389      5.802
REMARK INTER + INTRA:          -7.017
REMARK INTER:                  -7.779
REMARK INTRA:                   0.762
REMARK UNBOUND:                -0.429
REMARK  Name = 
REMARK  3 active torsions:
REMARK  status: ('A' for Active; 'I' for Inactive)
REMARK    1  A    between atoms: C_2  and  C_3
REMARK    2  A    between atoms: N_7  and  C_8
REMARK    3  A    between atoms: C_8  and  C_9
REMARK                            x       y       z     vdW  Elec       q    Type
REMARK                         _______ _______ _______ _____ _____    ______ ____
ROOT
ATOM      1  C   UNL     1      45.387   8.711  12.037  0.00  0.00    +0.000 A 
ATOM      2  C   UNL     1      46.344   8.011  12.748  0.00  0.00    +0.000 A 
ATOM      3  C   UNL     1      46.302   6.619  12.718  0.00  0.00    +0.000 A 
ATOM      4  C   UNL     1      45.319   5.960  11.983  0.00  0.00    +0.000 A 
ATOM      5  N   UNL     1      45.408   4.545  11.947  0.00  0.00    +0.000 N 
ATOM      6  N   UNL     1      44.409   6.681  11.298  0.00  0.00    +0.000 NA
ATOM      7  N   UNL     1      44.432   8.074  11.333  0.00  0.00    +0.000 NA
ATOM      8  H   UNL     1      45.528   4.215  12.903  0.00  0.00    +0.000 HD
ENDROOT
BRANCH   5   9
ATOM      9  C   UNL     1      44.459   3.704  11.183  0.00  0.00    +0.000 C 
ATOM     10  C   UNL     1      42.995   4.078  11.388  0.00  0.00    +0.000 C 
ATOM     11  C   UNL     1      43.495   2.747  11.844  0.00  0.00    +0.000 C 
BRANCH   9  12
ATOM     12  C   UNL     1      44.956   3.460   9.768  0.00  0.00    +0.000 A 
ATOM     13  C   UNL     1      45.276   2.176   9.307  0.00  0.00    +0.000 A 
ATOM     14  C   UNL     1      45.997   2.006   8.126  0.00  0.00    +0.000 A 
ATOM     15  C   UNL     1      46.361   3.131   7.410  0.00  0.00    +0.000 A 
ATOM     16  N   UNL     1      46.016   4.385   7.765  0.00  0.00    +0.000 NA
ATOM     17  C   UNL     1      45.324   4.513   8.922  0.00  0.00    +0.000 A 
ENDBRANCH   9  12
ENDBRANCH   5   9
BRANCH   1  19
ATOM     18  N   UNL     1      45.361  11.305  12.033  0.00  0.00    +0.000 NA
ATOM     19  C   UNL     1      45.377  10.146  12.007  0.00  0.00    +0.000 C 
ENDBRANCH   1  19
TORSDOF 3
ENDMDL
MODEL 5
REMARK VINA RESULT:    -5.082      5.448      7.156
REMARK INTER + INTRA:          -6.403
REMARK INTER:                  -5.968
REMARK INTRA:                  -0.434
REMARK UNBOUND:                -0.429
REMARK  Name = 
REMARK  3 active torsions:
REMARK  status: ('A' for Active; 'I' for Inactive)
REMARK    1  A    between atoms: C_2  and  C_3
REMARK    2  A    between atoms: N_7  and  C_8
REMARK    3  A    between atoms: C_8  and  C_9
REMARK                            x       y       z     vdW  Elec       q    Type
REMARK                         _______ _______ _______ _____ _____    ______ ____
ROOT
ATOM      1  C   UNL     1      49.383   7.463  12.954  0.00  0.00    +0.000 A 
ATOM      2  C   UNL     1      48.144   6.900  12.711  0.00  0.00    +0.000 A 
ATOM      3  C   UNL     1      47.552   6.147  13.723  0.00  0.00    +0.000 A 
ATOM      4  C   UNL     1      48.200   5.975  14.945  0.00  0.00    +0.000 A 
ATOM      5  N   UNL     1      47.482   5.262  15.938  0.00  0.00    +0.000 N 
ATOM      6  N   UNL     1      49.404   6.549  15.142  0.00  0.00    +0.000 NA
ATOM      7  N   UNL     1      50.013   7.292  14.132  0.00  0.00    +0.000 NA
ATOM      8  H   UNL     1      47.126   4.408  15.514  0.00  0.00    +0.000 HD
ENDROOT
BRANCH   5   9
ATOM      9  C   UNL     1      48.020   5.027  17.298  0.00  0.00    +0.000 C 
ATOM     10  C   UNL     1      46.986   5.184  18.408  0.00  0.00    +0.000 C 
ATOM     11  C   UNL     1      48.145   6.122  18.331  0.00  0.00    +0.000 C 
BRANCH   9  12
ATOM     12  C   UNL     1      48.938   3.817  17.325  0.00  0.00    +0.000 A 
ATOM     13  C   UNL     1      50.205   3.863  17.921  0.00  0.00    +0.000 A 
ATOM     14  C   UNL     1      51.137   2.853  17.684  0.00  0.00    +0.000 A 
ATOM     15  C   UNL     1      50.769   1.795  16.873  0.00  0.00    +0.000 A 
ATOM     16  N   UNL     1      49.540   1.661  16.335  0.00  0.00    +0.000 NA
ATOM     17  C   UNL     1      48.664   2.664  16.579  0.00  0.00    +0.000 A 
ENDBRANCH   9  12
ENDBRANCH   5   9
BRANCH   1  19
ATOM     18  N   UNL     1      50.626   8.912  11.197  0.00  0.00    +0.000 NA
ATOM     19  C   UNL     1      50.047   8.266  11.967  0.00  0.00    +0.000 C 
ENDBRANCH   1  19
TORSDOF 3
ENDMDL
MODEL 6
REMARK VINA RESULT:    -4.854      2.050      3.271
REMARK INTER + INTRA:          -6.135
REMARK INTER:                  -5.854
REMARK INTRA:                  -0.280
REMARK UNBOUND:                -0.429
REMARK  Name = 
REMARK  3 active torsions:
REMARK  status: ('A' for Active; 'I' for Inactive)
REMARK    1  A    between atoms: C_2  and  C_3
REMARK    2  A    between atoms: N_7  and  C_8
REMARK    3  A    between atoms: C_8  and  C_9
REMARK                            x       y       z     vdW  Elec       q    Type
REMARK                         _______ _______ _______ _____ _____    ______ ____
ROOT
ATOM      1  C   UNL     1      44.662   3.451  10.329  0.00  0.00    +0.000 A 
ATOM      2  C   UNL     1      44.014   3.479  11.550  0.00  0.00    +0.000 A 
ATOM      3  C   UNL     1      44.123   4.630  12.328  0.00  0.00    +0.000 A 
ATOM      4  C   UNL     1      44.864   5.719  11.876  0.00  0.00    +0.000 A 
ATOM      5  N   UNL     1      44.848   6.873  12.699  0.00  0.00    +0.000 N 
ATOM      6  N   UNL     1      45.473   5.652  10.674  0.00  0.00    +0.000 NA
ATOM      7  N   UNL     1      45.384   4.500   9.895  0.00  0.00    +0.000 NA
ATOM      8  H   UNL     1      45.049   6.579  13.653  0.00  0.00    +0.000 HD
ENDROOT
BRANCH   5   9
ATOM      9  C   UNL     1      45.557   8.122  12.340  0.00  0.00    +0.000 C 
ATOM     10  C   UNL     1      44.821   9.392  12.752  0.00  0.00    +0.000 C 
ATOM     11  C   UNL     1      45.036   9.092  11.305  0.00  0.00    +0.000 C 
BRANCH   9  12
ATOM     12  C   UNL     1      47.043   8.015  12.634  0.00  0.00    +0.000 A 
ATOM     13  C   UNL     1      47.999   8.705  11.877  0.00  0.00    +0.000 A 
ATOM     14  C   UNL     1      49.350   8.373  11.967  0.00  0.00    +0.000 A 
ATOM     15  C   UNL     1      49.724   7.370  12.842  0.00  0.00    +0.000 A 
ATOM     16  N   UNL     1      48.858   6.724  13.650  0.00  0.00    +0.000 NA
ATOM     17  C   UNL     1      47.553   7.067  13.529  0.00  0.00    +0.000 A 
ENDBRANCH   9  12
ENDBRANCH   5   9
BRANCH   1  19
ATOM     18  N   UNL     1      44.558   1.365   8.790  0.00  0.00    +0.000 NA
ATOM     19  C   UNL     1      44.582   2.308   9.465  0.00  0.00    +0.000 C 
ENDBRANCH   1  19
TORSDOF 3
ENDMDL
MODEL 7
REMARK VINA RESULT:    -4.826      3.349      5.066
REMARK INTER + INTRA:          -6.102
REMARK INTER:                  -5.837
REMARK INTRA:                  -0.265
REMARK UNBOUND:                -0.429
REMARK  Name = 
REMARK  3 active torsions:
REMARK  status: ('A' for Active; 'I' for Inactive)
REMARK    1  A    between atoms: C_2  and  C_3
REMARK    2  A    between atoms: N_7  and  C_8
REMARK    3  A    between atoms: C_8  and  C_9
REMARK                            x       y       z     vdW  Elec       q    Type
REMARK                         _______ _______ _______ _____ _____    ______ ____
ROOT
ATOM      1  C   UNL     1      44.330   4.529  11.867  0.00  0.00    +0.000 A 
ATOM      2  C   UNL     1      43.764   5.754  11.563  0.00  0.00    +0.000 A 
ATOM      3  C   UNL     1      44.554   6.895  11.687  0.00  0.00    +0.000 A 
ATOM      4  C   UNL     1      45.879   6.793  12.104  0.00  0.00    +0.000 A 
ATOM      5  N   UNL     1      46.625   7.998  12.121  0.00  0.00    +0.000 N 
ATOM      6  N   UNL     1      46.394   5.577  12.382  0.00  0.00    +0.000 NA
ATOM      7  N   UNL     1      45.609   4.431  12.277  0.00  0.00    +0.000 NA
ATOM      8  H   UNL     1      46.072   8.701  12.607  0.00  0.00    +0.000 HD
ENDROOT
BRANCH   5   9
ATOM      9  C   UNL     1      48.054   8.049  12.506  0.00  0.00    +0.000 C 
ATOM     10  C   UNL     1      48.870   9.073  11.725  0.00  0.00    +0.000 C 
ATOM     11  C   UNL     1      49.168   7.618  11.582  0.00  0.00    +0.000 C 
BRANCH   9  12
ATOM     12  C   UNL     1      48.219   7.985  14.015  0.00  0.00    +0.000 A 
ATOM     13  C   UNL     1      47.921   9.078  14.839  0.00  0.00    +0.000 A 
ATOM     14  C   UNL     1      48.349   9.104  16.166  0.00  0.00    +0.000 A 
ATOM     15  C   UNL     1      49.046   8.013  16.653  0.00  0.00    +0.000 A 
ATOM     16  N   UNL     1      49.295   6.903  15.929  0.00  0.00    +0.000 NA
ATOM     17  C   UNL     1      48.872   6.918  14.642  0.00  0.00    +0.000 A 
ENDBRANCH   9  12
ENDBRANCH   5   9
BRANCH   1  19
ATOM     18  N   UNL     1      43.026   2.298  11.642  0.00  0.00    +0.000 NA
ATOM     19  C   UNL     1      43.584   3.309  11.746  0.00  0.00    +0.000 C 
ENDBRANCH   1  19
TORSDOF 3
ENDMDL
MODEL 8
REMARK VINA RESULT:    -4.748      5.414      8.720
REMARK INTER + INTRA:          -6.010
REMARK INTER:                  -5.834
REMARK INTRA:                  -0.176
REMARK UNBOUND:                -0.429
REMARK  Name = 
REMARK  3 active torsions:
REMARK  status: ('A' for Active; 'I' for Inactive)
REMARK    1  A    between atoms: C_2  and  C_3
REMARK    2  A    between atoms: N_7  and  C_8
REMARK    3  A    between atoms: C_8  and  C_9
REMARK                            x       y       z     vdW  Elec       q    Type
REMARK                         _______ _______ _______ _____ _____    ______ ____
ROOT
ATOM      1  C   UNL     1      52.295   1.647  17.606  0.00  0.00    +0.000 A 
ATOM      2  C   UNL     1      52.642   2.909  18.052  0.00  0.00    +0.000 A 
ATOM      3  C   UNL     1      51.691   3.923  17.967  0.00  0.00    +0.000 A 
ATOM      4  C   UNL     1      50.425   3.661  17.448  0.00  0.00    +0.000 A 
ATOM      5  N   UNL     1      49.501   4.736  17.477  0.00  0.00    +0.000 N 
ATOM      6  N   UNL     1      50.126   2.414  17.032  0.00  0.00    +0.000 NA
ATOM      7  N   UNL     1      51.074   1.395  17.098  0.00  0.00    +0.000 NA
ATOM      8  H   UNL     1      49.965   5.557  17.093  0.00  0.00    +0.000 HD
ENDROOT
BRANCH   5   9
ATOM      9  C   UNL     1      48.107   4.606  16.995  0.00  0.00    +0.000 C 
ATOM     10  C   UNL     1      47.054   4.840  18.072  0.00  0.00    +0.000 C 
ATOM     11  C   UNL     1      47.186   3.494  17.440  0.00  0.00    +0.000 C 
BRANCH   9  12
ATOM     12  C   UNL     1      47.928   5.277  15.644  0.00  0.00    +0.000 A 
ATOM     13  C   UNL     1      47.085   4.745  14.659  0.00  0.00    +0.000 A 
ATOM     14  C   UNL     1      47.156   5.200  13.343  0.00  0.00    +0.000 A 
ATOM     15  C   UNL     1      48.055   6.207  13.043  0.00  0.00    +0.000 A 
ATOM     16  N   UNL     1      48.836   6.808  13.964  0.00  0.00    +0.000 NA
ATOM     17  C   UNL     1      48.747   6.334  15.229  0.00  0.00    +0.000 A 
ENDBRANCH   9  12
ENDBRANCH   5   9
BRANCH   1  19
ATOM     18  N   UNL     1      53.950  -0.342  17.788  0.00  0.00    +0.000 NA
ATOM     19  C   UNL     1      53.215   0.548  17.679  0.00  0.00    +0.000 C 
ENDBRANCH   1  19
TORSDOF 3
ENDMDL
MODEL 9
REMARK VINA RESULT:    -4.721      5.036      7.690
REMARK INTER + INTRA:          -5.978
REMARK INTER:                  -5.707
REMARK INTRA:                  -0.270
REMARK UNBOUND:                -0.429
REMARK  Name = 
REMARK  3 active torsions:
REMARK  status: ('A' for Active; 'I' for Inactive)
REMARK    1  A    between atoms: C_2  and  C_3
REMARK    2  A    between atoms: N_7  and  C_8
REMARK    3  A    between atoms: C_8  and  C_9
REMARK                            x       y       z     vdW  Elec       q    Type
REMARK                         _______ _______ _______ _____ _____    ______ ____
ROOT
ATOM      1  C   UNL     1      47.291   5.729  13.625  0.00  0.00    +0.000 A 
ATOM      2  C   UNL     1      46.490   4.685  14.048  0.00  0.00    +0.000 A 
ATOM      3  C   UNL     1      46.805   4.058  15.252  0.00  0.00    +0.000 A 
ATOM      4  C   UNL     1      47.899   4.483  16.003  0.00  0.00    +0.000 A 
ATOM      5  N   UNL     1      48.090   3.838  17.251  0.00  0.00    +0.000 N 
ATOM      6  N   UNL     1      48.649   5.511  15.557  0.00  0.00    +0.000 NA
ATOM      7  N   UNL     1      48.352   6.135  14.347  0.00  0.00    +0.000 NA
ATOM      8  H   UNL     1      48.037   2.833  17.095  0.00  0.00    +0.000 HD
ENDROOT
BRANCH   5   9
ATOM      9  C   UNL     1      49.185   4.200  18.179  0.00  0.00    +0.000 C 
ATOM     10  C   UNL     1      48.750   4.317  19.636  0.00  0.00    +0.000 C 
ATOM     11  C   UNL     1      49.240   5.523  18.906  0.00  0.00    +0.000 C 
BRANCH   9  12
ATOM     12  C   UNL     1      50.455   3.430  17.858  0.00  0.00    +0.000 A 
ATOM     13  C   UNL     1      50.421   2.116  17.374  0.00  0.00    +0.000 A 
ATOM     14  C   UNL     1      51.575   1.333  17.364  0.00  0.00    +0.000 A 
ATOM     15  C   UNL     1      52.755   1.896  17.815  0.00  0.00    +0.000 A 
ATOM     16  N   UNL     1      52.862   3.177  18.220  0.00  0.00    +0.000 NA
ATOM     17  C   UNL     1      51.720   3.904  18.225  0.00  0.00    +0.000 A 
ENDBRANCH   9  12
ENDBRANCH   5   9
BRANCH   1  19
ATOM     18  N   UNL     1      46.778   7.042  11.447  0.00  0.00    +0.000 NA
ATOM     19  C   UNL     1      47.019   6.434  12.405  0.00  0.00    +0.000 C 
ENDBRANCH   1  19
TORSDOF 3
ENDMDL
