MODEL 1
REMARK VINA RESULT:    -8.489      0.000      0.000
REMARK INTER + INTRA:         -13.203
REMARK INTER:                 -11.963
REMARK INTRA:                  -1.240
REMARK UNBOUND:                -1.240
REMARK  Name = 
REMARK  7 active torsions:
REMARK  status: ('A' for Active; 'I' for Inactive)
REMARK    1  A    between atoms: C_2  and  C_3
REMARK    2  A    between atoms: C_3  and  N_4
REMARK    3  A    between atoms: C_5  and  C_7
REMARK    4  A    between atoms: N_17  and  C_18
REMARK    5  A    between atoms: C_18  and  C_19
REMARK    6  A    between atoms: C_22  and  C_23
REMARK    7  A    between atoms: C_23  and  N_24
REMARK                            x       y       z     vdW  Elec       q    Type
REMARK                         _______ _______ _______ _____ _____    ______ ____
ROOT
ATOM      1  O   UNL     1      46.767   4.970  17.817  0.00  0.00    +0.000 OA
ATOM      2  C   UNL     1      47.435   4.119  17.237  0.00  0.00    +0.000 C 
ATOM      3  N   UNL     1      47.822   4.222  15.917  0.00  0.00    +0.000 N 
ATOM      4  H   UNL     1      48.189   3.393  15.460  0.00  0.00    +0.000 HD
ENDROOT
BRANCH   2   5
ATOM      5  C   UNL     1      47.832   2.802  17.907  0.00  0.00    +0.000 C 
BRANCH   5   6
ATOM      6  N   UNL     1      49.262   2.736  18.117  0.00  0.00    +0.000 N 
ATOM      7  C   UNL     1      50.116   2.190  17.199  0.00  0.00    +0.000 C 
ATOM      8  O   UNL     1      49.686   1.683  16.162  0.00  0.00    +0.000 OA
ATOM      9  H   UNL     1      49.604   3.052  19.022  0.00  0.00    +0.000 HD
BRANCH   7  10
ATOM     10  C   UNL     1      51.556   2.227  17.496  0.00  0.00    +0.000 A 
ATOM     11  C   UNL     1      52.254   1.033  17.635  0.00  0.00    +0.000 A 
ATOM     12  S   UNL     1      53.909   1.232  17.987  0.00  0.00    +0.000 S 
ATOM     13  C   UNL     1      53.764   2.926  17.970  0.00  0.00    +0.000 A 
ATOM     14  N   UNL     1      54.840   3.717  18.228  0.00  0.00    +0.000 NA
ATOM     15  C   UNL     1      54.594   4.983  18.190  0.00  0.00    +0.000 A 
ATOM     16  N   UNL     1      53.370   5.531  17.906  0.00  0.00    +0.000 N 
ATOM     17  C   UNL     1      52.259   4.773  17.623  0.00  0.00    +0.000 A 
ATOM     18  O   UNL     1      51.188   5.300  17.351  0.00  0.00    +0.000 OA
ATOM     19  C   UNL     1      52.474   3.336  17.679  0.00  0.00    +0.000 A 
ATOM     20  H   UNL     1      53.244   6.532  17.883  0.00  0.00    +0.000 HD
ENDBRANCH   7  10
ENDBRANCH   5   6
ENDBRANCH   2   5
BRANCH   3  21
ATOM     21  C   UNL     1      47.491   5.368  15.099  0.00  0.00    +0.000 C 
BRANCH  21  22
ATOM     22  C   UNL     1      46.568   4.995  13.964  0.00  0.00    +0.000 A 
ATOM     23  C   UNL     1      46.417   3.662  13.559  0.00  0.00    +0.000 A 
ATOM     24  C   UNL     1      45.584   3.330  12.481  0.00  0.00    +0.000 A 
ATOM     25  C   UNL     1      44.893   4.323  11.772  0.00  0.00    +0.000 A 
ATOM     26  C   UNL     1      45.019   5.653  12.199  0.00  0.00    +0.000 A 
ATOM     27  C   UNL     1      45.854   5.986  13.275  0.00  0.00    +0.000 A 
BRANCH  25  28
ATOM     28  C   UNL     1      44.075   3.985  10.546  0.00  0.00    +0.000 C 
BRANCH  28  29
ATOM     29  N   UNL     1      44.785   3.146   9.605  0.00  0.00    +0.000 N 
ATOM     30  C   UNL     1      45.471   3.733   8.568  0.00  0.00    +0.000 C 
ATOM     31  O   UNL     1      45.447   4.943   8.354  0.00  0.00    +0.000 OA
ATOM     32  N   UNL     1      46.184   2.859   7.778  0.00  0.00    +0.000 N 
ATOM     33  C   UNL     1      46.181   1.408   7.812  0.00  0.00    +0.000 C 
ATOM     34  C   UNL     1      47.497   1.045   7.147  0.00  0.00    +0.000 C 
ATOM     35  C   UNL     1      47.640   2.102   6.058  0.00  0.00    +0.000 C 
ATOM     36  C   UNL     1      46.931   3.334   6.622  0.00  0.00    +0.000 C 
ATOM     37  H   UNL     1      45.212   2.327   9.997  0.00  0.00    +0.000 HD
ENDBRANCH  28  29
ENDBRANCH  25  28
ENDBRANCH  21  22
ENDBRANCH   3  21
TORSDOF 7
ENDMDL
MODEL 2
REMARK VINA RESULT:    -8.266      1.811      2.649
REMARK INTER + INTRA:         -12.888
REMARK INTER:                 -12.166
REMARK INTRA:                  -0.722
REMARK UNBOUND:                -1.240
REMARK  Name = 
REMARK  7 active torsions:
REMARK  status: ('A' for Active; 'I' for Inactive)
REMARK    1  A    between atoms: C_2  and  C_3
REMARK    2  A    between atoms: C_3  and  N_4
REMARK    3  A    between atoms: C_5  and  C_7
REMARK    4  A    between atoms: N_17  and  C_18
REMARK    5  A    between atoms: C_18  and  C_19
REMARK    6  A    between atoms: C_22  and  C_23
REMARK    7  A    between atoms: C_23  and  N_24
REMARK                            x       y       z     vdW  Elec       q    Type
REMARK                         _______ _______ _______ _____ _____    ______ ____
ROOT
ATOM      1  O   UNL     1      50.045   6.848  14.820  0.00  0.00    +0.000 OA
ATOM      2  C   UNL     1      49.009   6.972  15.467  0.00  0.00    +0.000 C 
ATOM      3  N   UNL     1      47.802   7.340  14.911  0.00  0.00    +0.000 N 
ATOM      4  H   UNL     1      47.052   7.618  15.537  0.00  0.00    +0.000 HD
ENDROOT
BRANCH   2   5
ATOM      5  C   UNL     1      48.978   6.814  16.989  0.00  0.00    +0.000 C 
BRANCH   5   6
ATOM      6  N   UNL     1      50.117   6.052  17.456  0.00  0.00    +0.000 N 
ATOM      7  C   UNL     1      49.984   4.851  18.096  0.00  0.00    +0.000 C 
ATOM      8  O   UNL     1      48.870   4.389  18.346  0.00  0.00    +0.000 OA
ATOM      9  H   UNL     1      51.030   6.487  17.350  0.00  0.00    +0.000 HD
BRANCH   7  10
ATOM     10  C   UNL     1      51.214   4.139  18.477  0.00  0.00    +0.000 A 
ATOM     11  C   UNL     1      52.104   4.741  19.360  0.00  0.00    +0.000 A 
ATOM     12  S   UNL     1      53.485   3.803  19.701  0.00  0.00    +0.000 S 
ATOM     13  C   UNL     1      52.954   2.552  18.682  0.00  0.00    +0.000 A 
ATOM     14  N   UNL     1      53.708   1.433  18.504  0.00  0.00    +0.000 NA
ATOM     15  C   UNL     1      53.195   0.564  17.701  0.00  0.00    +0.000 A 
ATOM     16  N   UNL     1      51.988   0.706  17.068  0.00  0.00    +0.000 N 
ATOM     17  C   UNL     1      51.184   1.809  17.229  0.00  0.00    +0.000 A 
ATOM     18  O   UNL     1      50.100   1.888  16.663  0.00  0.00    +0.000 OA
ATOM     19  C   UNL     1      51.727   2.835  18.103  0.00  0.00    +0.000 A 
ATOM     20  H   UNL     1      51.636  -0.016  16.456  0.00  0.00    +0.000 HD
ENDBRANCH   7  10
ENDBRANCH   5   6
ENDBRANCH   2   5
BRANCH   3  21
ATOM     21  C   UNL     1      47.644   7.591  13.496  0.00  0.00    +0.000 C 
BRANCH  21  22
ATOM     22  C   UNL     1      46.658   6.635  12.867  0.00  0.00    +0.000 A 
ATOM     23  C   UNL     1      46.694   5.263  13.150  0.00  0.00    +0.000 A 
ATOM     24  C   UNL     1      45.796   4.379  12.534  0.00  0.00    +0.000 A 
ATOM     25  C   UNL     1      44.851   4.843  11.608  0.00  0.00    +0.000 A 
ATOM     26  C   UNL     1      44.794   6.220  11.350  0.00  0.00    +0.000 A 
ATOM     27  C   UNL     1      45.693   7.104  11.964  0.00  0.00    +0.000 A 
BRANCH  25  28
ATOM     28  C   UNL     1      43.950   3.885  10.862  0.00  0.00    +0.000 C 
BRANCH  28  29
ATOM     29  N   UNL     1      44.667   3.037   9.935  0.00  0.00    +0.000 N 
ATOM     30  C   UNL     1      45.111   3.571   8.747  0.00  0.00    +0.000 C 
ATOM     31  O   UNL     1      44.859   4.722   8.397  0.00  0.00    +0.000 OA
ATOM     32  N   UNL     1      45.856   2.711   7.971  0.00  0.00    +0.000 N 
ATOM     33  C   UNL     1      46.100   1.294   8.176  0.00  0.00    +0.000 C 
ATOM     34  C   UNL     1      47.365   1.043   7.374  0.00  0.00    +0.000 C 
ATOM     35  C   UNL     1      47.193   1.948   6.160  0.00  0.00    +0.000 C 
ATOM     36  C   UNL     1      46.364   3.126   6.671  0.00  0.00    +0.000 C 
ATOM     37  H   UNL     1      45.270   2.355  10.355  0.00  0.00    +0.000 HD
ENDBRANCH  28  29
ENDBRANCH  25  28
ENDBRANCH  21  22
ENDBRANCH   3  21
TORSDOF 7
ENDMDL
MODEL 3
REMARK VINA RESULT:    -8.179      2.839      4.317
REMARK INTER + INTRA:         -12.765
REMARK INTER:                 -11.980
REMARK INTRA:                  -0.786
REMARK UNBOUND:                -1.240
REMARK  Name = 
REMARK  7 active torsions:
REMARK  status: ('A' for Active; 'I' for Inactive)
REMARK    1  A    between atoms: C_2  and  C_3
REMARK    2  A    between atoms: C_3  and  N_4
REMARK    3  A    between atoms: C_5  and  C_7
REMARK    4  A    between atoms: N_17  and  C_18
REMARK    5  A    between atoms: C_18  and  C_19
REMARK    6  A    between atoms: C_22  and  C_23
REMARK    7  A    between atoms: C_23  and  N_24
REMARK                            x       y       z     vdW  Elec       q    Type
REMARK                         _______ _______ _______ _____ _____    ______ ____
ROOT
ATOM      1  O   UNL     1      47.621   9.607  12.270  0.00  0.00    +0.000 OA
ATOM      2  C   UNL     1      47.790   8.710  13.092  0.00  0.00    +0.000 C 
ATOM      3  N   UNL     1      46.799   7.833  13.479  0.00  0.00    +0.000 N 
ATOM      4  H   UNL     1      46.960   7.263  14.304  0.00  0.00    +0.000 HD
ENDROOT
BRANCH   2   5
ATOM      5  C   UNL     1      49.113   8.534  13.841  0.00  0.00    +0.000 C 
BRANCH   5   6
ATOM      6  N   UNL     1      48.969   7.602  14.938  0.00  0.00    +0.000 N 
ATOM      7  C   UNL     1      50.044   7.048  15.578  0.00  0.00    +0.000 C 
ATOM      8  O   UNL     1      51.192   7.290  15.205  0.00  0.00    +0.000 OA
ATOM      9  H   UNL     1      48.021   7.316  15.171  0.00  0.00    +0.000 HD
BRANCH   7  10
ATOM     10  C   UNL     1      49.777   6.155  16.716  0.00  0.00    +0.000 A 
ATOM     11  C   UNL     1      50.503   6.313  17.891  0.00  0.00    +0.000 A 
ATOM     12  S   UNL     1      50.091   5.204  19.117  0.00  0.00    +0.000 S 
ATOM     13  C   UNL     1      48.925   4.461  18.128  0.00  0.00    +0.000 A 
ATOM     14  N   UNL     1      48.207   3.397  18.580  0.00  0.00    +0.000 NA
ATOM     15  C   UNL     1      47.361   2.923  17.730  0.00  0.00    +0.000 A 
ATOM     16  N   UNL     1      47.157   3.425  16.471  0.00  0.00    +0.000 N 
ATOM     17  C   UNL     1      47.846   4.507  15.977  0.00  0.00    +0.000 A 
ATOM     18  O   UNL     1      47.618   4.941  14.854  0.00  0.00    +0.000 OA
ATOM     19  C   UNL     1      48.834   5.065  16.885  0.00  0.00    +0.000 A 
ATOM     20  H   UNL     1      46.472   3.015  15.854  0.00  0.00    +0.000 HD
ENDBRANCH   7  10
ENDBRANCH   5   6
ENDBRANCH   2   5
BRANCH   3  21
ATOM     21  C   UNL     1      45.464   7.879  12.926  0.00  0.00    +0.000 C 
BRANCH  21  22
ATOM     22  C   UNL     1      45.031   6.530  12.403  0.00  0.00    +0.000 A 
ATOM     23  C   UNL     1      45.832   5.393  12.574  0.00  0.00    +0.000 A 
ATOM     24  C   UNL     1      45.437   4.152  12.055  0.00  0.00    +0.000 A 
ATOM     25  C   UNL     1      44.240   4.020  11.336  0.00  0.00    +0.000 A 
ATOM     26  C   UNL     1      43.423   5.151  11.194  0.00  0.00    +0.000 A 
ATOM     27  C   UNL     1      43.819   6.392  11.711  0.00  0.00    +0.000 A 
BRANCH  25  28
ATOM     28  C   UNL     1      43.858   2.710  10.684  0.00  0.00    +0.000 C 
BRANCH  28  29
ATOM     29  N   UNL     1      44.808   2.278   9.683  0.00  0.00    +0.000 N 
ATOM     30  C   UNL     1      44.979   3.038   8.550  0.00  0.00    +0.000 C 
ATOM     31  O   UNL     1      44.302   4.035   8.307  0.00  0.00    +0.000 OA
ATOM     32  N   UNL     1      45.964   2.591   7.697  0.00  0.00    +0.000 N 
ATOM     33  C   UNL     1      46.728   1.359   7.771  0.00  0.00    +0.000 C 
ATOM     34  C   UNL     1      47.966   1.671   6.950  0.00  0.00    +0.000 C 
ATOM     35  C   UNL     1      47.426   2.545   5.824  0.00  0.00    +0.000 C 
ATOM     36  C   UNL     1      46.235   3.277   6.441  0.00  0.00    +0.000 C 
ATOM     37  H   UNL     1      45.636   1.839  10.038  0.00  0.00    +0.000 HD
ENDBRANCH  28  29
ENDBRANCH  25  28
ENDBRANCH  21  22
ENDBRANCH   3  21
TORSDOF 7
ENDMDL
MODEL 4
REMARK VINA RESULT:    -7.280      2.764      4.388
REMARK INTER + INTRA:         -11.499
REMARK INTER:                 -10.235
REMARK INTRA:                  -1.264
REMARK UNBOUND:                -1.240
REMARK  Name = 
REMARK  7 active torsions:
REMARK  status: ('A' for Active; 'I' for Inactive)
REMARK    1  A    between atoms: C_2  and  C_3
REMARK    2  A    between atoms: C_3  and  N_4
REMARK    3  A    between atoms: C_5  and  C_7
REMARK    4  A    between atoms: N_17  and  C_18
REMARK    5  A    between atoms: C_18  and  C_19
REMARK    6  A    between atoms: C_22  and  C_23
REMARK    7  A    between atoms: C_23  and  N_24
REMARK                            x       y       z     vdW  Elec       q    Type
REMARK                         _______ _______ _______ _____ _____    ______ ____
ROOT
ATOM      1  O   UNL     1      49.841   9.724  12.317  0.00  0.00    +0.000 OA
ATOM      2  C   UNL     1      49.825   9.023  13.325  0.00  0.00    +0.000 C 
ATOM      3  N   UNL     1      48.679   8.738  14.038  0.00  0.00    +0.000 N 
ATOM      4  H   UNL     1      48.781   8.330  14.962  0.00  0.00    +0.000 HD
ENDROOT
BRANCH   2   5
ATOM      5  C   UNL     1      51.107   8.463  13.945  0.00  0.00    +0.000 C 
BRANCH   5   6
ATOM      6  N   UNL     1      50.820   7.329  14.797  0.00  0.00    +0.000 N 
ATOM      7  C   UNL     1      51.575   7.027  15.897  0.00  0.00    +0.000 C 
ATOM      8  O   UNL     1      52.571   7.693  16.180  0.00  0.00    +0.000 OA
ATOM      9  H   UNL     1      50.066   6.714  14.499  0.00  0.00    +0.000 HD
BRANCH   7  10
ATOM     10  C   UNL     1      51.157   5.881  16.721  0.00  0.00    +0.000 A 
ATOM     11  C   UNL     1      52.120   5.140  17.395  0.00  0.00    +0.000 A 
ATOM     12  S   UNL     1      51.489   3.841  18.299  0.00  0.00    +0.000 S 
ATOM     13  C   UNL     1      49.899   4.213  17.827  0.00  0.00    +0.000 A 
ATOM     14  N   UNL     1      48.854   3.451  18.247  0.00  0.00    +0.000 NA
ATOM     15  C   UNL     1      47.702   3.837  17.812  0.00  0.00    +0.000 A 
ATOM     16  N   UNL     1      47.499   4.925  17.003  0.00  0.00    +0.000 N 
ATOM     17  C   UNL     1      48.522   5.733  16.567  0.00  0.00    +0.000 A 
ATOM     18  O   UNL     1      48.297   6.711  15.864  0.00  0.00    +0.000 OA
ATOM     19  C   UNL     1      49.846   5.328  17.006  0.00  0.00    +0.000 A 
ATOM     20  H   UNL     1      46.570   5.181  16.703  0.00  0.00    +0.000 HD
ENDBRANCH   7  10
ENDBRANCH   5   6
ENDBRANCH   2   5
BRANCH   3  21
ATOM     21  C   UNL     1      47.377   9.226  13.642  0.00  0.00    +0.000 C 
BRANCH  21  22
ATOM     22  C   UNL     1      46.649   8.229  12.772  0.00  0.00    +0.000 A 
ATOM     23  C   UNL     1      45.401   8.530  12.211  0.00  0.00    +0.000 A 
ATOM     24  C   UNL     1      44.717   7.585  11.433  0.00  0.00    +0.000 A 
ATOM     25  C   UNL     1      45.256   6.309  11.211  0.00  0.00    +0.000 A 
ATOM     26  C   UNL     1      46.520   6.021  11.746  0.00  0.00    +0.000 A 
ATOM     27  C   UNL     1      47.202   6.964  12.525  0.00  0.00    +0.000 A 
BRANCH  25  28
ATOM     28  C   UNL     1      44.479   5.250  10.462  0.00  0.00    +0.000 C 
BRANCH  28  29
ATOM     29  N   UNL     1      45.215   4.689   9.349  0.00  0.00    +0.000 N 
ATOM     30  C   UNL     1      45.398   3.328   9.286  0.00  0.00    +0.000 C 
ATOM     31  O   UNL     1      45.031   2.563  10.176  0.00  0.00    +0.000 OA
ATOM     32  N   UNL     1      46.034   2.883   8.148  0.00  0.00    +0.000 N 
ATOM     33  C   UNL     1      46.657   3.670   7.099  0.00  0.00    +0.000 C 
ATOM     34  C   UNL     1      46.679   2.715   5.919  0.00  0.00    +0.000 C 
ATOM     35  C   UNL     1      46.955   1.364   6.568  0.00  0.00    +0.000 C 
ATOM     36  C   UNL     1      46.327   1.469   7.958  0.00  0.00    +0.000 C 
ATOM     37  H   UNL     1      45.078   5.149   8.469  0.00  0.00    +0.000 HD
ENDBRANCH  28  29
ENDBRANCH  25  28
ENDBRANCH  21  22
ENDBRANCH   3  21
TORSDOF 7
ENDMDL
MODEL 5
REMARK VINA RESULT:    -7.256      3.871     10.280
REMARK INTER + INTRA:         -11.465
REMARK INTER:                 -10.480
REMARK INTRA:                  -0.985
REMARK UNBOUND:                -1.240
REMARK  Name = 
REMARK  7 active torsions:
REMARK  status: ('A' for Active; 'I' for Inactive)
REMARK    1  A    between atoms: C_2  and  C_3
REMARK    2  A    between atoms: C_3  and  N_4
REMARK    3  A    between atoms: C_5  and  C_7
REMARK    4  A    between atoms: N_17  and  C_18
REMARK    5  A    between atoms: C_18  and  C_19
REMARK    6  A    between atoms: C_22  and  C_23
REMARK    7  A    between atoms: C_23  and  N_24
REMARK                            x       y       z     vdW  Elec       q    Type
REMARK                         _______ _______ _______ _____ _____    ______ ____
ROOT
ATOM      1  O   UNL     1      48.874   6.907  18.091  0.00  0.00    +0.000 OA
ATOM      2  C   UNL     1      48.875   6.442  16.954  0.00  0.00    +0.000 C 
ATOM      3  N   UNL     1      48.926   5.091  16.683  0.00  0.00    +0.000 N 
ATOM      4  H   UNL     1      49.130   4.802  15.731  0.00  0.00    +0.000 HD
ENDROOT
BRANCH   2   5
ATOM      5  C   UNL     1      48.908   7.335  15.712  0.00  0.00    +0.000 C 
BRANCH   5   6
ATOM      6  N   UNL     1      47.758   7.093  14.867  0.00  0.00    +0.000 N 
ATOM      7  C   UNL     1      47.863   6.522  13.628  0.00  0.00    +0.000 C 
ATOM      8  O   UNL     1      48.964   6.232  13.159  0.00  0.00    +0.000 OA
ATOM      9  H   UNL     1      46.862   7.436  15.208  0.00  0.00    +0.000 HD
BRANCH   7  10
ATOM     10  C   UNL     1      46.619   6.274  12.881  0.00  0.00    +0.000 A 
ATOM     11  C   UNL     1      45.966   7.341  12.274  0.00  0.00    +0.000 A 
ATOM     12  S   UNL     1      44.539   6.904  11.453  0.00  0.00    +0.000 S 
ATOM     13  C   UNL     1      44.731   5.269  11.877  0.00  0.00    +0.000 A 
ATOM     14  N   UNL     1      43.811   4.341  11.497  0.00  0.00    +0.000 NA
ATOM     15  C   UNL     1      44.072   3.139  11.888  0.00  0.00    +0.000 A 
ATOM     16  N   UNL     1      45.176   2.779  12.616  0.00  0.00    +0.000 N 
ATOM     17  C   UNL     1      46.139   3.678  13.009  0.00  0.00    +0.000 A 
ATOM     18  O   UNL     1      47.124   3.313  13.639  0.00  0.00    +0.000 OA
ATOM     19  C   UNL     1      45.881   5.054  12.618  0.00  0.00    +0.000 A 
ATOM     20  H   UNL     1      45.328   1.818  12.885  0.00  0.00    +0.000 HD
ENDBRANCH   7  10
ENDBRANCH   5   6
ENDBRANCH   2   5
BRANCH   3  21
ATOM     21  C   UNL     1      48.960   4.091  17.727  0.00  0.00    +0.000 C 
BRANCH  21  22
ATOM     22  C   UNL     1      50.285   3.368  17.764  0.00  0.00    +0.000 A 
ATOM     23  C   UNL     1      50.397   2.035  17.347  0.00  0.00    +0.000 A 
ATOM     24  C   UNL     1      51.625   1.361  17.417  0.00  0.00    +0.000 A 
ATOM     25  C   UNL     1      52.768   1.999  17.922  0.00  0.00    +0.000 A 
ATOM     26  C   UNL     1      52.662   3.343  18.308  0.00  0.00    +0.000 A 
ATOM     27  C   UNL     1      51.434   4.015  18.240  0.00  0.00    +0.000 A 
BRANCH  25  28
ATOM     28  C   UNL     1      54.069   1.250  18.098  0.00  0.00    +0.000 C 
BRANCH  28  29
ATOM     29  N   UNL     1      53.887  -0.088  18.618  0.00  0.00    +0.000 N 
ATOM     30  C   UNL     1      54.445  -1.149  17.945  0.00  0.00    +0.000 C 
ATOM     31  O   UNL     1      55.032  -1.024  16.872  0.00  0.00    +0.000 OA
ATOM     32  N   UNL     1      54.290  -2.371  18.562  0.00  0.00    +0.000 N 
ATOM     33  C   UNL     1      53.497  -2.693  19.735  0.00  0.00    +0.000 C 
ATOM     34  C   UNL     1      54.131  -3.977  20.238  0.00  0.00    +0.000 C 
ATOM     35  C   UNL     1      54.510  -4.705  18.953  0.00  0.00    +0.000 C 
ATOM     36  C   UNL     1      54.800  -3.589  17.949  0.00  0.00    +0.000 C 
ATOM     37  H   UNL     1      53.883  -0.163  19.617  0.00  0.00    +0.000 HD
ENDBRANCH  28  29
ENDBRANCH  25  28
ENDBRANCH  21  22
ENDBRANCH   3  21
TORSDOF 7
ENDMDL
MODEL 6
REMARK VINA RESULT:    -7.204      2.708      3.922
REMARK INTER + INTRA:         -11.391
REMARK INTER:                 -10.281
REMARK INTRA:                  -1.110
REMARK UNBOUND:                -1.240
REMARK  Name = 
REMARK  7 active torsions:
REMARK  status: ('A' for Active; 'I' for Inactive)
REMARK    1  A    between atoms: C_2  and  C_3
REMARK    2  A    between atoms: C_3  and  N_4
REMARK    3  A    between atoms: C_5  and  C_7
REMARK    4  A    between atoms: N_17  and  C_18
REMARK    5  A    between atoms: C_18  and  C_19
REMARK    6  A    between atoms: C_22  and  C_23
REMARK    7  A    between atoms: C_23  and  N_24
REMARK                            x       y       z     vdW  Elec       q    Type
REMARK                         _______ _______ _______ _____ _____    ______ ____
ROOT
ATOM      1  O   UNL     1      50.017   9.262  13.458  0.00  0.00    +0.000 OA
ATOM      2  C   UNL     1      49.273   9.091  14.420  0.00  0.00    +0.000 C 
ATOM      3  N   UNL     1      47.907   9.271  14.369  0.00  0.00    +0.000 N 
ATOM      4  H   UNL     1      47.397   9.310  15.246  0.00  0.00    +0.000 HD
ENDROOT
BRANCH   2   5
ATOM      5  C   UNL     1      49.810   8.740  15.810  0.00  0.00    +0.000 C 
BRANCH   5   6
ATOM      6  N   UNL     1      49.793   7.310  16.028  0.00  0.00    +0.000 N 
ATOM      7  C   UNL     1      48.987   6.719  16.962  0.00  0.00    +0.000 C 
ATOM      8  O   UNL     1      48.270   7.399  17.697  0.00  0.00    +0.000 OA
ATOM      9  H   UNL     1      50.467   6.760  15.500  0.00  0.00    +0.000 HD
BRANCH   7  10
ATOM     10  C   UNL     1      49.014   5.251  17.059  0.00  0.00    +0.000 A 
ATOM     11  C   UNL     1      47.827   4.538  16.931  0.00  0.00    +0.000 A 
ATOM     12  S   UNL     1      48.013   2.850  17.073  0.00  0.00    +0.000 S 
ATOM     13  C   UNL     1      49.688   3.000  17.314  0.00  0.00    +0.000 A 
ATOM     14  N   UNL     1      50.460   1.899  17.528  0.00  0.00    +0.000 NA
ATOM     15  C   UNL     1      51.713   2.151  17.702  0.00  0.00    +0.000 A 
ATOM     16  N   UNL     1      52.268   3.404  17.670  0.00  0.00    +0.000 N 
ATOM     17  C   UNL     1      51.532   4.542  17.442  0.00  0.00    +0.000 A 
ATOM     18  O   UNL     1      52.069   5.643  17.398  0.00  0.00    +0.000 OA
ATOM     19  C   UNL     1      50.107   4.319  17.266  0.00  0.00    +0.000 A 
ATOM     20  H   UNL     1      53.260   3.535  17.805  0.00  0.00    +0.000 HD
ENDBRANCH   7  10
ENDBRANCH   5   6
ENDBRANCH   2   5
BRANCH   3  21
ATOM     21  C   UNL     1      47.220   9.659  13.157  0.00  0.00    +0.000 C 
BRANCH  21  22
ATOM     22  C   UNL     1      46.475   8.499  12.542  0.00  0.00    +0.000 A 
ATOM     23  C   UNL     1      47.036   7.215  12.501  0.00  0.00    +0.000 A 
ATOM     24  C   UNL     1      46.351   6.151  11.897  0.00  0.00    +0.000 A 
ATOM     25  C   UNL     1      45.095   6.348  11.304  0.00  0.00    +0.000 A 
ATOM     26  C   UNL     1      44.520   7.626  11.375  0.00  0.00    +0.000 A 
ATOM     27  C   UNL     1      45.206   8.689  11.976  0.00  0.00    +0.000 A 
BRANCH  25  28
ATOM     28  C   UNL     1      44.396   5.233  10.560  0.00  0.00    +0.000 C 
BRANCH  28  29
ATOM     29  N   UNL     1      45.171   4.718   9.452  0.00  0.00    +0.000 N 
ATOM     30  C   UNL     1      45.355   3.360   9.337  0.00  0.00    +0.000 C 
ATOM     31  O   UNL     1      44.955   2.560  10.180  0.00  0.00    +0.000 OA
ATOM     32  N   UNL     1      46.032   2.963   8.205  0.00  0.00    +0.000 N 
ATOM     33  C   UNL     1      46.694   3.792   7.214  0.00  0.00    +0.000 C 
ATOM     34  C   UNL     1      46.757   2.888   5.996  0.00  0.00    +0.000 C 
ATOM     35  C   UNL     1      47.008   1.510   6.597  0.00  0.00    +0.000 C 
ATOM     36  C   UNL     1      46.331   1.558   7.966  0.00  0.00    +0.000 C 
ATOM     37  H   UNL     1      45.066   5.215   8.588  0.00  0.00    +0.000 HD
ENDBRANCH  28  29
ENDBRANCH  25  28
ENDBRANCH  21  22
ENDBRANCH   3  21
TORSDOF 7
ENDMDL
MODEL 7
REMARK VINA RESULT:    -7.113      4.784      8.337
REMARK INTER + INTRA:         -11.263
REMARK INTER:                 -10.059
REMARK INTRA:                  -1.204
REMARK UNBOUND:                -1.240
REMARK  Name = 
REMARK  7 active torsions:
REMARK  status: ('A' for Active; 'I' for Inactive)
REMARK    1  A    between atoms: C_2  and  C_3
REMARK    2  A    between atoms: C_3  and  N_4
REMARK    3  A    between atoms: C_5  and  C_7
REMARK    4  A    between atoms: N_17  and  C_18
REMARK    5  A    between atoms: C_18  and  C_19
REMARK    6  A    between atoms: C_22  and  C_23
REMARK    7  A    between atoms: C_23  and  N_24
REMARK                            x       y       z     vdW  Elec       q    Type
REMARK                         _______ _______ _______ _____ _____    ______ ____
ROOT
ATOM      1  O   UNL     1      49.675   3.083  16.937  0.00  0.00    +0.000 OA
ATOM      2  C   UNL     1      48.772   3.910  17.036  0.00  0.00    +0.000 C 
ATOM      3  N   UNL     1      48.955   5.184  17.532  0.00  0.00    +0.000 N 
ATOM      4  H   UNL     1      48.131   5.726  17.771  0.00  0.00    +0.000 HD
ENDROOT
BRANCH   2   5
ATOM      5  C   UNL     1      47.320   3.571  16.693  0.00  0.00    +0.000 C 
BRANCH   5   6
ATOM      6  N   UNL     1      46.785   4.499  15.720  0.00  0.00    +0.000 N 
ATOM      7  C   UNL     1      46.785   4.238  14.377  0.00  0.00    +0.000 C 
ATOM      8  O   UNL     1      47.292   3.206  13.936  0.00  0.00    +0.000 OA
ATOM      9  H   UNL     1      46.470   5.400  16.074  0.00  0.00    +0.000 HD
BRANCH   7  10
ATOM     10  C   UNL     1      46.165   5.232  13.486  0.00  0.00    +0.000 A 
ATOM     11  C   UNL     1      46.842   6.414  13.211  0.00  0.00    +0.000 A 
ATOM     12  S   UNL     1      45.999   7.470  12.172  0.00  0.00    +0.000 S 
ATOM     13  C   UNL     1      44.691   6.391  12.048  0.00  0.00    +0.000 A 
ATOM     14  N   UNL     1      43.596   6.710  11.306  0.00  0.00    +0.000 NA
ATOM     15  C   UNL     1      42.674   5.809  11.300  0.00  0.00    +0.000 A 
ATOM     16  N   UNL     1      42.751   4.610  11.960  0.00  0.00    +0.000 N 
ATOM     17  C   UNL     1      43.842   4.238  12.709  0.00  0.00    +0.000 A 
ATOM     18  O   UNL     1      43.883   3.147  13.265  0.00  0.00    +0.000 OA
ATOM     19  C   UNL     1      44.902   5.230  12.773  0.00  0.00    +0.000 A 
ATOM     20  H   UNL     1      41.997   3.941  11.909  0.00  0.00    +0.000 HD
ENDBRANCH   7  10
ENDBRANCH   5   6
ENDBRANCH   2   5
BRANCH   3  21
ATOM     21  C   UNL     1      50.246   5.670  17.964  0.00  0.00    +0.000 C 
BRANCH  21  22
ATOM     22  C   UNL     1      50.979   6.374  16.846  0.00  0.00    +0.000 A 
ATOM     23  C   UNL     1      52.377   6.346  16.764  0.00  0.00    +0.000 A 
ATOM     24  C   UNL     1      53.050   7.031  15.742  0.00  0.00    +0.000 A 
ATOM     25  C   UNL     1      52.342   7.776  14.788  0.00  0.00    +0.000 A 
ATOM     26  C   UNL     1      50.941   7.777  14.852  0.00  0.00    +0.000 A 
ATOM     27  C   UNL     1      50.269   7.093  15.875  0.00  0.00    +0.000 A 
BRANCH  25  28
ATOM     28  C   UNL     1      53.062   8.602  13.746  0.00  0.00    +0.000 C 
BRANCH  28  29
ATOM     29  N   UNL     1      53.433   7.838  12.575  0.00  0.00    +0.000 N 
ATOM     30  C   UNL     1      52.686   7.967  11.427  0.00  0.00    +0.000 C 
ATOM     31  O   UNL     1      51.663   8.647  11.371  0.00  0.00    +0.000 OA
ATOM     32  N   UNL     1      53.166   7.267  10.343  0.00  0.00    +0.000 N 
ATOM     33  C   UNL     1      54.257   6.309  10.301  0.00  0.00    +0.000 C 
ATOM     34  C   UNL     1      54.659   6.309   8.837  0.00  0.00    +0.000 C 
ATOM     35  C   UNL     1      53.329   6.468   8.110  0.00  0.00    +0.000 C 
ATOM     36  C   UNL     1      52.460   7.281   9.070  0.00  0.00    +0.000 C 
ATOM     37  H   UNL     1      54.418   7.713  12.437  0.00  0.00    +0.000 HD
ENDBRANCH  28  29
ENDBRANCH  25  28
ENDBRANCH  21  22
ENDBRANCH   3  21
TORSDOF 7
ENDMDL
MODEL 8
REMARK VINA RESULT:    -7.010      5.824      7.363
REMARK INTER + INTRA:         -11.119
REMARK INTER:                 -10.250
REMARK INTRA:                  -0.868
REMARK UNBOUND:                -1.240
REMARK  Name = 
REMARK  7 active torsions:
REMARK  status: ('A' for Active; 'I' for Inactive)
REMARK    1  A    between atoms: C_2  and  C_3
REMARK    2  A    between atoms: C_3  and  N_4
REMARK    3  A    between atoms: C_5  and  C_7
REMARK    4  A    between atoms: N_17  and  C_18
REMARK    5  A    between atoms: C_18  and  C_19
REMARK    6  A    between atoms: C_22  and  C_23
REMARK    7  A    between atoms: C_23  and  N_24
REMARK                            x       y       z     vdW  Elec       q    Type
REMARK                         _______ _______ _______ _____ _____    ______ ____
ROOT
ATOM      1  O   UNL     1      48.689   9.569  11.479  0.00  0.00    +0.000 OA
ATOM      2  C   UNL     1      49.331   8.962  12.331  0.00  0.00    +0.000 C 
ATOM      3  N   UNL     1      48.782   8.478  13.500  0.00  0.00    +0.000 N 
ATOM      4  H   UNL     1      49.413   8.175  14.235  0.00  0.00    +0.000 HD
ENDROOT
BRANCH   2   5
ATOM      5  C   UNL     1      50.843   8.756  12.215  0.00  0.00    +0.000 C 
BRANCH   5   6
ATOM      6  N   UNL     1      51.230   8.509  10.843  0.00  0.00    +0.000 N 
ATOM      7  C   UNL     1      52.531   8.572  10.424  0.00  0.00    +0.000 C 
ATOM      8  O   UNL     1      53.429   8.893  11.202  0.00  0.00    +0.000 OA
ATOM      9  H   UNL     1      50.476   8.355  10.177  0.00  0.00    +0.000 HD
BRANCH   7  10
ATOM     10  C   UNL     1      52.813   8.248   9.016  0.00  0.00    +0.000 A 
ATOM     11  C   UNL     1      52.723   9.249   8.056  0.00  0.00    +0.000 A 
ATOM     12  S   UNL     1      53.069   8.725   6.472  0.00  0.00    +0.000 S 
ATOM     13  C   UNL     1      53.351   7.135   7.002  0.00  0.00    +0.000 A 
ATOM     14  N   UNL     1      53.674   6.154   6.115  0.00  0.00    +0.000 NA
ATOM     15  C   UNL     1      53.855   4.993   6.645  0.00  0.00    +0.000 A 
ATOM     16  N   UNL     1      53.755   4.723   7.985  0.00  0.00    +0.000 N 
ATOM     17  C   UNL     1      53.447   5.683   8.920  0.00  0.00    +0.000 A 
ATOM     18  O   UNL     1      53.389   5.407  10.112  0.00  0.00    +0.000 OA
ATOM     19  C   UNL     1      53.204   7.007   8.373  0.00  0.00    +0.000 A 
ATOM     20  H   UNL     1      53.918   3.793   8.340  0.00  0.00    +0.000 HD
ENDBRANCH   7  10
ENDBRANCH   5   6
ENDBRANCH   2   5
BRANCH   3  21
ATOM     21  C   UNL     1      47.379   8.627  13.817  0.00  0.00    +0.000 C 
BRANCH  21  22
ATOM     22  C   UNL     1      46.518   7.714  12.977  0.00  0.00    +0.000 A 
ATOM     23  C   UNL     1      46.761   6.335  12.921  0.00  0.00    +0.000 A 
ATOM     24  C   UNL     1      45.978   5.500  12.111  0.00  0.00    +0.000 A 
ATOM     25  C   UNL     1      44.943   6.026  11.324  0.00  0.00    +0.000 A 
ATOM     26  C   UNL     1      44.679   7.401  11.406  0.00  0.00    +0.000 A 
ATOM     27  C   UNL     1      45.464   8.236  12.214  0.00  0.00    +0.000 A 
BRANCH  25  28
ATOM     28  C   UNL     1      44.162   5.151  10.370  0.00  0.00    +0.000 C 
BRANCH  28  29
ATOM     29  N   UNL     1      44.968   4.638   9.283  0.00  0.00    +0.000 N 
ATOM     30  C   UNL     1      45.279   3.299   9.255  0.00  0.00    +0.000 C 
ATOM     31  O   UNL     1      44.970   2.523  10.157  0.00  0.00    +0.000 OA
ATOM     32  N   UNL     1      45.976   2.891   8.140  0.00  0.00    +0.000 N 
ATOM     33  C   UNL     1      46.542   3.709   7.082  0.00  0.00    +0.000 C 
ATOM     34  C   UNL     1      46.676   2.734   5.926  0.00  0.00    +0.000 C 
ATOM     35  C   UNL     1      47.066   1.431   6.612  0.00  0.00    +0.000 C 
ATOM     36  C   UNL     1      46.405   1.507   7.989  0.00  0.00    +0.000 C 
ATOM     37  H   UNL     1      44.804   5.063   8.390  0.00  0.00    +0.000 HD
ENDBRANCH  28  29
ENDBRANCH  25  28
ENDBRANCH  21  22
ENDBRANCH   3  21
TORSDOF 7
ENDMDL
MODEL 9
REMARK VINA RESULT:    -6.945      3.384      4.712
REMARK INTER + INTRA:         -11.027
REMARK INTER:                 -10.057
REMARK INTRA:                  -0.970
REMARK UNBOUND:                -1.240
REMARK  Name = 
REMARK  7 active torsions:
REMARK  status: ('A' for Active; 'I' for Inactive)
REMARK    1  A    between atoms: C_2  and  C_3
REMARK    2  A    between atoms: C_3  and  N_4
REMARK    3  A    between atoms: C_5  and  C_7
REMARK    4  A    between atoms: N_17  and  C_18
REMARK    5  A    between atoms: C_18  and  C_19
REMARK    6  A    between atoms: C_22  and  C_23
REMARK    7  A    between atoms: C_23  and  N_24
REMARK                            x       y       z     vdW  Elec       q    Type
REMARK                         _______ _______ _______ _____ _____    ______ ____
ROOT
ATOM      1  O   UNL     1      49.307   8.789  12.643  0.00  0.00    +0.000 OA
ATOM      2  C   UNL     1      49.163   8.303  13.762  0.00  0.00    +0.000 C 
ATOM      3  N   UNL     1      47.966   8.301  14.445  0.00  0.00    +0.000 N 
ATOM      4  H   UNL     1      47.979   8.069  15.433  0.00  0.00    +0.000 HD
ENDROOT
BRANCH   2   5
ATOM      5  C   UNL     1      50.339   7.723  14.551  0.00  0.00    +0.000 C 
BRANCH   5   6
ATOM      6  N   UNL     1      49.972   7.489  15.932  0.00  0.00    +0.000 N 
ATOM      7  C   UNL     1      49.277   6.380  16.329  0.00  0.00    +0.000 C 
ATOM      8  O   UNL     1      48.889   5.551  15.506  0.00  0.00    +0.000 OA
ATOM      9  H   UNL     1      50.194   8.229  16.594  0.00  0.00    +0.000 HD
BRANCH   7  10
ATOM     10  C   UNL     1      49.007   6.221  17.767  0.00  0.00    +0.000 A 
ATOM     11  C   UNL     1      49.382   5.043  18.404  0.00  0.00    +0.000 A 
ATOM     12  S   UNL     1      48.999   4.999  20.063  0.00  0.00    +0.000 S 
ATOM     13  C   UNL     1      48.312   6.552  20.002  0.00  0.00    +0.000 A 
ATOM     14  N   UNL     1      47.762   7.113  21.113  0.00  0.00    +0.000 NA
ATOM     15  C   UNL     1      47.270   8.291  20.930  0.00  0.00    +0.000 A 
ATOM     16  N   UNL     1      47.288   8.966  19.737  0.00  0.00    +0.000 N 
ATOM     17  C   UNL     1      47.846   8.448  18.593  0.00  0.00    +0.000 A 
ATOM     18  O   UNL     1      47.863   9.093  17.551  0.00  0.00    +0.000 OA
ATOM     19  C   UNL     1      48.392   7.109  18.736  0.00  0.00    +0.000 A 
ATOM     20  H   UNL     1      46.893   9.892  19.660  0.00  0.00    +0.000 HD
ENDBRANCH   7  10
ENDBRANCH   5   6
ENDBRANCH   2   5
BRANCH   3  21
ATOM     21  C   UNL     1      46.753   8.857  13.886  0.00  0.00    +0.000 C 
BRANCH  21  22
ATOM     22  C   UNL     1      46.108   7.910  12.902  0.00  0.00    +0.000 A 
ATOM     23  C   UNL     1      45.095   8.343  12.036  0.00  0.00    +0.000 A 
ATOM     24  C   UNL     1      44.478   7.449  11.149  0.00  0.00    +0.000 A 
ATOM     25  C   UNL     1      44.847   6.096  11.119  0.00  0.00    +0.000 A 
ATOM     26  C   UNL     1      45.883   5.672  11.962  0.00  0.00    +0.000 A 
ATOM     27  C   UNL     1      46.498   6.565  12.850  0.00  0.00    +0.000 A 
BRANCH  25  28
ATOM     28  C   UNL     1      44.117   5.104  10.241  0.00  0.00    +0.000 C 
BRANCH  28  29
ATOM     29  N   UNL     1      44.937   4.586   9.168  0.00  0.00    +0.000 N 
ATOM     30  C   UNL     1      45.279   3.254   9.170  0.00  0.00    +0.000 C 
ATOM     31  O   UNL     1      44.984   2.491  10.088  0.00  0.00    +0.000 OA
ATOM     32  N   UNL     1      45.989   2.838   8.066  0.00  0.00    +0.000 N 
ATOM     33  C   UNL     1      46.539   3.646   6.992  0.00  0.00    +0.000 C 
ATOM     34  C   UNL     1      46.698   2.649   5.858  0.00  0.00    +0.000 C 
ATOM     35  C   UNL     1      47.115   1.370   6.574  0.00  0.00    +0.000 C 
ATOM     36  C   UNL     1      46.448   1.461   7.946  0.00  0.00    +0.000 C 
ATOM     37  H   UNL     1      44.768   4.988   8.265  0.00  0.00    +0.000 HD
ENDBRANCH  28  29
ENDBRANCH  25  28
ENDBRANCH  21  22
ENDBRANCH   3  21
TORSDOF 7
ENDMDL
