MODEL 1
REMARK VINA RESULT:    -9.797      0.000      0.000
REMARK INTER + INTRA:         -13.211
REMARK INTER:                 -12.947
REMARK INTRA:                  -0.264
REMARK UNBOUND:                -0.264
REMARK  Name = 
REMARK  7 active torsions:
REMARK  status: ('A' for Active; 'I' for Inactive)
REMARK    1  A    between atoms: C_1  and  C_2
REMARK    2  A    between atoms: C_2  and  N_3
REMARK    3  A    between atoms: C_2  and  C_16
REMARK    4  A    between atoms: C_4  and  C_6
REMARK    5  A    between atoms: C_19  and  S_20
REMARK    6  A    between atoms: S_20  and  C_21
REMARK    7  A    between atoms: C_24  and  O_25
REMARK                            x       y       z     vdW  Elec       q    Type
REMARK                         _______ _______ _______ _____ _____    ______ ____
ROOT
ATOM      1  C   UNL     1      45.498   8.371  12.722  0.00  0.00    +0.000 C 
ATOM      2  C   UNL     1      46.519   7.238  12.661  0.00  0.00    +0.000 C 
ENDROOT
BRANCH   2   3
ATOM      3  C   UNL     1      45.969   6.033  11.926  0.00  0.00    +0.000 A 
ATOM      4  C   UNL     1      45.567   4.865  12.580  0.00  0.00    +0.000 A 
ATOM      5  C   UNL     1      45.094   3.780  11.844  0.00  0.00    +0.000 A 
ATOM      6  C   UNL     1      45.024   3.886  10.462  0.00  0.00    +0.000 A 
ATOM      7  N   UNL     1      45.369   5.011   9.797  0.00  0.00    +0.000 NA
ATOM      8  C   UNL     1      45.829   6.049  10.538  0.00  0.00    +0.000 A 
BRANCH   6   9
ATOM      9  S   UNL     1      44.420   2.512   9.500  0.00  0.00    +0.000 S 
BRANCH   9  10
ATOM     10  C   UNL     1      45.689   2.372   8.263  0.00  0.00    +0.000 A 
ATOM     11  C   UNL     1      45.960   3.405   7.366  0.00  0.00    +0.000 A 
ATOM     12  C   UNL     1      46.932   3.235   6.380  0.00  0.00    +0.000 A 
ATOM     13  C   UNL     1      47.600   2.024   6.324  0.00  0.00    +0.000 A 
ATOM     14  N   UNL     1      47.372   1.002   7.164  0.00  0.00    +0.000 NA
ATOM     15  C   UNL     1      46.418   1.196   8.108  0.00  0.00    +0.000 A 
BRANCH  13  16
ATOM     16  O   UNL     1      48.553   1.787   5.378  0.00  0.00    +0.000 OA
ATOM     17  H   UNL     1      48.736   2.622   4.923  0.00  0.00    +0.000 HD
ENDBRANCH  13  16
ENDBRANCH   9  10
ENDBRANCH   6   9
ENDBRANCH   2   3
BRANCH   2  18
ATOM     18  N   UNL     1      46.973   6.904  14.001  0.00  0.00    +0.000 N 
ATOM     19  C   UNL     1      48.287   6.596  14.277  0.00  0.00    +0.000 C 
ATOM     20  O   UNL     1      49.154   6.628  13.413  0.00  0.00    +0.000 OA
ATOM     21  H   UNL     1      46.313   6.806  14.768  0.00  0.00    +0.000 HD
BRANCH  19  22
ATOM     22  C   UNL     1      48.554   6.276  15.697  0.00  0.00    +0.000 A 
ATOM     23  N   UNL     1      49.246   7.168  16.433  0.00  0.00    +0.000 NA
ATOM     24  S   UNL     1      49.511   6.547  17.946  0.00  0.00    +0.000 S 
ATOM     25  C   UNL     1      48.698   5.076  17.686  0.00  0.00    +0.000 A 
ATOM     26  N   UNL     1      48.602   4.090  18.618  0.00  0.00    +0.000 NA
ATOM     27  C   UNL     1      47.959   3.046  18.207  0.00  0.00    +0.000 A 
ATOM     28  N   UNL     1      47.400   2.916  16.960  0.00  0.00    +0.000 N 
ATOM     29  C   UNL     1      47.428   3.910  16.005  0.00  0.00    +0.000 A 
ATOM     30  O   UNL     1      46.819   3.767  14.953  0.00  0.00    +0.000 OA
ATOM     31  C   UNL     1      48.186   5.076  16.402  0.00  0.00    +0.000 A 
ATOM     32  H   UNL     1      46.877   2.089  16.709  0.00  0.00    +0.000 HD
ENDBRANCH  19  22
ENDBRANCH   2  18
TORSDOF 6
ENDMDL
MODEL 2
REMARK VINA RESULT:    -8.960      1.805      2.418
REMARK INTER + INTRA:         -12.104
REMARK INTER:                 -11.421
REMARK INTRA:                  -0.683
REMARK UNBOUND:                -0.264
REMARK  Name = 
REMARK  7 active torsions:
REMARK  status: ('A' for Active; 'I' for Inactive)
REMARK    1  A    between atoms: C_1  and  C_2
REMARK    2  A    between atoms: C_2  and  N_3
REMARK    3  A    between atoms: C_2  and  C_16
REMARK    4  A    between atoms: C_4  and  C_6
REMARK    5  A    between atoms: C_19  and  S_20
REMARK    6  A    between atoms: S_20  and  C_21
REMARK    7  A    between atoms: C_24  and  O_25
REMARK                            x       y       z     vdW  Elec       q    Type
REMARK                         _______ _______ _______ _____ _____    ______ ____
ROOT
ATOM      1  C   UNL     1      46.828   8.143  13.493  0.00  0.00    +0.000 C 
ATOM      2  C   UNL     1      47.403   6.732  13.405  0.00  0.00    +0.000 C 
ENDROOT
BRANCH   2   3
ATOM      3  C   UNL     1      46.581   5.852  12.485  0.00  0.00    +0.000 A 
ATOM      4  C   UNL     1      46.056   4.620  12.885  0.00  0.00    +0.000 A 
ATOM      5  C   UNL     1      45.330   3.845  11.981  0.00  0.00    +0.000 A 
ATOM      6  C   UNL     1      45.134   4.322  10.694  0.00  0.00    +0.000 A 
ATOM      7  N   UNL     1      45.594   5.525  10.282  0.00  0.00    +0.000 NA
ATOM      8  C   UNL     1      46.301   6.256  11.180  0.00  0.00    +0.000 A 
BRANCH   6   9
ATOM      9  S   UNL     1      44.206   3.349   9.522  0.00  0.00    +0.000 S 
BRANCH   9  10
ATOM     10  C   UNL     1      45.497   2.795   8.433  0.00  0.00    +0.000 A 
ATOM     11  C   UNL     1      45.916   1.465   8.404  0.00  0.00    +0.000 A 
ATOM     12  C   UNL     1      46.966   1.083   7.568  0.00  0.00    +0.000 A 
ATOM     13  C   UNL     1      47.566   2.057   6.788  0.00  0.00    +0.000 A 
ATOM     14  N   UNL     1      47.198   3.347   6.783  0.00  0.00    +0.000 NA
ATOM     15  C   UNL     1      46.178   3.688   7.610  0.00  0.00    +0.000 A 
BRANCH  13  16
ATOM     16  O   UNL     1      48.604   1.753   5.958  0.00  0.00    +0.000 OA
ATOM     17  H   UNL     1      49.097   1.020   6.353  0.00  0.00    +0.000 HD
ENDBRANCH  13  16
ENDBRANCH   9  10
ENDBRANCH   6   9
ENDBRANCH   2   3
BRANCH   2  18
ATOM     18  N   UNL     1      47.532   6.163  14.737  0.00  0.00    +0.000 N 
ATOM     19  C   UNL     1      48.727   6.162  15.423  0.00  0.00    +0.000 C 
ATOM     20  O   UNL     1      49.737   6.679  14.963  0.00  0.00    +0.000 OA
ATOM     21  H   UNL     1      46.758   5.671  15.174  0.00  0.00    +0.000 HD
BRANCH  19  22
ATOM     22  C   UNL     1      48.663   5.532  16.761  0.00  0.00    +0.000 A 
ATOM     23  N   UNL     1      48.867   4.203  16.851  0.00  0.00    +0.000 NA
ATOM     24  S   UNL     1      48.642   3.715  18.418  0.00  0.00    +0.000 S 
ATOM     25  C   UNL     1      48.284   5.258  19.041  0.00  0.00    +0.000 A 
ATOM     26  N   UNL     1      47.969   5.493  20.343  0.00  0.00    +0.000 NA
ATOM     27  C   UNL     1      47.711   6.734  20.600  0.00  0.00    +0.000 A 
ATOM     28  N   UNL     1      47.756   7.747  19.675  0.00  0.00    +0.000 N 
ATOM     29  C   UNL     1      48.123   7.561  18.358  0.00  0.00    +0.000 A 
ATOM     30  O   UNL     1      48.245   8.525  17.614  0.00  0.00    +0.000 OA
ATOM     31  C   UNL     1      48.366   6.179  18.013  0.00  0.00    +0.000 A 
ATOM     32  H   UNL     1      47.581   8.705  19.944  0.00  0.00    +0.000 HD
ENDBRANCH  19  22
ENDBRANCH   2  18
TORSDOF 6
ENDMDL
MODEL 3
REMARK VINA RESULT:    -8.900      1.508      2.410
REMARK INTER + INTRA:         -12.025
REMARK INTER:                 -11.650
REMARK INTRA:                  -0.375
REMARK UNBOUND:                -0.264
REMARK  Name = 
REMARK  7 active torsions:
REMARK  status: ('A' for Active; 'I' for Inactive)
REMARK    1  A    between atoms: C_1  and  C_2
REMARK    2  A    between atoms: C_2  and  N_3
REMARK    3  A    between atoms: C_2  and  C_16
REMARK    4  A    between atoms: C_4  and  C_6
REMARK    5  A    between atoms: C_19  and  S_20
REMARK    6  A    between atoms: S_20  and  C_21
REMARK    7  A    between atoms: C_24  and  O_25
REMARK                            x       y       z     vdW  Elec       q    Type
REMARK                         _______ _______ _______ _____ _____    ______ ____
ROOT
ATOM      1  C   UNL     1      45.343   8.313  12.608  0.00  0.00    +0.000 C 
ATOM      2  C   UNL     1      46.415   7.229  12.521  0.00  0.00    +0.000 C 
ENDROOT
BRANCH   2   3
ATOM      3  C   UNL     1      45.902   5.996  11.805  0.00  0.00    +0.000 A 
ATOM      4  C   UNL     1      45.594   4.806  12.470  0.00  0.00    +0.000 A 
ATOM      5  C   UNL     1      45.152   3.698  11.749  0.00  0.00    +0.000 A 
ATOM      6  C   UNL     1      45.016   3.803  10.373  0.00  0.00    +0.000 A 
ATOM      7  N   UNL     1      45.268   4.947   9.699  0.00  0.00    +0.000 NA
ATOM      8  C   UNL     1      45.702   6.008  10.425  0.00  0.00    +0.000 A 
BRANCH   6   9
ATOM      9  S   UNL     1      44.449   2.399   9.431  0.00  0.00    +0.000 S 
BRANCH   9  10
ATOM     10  C   UNL     1      45.698   2.302   8.169  0.00  0.00    +0.000 A 
ATOM     11  C   UNL     1      45.902   3.335   7.253  0.00  0.00    +0.000 A 
ATOM     12  C   UNL     1      46.861   3.197   6.250  0.00  0.00    +0.000 A 
ATOM     13  C   UNL     1      47.584   2.018   6.196  0.00  0.00    +0.000 A 
ATOM     14  N   UNL     1      47.422   0.998   7.054  0.00  0.00    +0.000 NA
ATOM     15  C   UNL     1      46.479   1.160   8.015  0.00  0.00    +0.000 A 
BRANCH  13  16
ATOM     16  O   UNL     1      48.528   1.814   5.233  0.00  0.00    +0.000 OA
ATOM     17  H   UNL     1      48.618   2.633   4.726  0.00  0.00    +0.000 HD
ENDBRANCH  13  16
ENDBRANCH   9  10
ENDBRANCH   6   9
ENDBRANCH   2   3
BRANCH   2  18
ATOM     18  N   UNL     1      46.921   6.920  13.850  0.00  0.00    +0.000 N 
ATOM     19  C   UNL     1      48.229   6.552  14.070  0.00  0.00    +0.000 C 
ATOM     20  O   UNL     1      49.050   6.504  13.162  0.00  0.00    +0.000 OA
ATOM     21  H   UNL     1      46.299   6.888  14.653  0.00  0.00    +0.000 HD
BRANCH  19  22
ATOM     22  C   UNL     1      48.555   6.271  15.486  0.00  0.00    +0.000 A 
ATOM     23  N   UNL     1      48.399   5.012  15.940  0.00  0.00    +0.000 NA
ATOM     24  S   UNL     1      48.720   4.966  17.564  0.00  0.00    +0.000 S 
ATOM     25  C   UNL     1      49.098   6.618  17.723  0.00  0.00    +0.000 A 
ATOM     26  N   UNL     1      49.433   7.207  18.902  0.00  0.00    +0.000 NA
ATOM     27  C   UNL     1      49.662   8.475  18.803  0.00  0.00    +0.000 A 
ATOM     28  N   UNL     1      49.599   9.190  17.633  0.00  0.00    +0.000 N 
ATOM     29  C   UNL     1      49.317   8.623  16.408  0.00  0.00    +0.000 A 
ATOM     30  O   UNL     1      49.381   9.299  15.390  0.00  0.00    +0.000 OA
ATOM     31  C   UNL     1      48.998   7.214  16.480  0.00  0.00    +0.000 A 
ATOM     32  H   UNL     1      49.825  10.174  17.612  0.00  0.00    +0.000 HD
ENDBRANCH  19  22
ENDBRANCH   2  18
TORSDOF 6
ENDMDL
MODEL 4
REMARK VINA RESULT:    -8.322      2.636      3.899
REMARK INTER + INTRA:         -11.262
REMARK INTER:                 -10.267
REMARK INTRA:                  -0.994
REMARK UNBOUND:                -0.264
REMARK  Name = 
REMARK  7 active torsions:
REMARK  status: ('A' for Active; 'I' for Inactive)
REMARK    1  A    between atoms: C_1  and  C_2
REMARK    2  A    between atoms: C_2  and  N_3
REMARK    3  A    between atoms: C_2  and  C_16
REMARK    4  A    between atoms: C_4  and  C_6
REMARK    5  A    between atoms: C_19  and  S_20
REMARK    6  A    between atoms: S_20  and  C_21
REMARK    7  A    between atoms: C_24  and  O_25
REMARK                            x       y       z     vdW  Elec       q    Type
REMARK                         _______ _______ _______ _____ _____    ______ ____
ROOT
ATOM      1  C   UNL     1      47.114   4.524  14.966  0.00  0.00    +0.000 C 
ATOM      2  C   UNL     1      46.768   5.552  13.892  0.00  0.00    +0.000 C 
ENDROOT
BRANCH   2   3
ATOM      3  C   UNL     1      46.141   4.898  12.677  0.00  0.00    +0.000 A 
ATOM      4  C   UNL     1      45.882   5.593  11.493  0.00  0.00    +0.000 A 
ATOM      5  C   UNL     1      45.278   4.940  10.419  0.00  0.00    +0.000 A 
ATOM      6  C   UNL     1      44.952   3.597  10.547  0.00  0.00    +0.000 A 
ATOM      7  N   UNL     1      45.222   2.883  11.663  0.00  0.00    +0.000 NA
ATOM      8  C   UNL     1      45.805   3.545  12.693  0.00  0.00    +0.000 A 
BRANCH   6   9
ATOM      9  S   UNL     1      44.182   2.741   9.186  0.00  0.00    +0.000 S 
BRANCH   9  10
ATOM     10  C   UNL     1      45.567   2.509   8.096  0.00  0.00    +0.000 A 
ATOM     11  C   UNL     1      45.919   3.461   7.138  0.00  0.00    +0.000 A 
ATOM     12  C   UNL     1      46.984   3.216   6.271  0.00  0.00    +0.000 A 
ATOM     13  C   UNL     1      47.661   2.015   6.393  0.00  0.00    +0.000 A 
ATOM     14  N   UNL     1      47.359   1.070   7.297  0.00  0.00    +0.000 NA
ATOM     15  C   UNL     1      46.315   1.335   8.122  0.00  0.00    +0.000 A 
BRANCH  13  16
ATOM     16  O   UNL     1      48.704   1.708   5.569  0.00  0.00    +0.000 OA
ATOM     17  H   UNL     1      48.767   0.744   5.514  0.00  0.00    +0.000 HD
ENDBRANCH  13  16
ENDBRANCH   9  10
ENDBRANCH   6   9
ENDBRANCH   2   3
BRANCH   2  18
ATOM     18  N   UNL     1      47.948   6.330  13.549  0.00  0.00    +0.000 N 
ATOM     19  C   UNL     1      47.922   7.704  13.460  0.00  0.00    +0.000 C 
ATOM     20  O   UNL     1      46.910   8.350  13.705  0.00  0.00    +0.000 OA
ATOM     21  H   UNL     1      48.817   5.875  13.282  0.00  0.00    +0.000 HD
BRANCH  19  22
ATOM     22  C   UNL     1      49.217   8.318  13.092  0.00  0.00    +0.000 A 
ATOM     23  N   UNL     1      49.264   9.105  11.999  0.00  0.00    +0.000 NA
ATOM     24  S   UNL     1      50.826   9.586  11.731  0.00  0.00    +0.000 S 
ATOM     25  C   UNL     1      51.498   8.781  13.071  0.00  0.00    +0.000 A 
ATOM     26  N   UNL     1      52.825   8.788  13.370  0.00  0.00    +0.000 NA
ATOM     27  C   UNL     1      53.126   8.095  14.420  0.00  0.00    +0.000 A 
ATOM     28  N   UNL     1      52.217   7.417  15.192  0.00  0.00    +0.000 N 
ATOM     29  C   UNL     1      50.858   7.427  14.956  0.00  0.00    +0.000 A 
ATOM     30  O   UNL     1      50.095   6.887  15.746  0.00  0.00    +0.000 OA
ATOM     31  C   UNL     1      50.482   8.144  13.759  0.00  0.00    +0.000 A 
ATOM     32  H   UNL     1      52.508   6.922  16.023  0.00  0.00    +0.000 HD
ENDBRANCH  19  22
ENDBRANCH   2  18
TORSDOF 6
ENDMDL
MODEL 5
REMARK VINA RESULT:    -7.948      3.049      7.961
REMARK INTER + INTRA:         -10.768
REMARK INTER:                 -10.002
REMARK INTRA:                  -0.766
REMARK UNBOUND:                -0.264
REMARK  Name = 
REMARK  7 active torsions:
REMARK  status: ('A' for Active; 'I' for Inactive)
REMARK    1  A    between atoms: C_1  and  C_2
REMARK    2  A    between atoms: C_2  and  N_3
REMARK    3  A    between atoms: C_2  and  C_16
REMARK    4  A    between atoms: C_4  and  C_6
REMARK    5  A    between atoms: C_19  and  S_20
REMARK    6  A    between atoms: S_20  and  C_21
REMARK    7  A    between atoms: C_24  and  O_25
REMARK                            x       y       z     vdW  Elec       q    Type
REMARK                         _______ _______ _______ _____ _____    ______ ____
ROOT
ATOM      1  C   UNL     1      49.277   7.916  12.078  0.00  0.00    +0.000 C 
ATOM      2  C   UNL     1      48.005   7.489  12.807  0.00  0.00    +0.000 C 
ENDROOT
BRANCH   2   3
ATOM      3  C   UNL     1      48.299   7.052  14.228  0.00  0.00    +0.000 A 
ATOM      4  C   UNL     1      48.870   7.902  15.179  0.00  0.00    +0.000 A 
ATOM      5  C   UNL     1      49.140   7.431  16.463  0.00  0.00    +0.000 A 
ATOM      6  C   UNL     1      48.824   6.117  16.776  0.00  0.00    +0.000 A 
ATOM      7  N   UNL     1      48.236   5.277  15.895  0.00  0.00    +0.000 NA
ATOM      8  C   UNL     1      47.990   5.760  14.652  0.00  0.00    +0.000 A 
BRANCH   6   9
ATOM      9  S   UNL     1      49.157   5.494  18.413  0.00  0.00    +0.000 S 
BRANCH   9  10
ATOM     10  C   UNL     1      50.097   4.031  18.042  0.00  0.00    +0.000 A 
ATOM     11  C   UNL     1      51.482   3.984  18.204  0.00  0.00    +0.000 A 
ATOM     12  C   UNL     1      52.185   2.832  17.855  0.00  0.00    +0.000 A 
ATOM     13  C   UNL     1      51.471   1.760  17.348  0.00  0.00    +0.000 A 
ATOM     14  N   UNL     1      50.140   1.759  17.174  0.00  0.00    +0.000 NA
ATOM     15  C   UNL     1      49.485   2.896  17.517  0.00  0.00    +0.000 A 
BRANCH  13  16
ATOM     16  O   UNL     1      52.099   0.607  16.976  0.00  0.00    +0.000 OA
ATOM     17  H   UNL     1      53.031   0.813  16.819  0.00  0.00    +0.000 HD
ENDBRANCH  13  16
ENDBRANCH   9  10
ENDBRANCH   6   9
ENDBRANCH   2   3
BRANCH   2  18
ATOM     18  N   UNL     1      47.318   6.457  12.047  0.00  0.00    +0.000 N 
ATOM     19  C   UNL     1      46.112   6.685  11.422  0.00  0.00    +0.000 C 
ATOM     20  O   UNL     1      45.572   7.785  11.439  0.00  0.00    +0.000 OA
ATOM     21  H   UNL     1      47.669   5.504  12.020  0.00  0.00    +0.000 HD
BRANCH  19  22
ATOM     22  C   UNL     1      45.564   5.513  10.703  0.00  0.00    +0.000 A 
ATOM     23  N   UNL     1      45.680   5.476   9.361  0.00  0.00    +0.000 NA
ATOM     24  S   UNL     1      44.906   4.133   8.777  0.00  0.00    +0.000 S 
ATOM     25  C   UNL     1      44.404   3.538  10.290  0.00  0.00    +0.000 A 
ATOM     26  N   UNL     1      43.663   2.410  10.451  0.00  0.00    +0.000 NA
ATOM     27  C   UNL     1      43.372   2.149  11.684  0.00  0.00    +0.000 A 
ATOM     28  N   UNL     1      43.771   2.907  12.756  0.00  0.00    +0.000 N 
ATOM     29  C   UNL     1      44.568   4.028  12.642  0.00  0.00    +0.000 A 
ATOM     30  O   UNL     1      44.973   4.596  13.647  0.00  0.00    +0.000 OA
ATOM     31  C   UNL     1      44.870   4.389  11.275  0.00  0.00    +0.000 A 
ATOM     32  H   UNL     1      43.544   2.632  13.701  0.00  0.00    +0.000 HD
ENDBRANCH  19  22
ENDBRANCH   2  18
TORSDOF 6
ENDMDL
MODEL 6
REMARK VINA RESULT:    -7.886      2.742      8.296
REMARK INTER + INTRA:         -10.686
REMARK INTER:                 -10.020
REMARK INTRA:                  -0.665
REMARK UNBOUND:                -0.264
REMARK  Name = 
REMARK  7 active torsions:
REMARK  status: ('A' for Active; 'I' for Inactive)
REMARK    1  A    between atoms: C_1  and  C_2
REMARK    2  A    between atoms: C_2  and  N_3
REMARK    3  A    between atoms: C_2  and  C_16
REMARK    4  A    between atoms: C_4  and  C_6
REMARK    5  A    between atoms: C_19  and  S_20
REMARK    6  A    between atoms: S_20  and  C_21
REMARK    7  A    between atoms: C_24  and  O_25
REMARK                            x       y       z     vdW  Elec       q    Type
REMARK                         _______ _______ _______ _____ _____    ______ ____
ROOT
ATOM      1  C   UNL     1      48.837   7.596  11.412  0.00  0.00    +0.000 C 
ATOM      2  C   UNL     1      47.863   7.311  12.553  0.00  0.00    +0.000 C 
ENDROOT
BRANCH   2   3
ATOM      3  C   UNL     1      48.591   7.078  13.861  0.00  0.00    +0.000 A 
ATOM      4  C   UNL     1      49.806   7.695  14.172  0.00  0.00    +0.000 A 
ATOM      5  C   UNL     1      50.440   7.418  15.383  0.00  0.00    +0.000 A 
ATOM      6  C   UNL     1      49.841   6.532  16.267  0.00  0.00    +0.000 A 
ATOM      7  N   UNL     1      48.649   5.945  16.017  0.00  0.00    +0.000 NA
ATOM      8  C   UNL     1      48.057   6.228  14.830  0.00  0.00    +0.000 A 
BRANCH   6   9
ATOM      9  S   UNL     1      50.632   6.165  17.822  0.00  0.00    +0.000 S 
BRANCH   9  10
ATOM     10  C   UNL     1      50.945   4.424  17.648  0.00  0.00    +0.000 A 
ATOM     11  C   UNL     1      49.918   3.510  17.410  0.00  0.00    +0.000 A 
ATOM     12  C   UNL     1      50.203   2.147  17.328  0.00  0.00    +0.000 A 
ATOM     13  C   UNL     1      51.517   1.744  17.492  0.00  0.00    +0.000 A 
ATOM     14  N   UNL     1      52.537   2.586  17.723  0.00  0.00    +0.000 NA
ATOM     15  C   UNL     1      52.227   3.904  17.802  0.00  0.00    +0.000 A 
BRANCH  13  16
ATOM     16  O   UNL     1      51.862   0.426  17.435  0.00  0.00    +0.000 OA
ATOM     17  H   UNL     1      51.741   0.048  18.317  0.00  0.00    +0.000 HD
ENDBRANCH  13  16
ENDBRANCH   9  10
ENDBRANCH   6   9
ENDBRANCH   2   3
BRANCH   2  18
ATOM     18  N   UNL     1      46.996   6.197  12.202  0.00  0.00    +0.000 N 
ATOM     19  C   UNL     1      45.623   6.297  12.231  0.00  0.00    +0.000 C 
ATOM     20  O   UNL     1      45.056   7.345  12.515  0.00  0.00    +0.000 OA
ATOM     21  H   UNL     1      47.380   5.278  12.001  0.00  0.00    +0.000 HD
BRANCH  19  22
ATOM     22  C   UNL     1      44.912   5.057  11.848  0.00  0.00    +0.000 A 
ATOM     23  N   UNL     1      44.167   4.433  12.782  0.00  0.00    +0.000 NA
ATOM     24  S   UNL     1      43.560   3.025  12.154  0.00  0.00    +0.000 S 
ATOM     25  C   UNL     1      44.249   3.201  10.609  0.00  0.00    +0.000 A 
ATOM     26  N   UNL     1      44.112   2.287   9.612  0.00  0.00    +0.000 NA
ATOM     27  C   UNL     1      44.734   2.606   8.524  0.00  0.00    +0.000 A 
ATOM     28  N   UNL     1      45.460   3.758   8.350  0.00  0.00    +0.000 N 
ATOM     29  C   UNL     1      45.580   4.736   9.316  0.00  0.00    +0.000 A 
ATOM     30  O   UNL     1      46.154   5.785   9.057  0.00  0.00    +0.000 OA
ATOM     31  C   UNL     1      44.946   4.394  10.570  0.00  0.00    +0.000 A 
ATOM     32  H   UNL     1      45.894   3.970   7.463  0.00  0.00    +0.000 HD
ENDBRANCH  19  22
ENDBRANCH   2  18
TORSDOF 6
ENDMDL
MODEL 7
REMARK VINA RESULT:    -7.878      3.110      4.899
REMARK INTER + INTRA:         -10.675
REMARK INTER:                  -9.829
REMARK INTRA:                  -0.845
REMARK UNBOUND:                -0.264
REMARK  Name = 
REMARK  7 active torsions:
REMARK  status: ('A' for Active; 'I' for Inactive)
REMARK    1  A    between atoms: C_1  and  C_2
REMARK    2  A    between atoms: C_2  and  N_3
REMARK    3  A    between atoms: C_2  and  C_16
REMARK    4  A    between atoms: C_4  and  C_6
REMARK    5  A    between atoms: C_19  and  S_20
REMARK    6  A    between atoms: S_20  and  C_21
REMARK    7  A    between atoms: C_24  and  O_25
REMARK                            x       y       z     vdW  Elec       q    Type
REMARK                         _______ _______ _______ _____ _____    ______ ____
ROOT
ATOM      1  C   UNL     1      47.491   5.083  15.096  0.00  0.00    +0.000 C 
ATOM      2  C   UNL     1      47.164   6.071  13.979  0.00  0.00    +0.000 C 
ENDROOT
BRANCH   2   3
ATOM      3  C   UNL     1      46.442   5.394  12.831  0.00  0.00    +0.000 A 
ATOM      4  C   UNL     1      46.226   6.018  11.600  0.00  0.00    +0.000 A 
ATOM      5  C   UNL     1      45.531   5.351  10.592  0.00  0.00    +0.000 A 
ATOM      6  C   UNL     1      45.070   4.065  10.833  0.00  0.00    +0.000 A 
ATOM      7  N   UNL     1      45.292   3.416  11.997  0.00  0.00    +0.000 NA
ATOM      8  C   UNL     1      45.967   4.090  12.961  0.00  0.00    +0.000 A 
BRANCH   6   9
ATOM      9  S   UNL     1      44.181   3.191   9.558  0.00  0.00    +0.000 S 
BRANCH   9  10
ATOM     10  C   UNL     1      45.496   2.795   8.429  0.00  0.00    +0.000 A 
ATOM     11  C   UNL     1      45.969   3.718   7.495  0.00  0.00    +0.000 A 
ATOM     12  C   UNL     1      46.970   3.349   6.597  0.00  0.00    +0.000 A 
ATOM     13  C   UNL     1      47.462   2.057   6.663  0.00  0.00    +0.000 A 
ATOM     14  N   UNL     1      47.037   1.136   7.542  0.00  0.00    +0.000 NA
ATOM     15  C   UNL     1      46.060   1.523   8.399  0.00  0.00    +0.000 A 
BRANCH  13  16
ATOM     16  O   UNL     1      48.432   1.628   5.805  0.00  0.00    +0.000 OA
ATOM     17  H   UNL     1      49.187   2.229   5.885  0.00  0.00    +0.000 HD
ENDBRANCH  13  16
ENDBRANCH   9  10
ENDBRANCH   6   9
ENDBRANCH   2   3
BRANCH   2  18
ATOM     18  N   UNL     1      48.374   6.749  13.543  0.00  0.00    +0.000 N 
ATOM     19  C   UNL     1      48.691   8.025  13.954  0.00  0.00    +0.000 C 
ATOM     20  O   UNL     1      47.988   8.643  14.744  0.00  0.00    +0.000 OA
ATOM     21  H   UNL     1      48.989   6.330  12.850  0.00  0.00    +0.000 HD
BRANCH  19  22
ATOM     22  C   UNL     1      49.958   8.549  13.399  0.00  0.00    +0.000 A 
ATOM     23  N   UNL     1      51.116   8.136  13.951  0.00  0.00    +0.000 NA
ATOM     24  S   UNL     1      52.382   8.933  13.239  0.00  0.00    +0.000 S 
ATOM     25  C   UNL     1      51.439   9.843  12.154  0.00  0.00    +0.000 A 
ATOM     26  N   UNL     1      51.955  10.749  11.281  0.00  0.00    +0.000 NA
ATOM     27  C   UNL     1      51.061  11.346  10.562  0.00  0.00    +0.000 A 
ATOM     28  N   UNL     1      49.712  11.102  10.634  0.00  0.00    +0.000 N 
ATOM     29  C   UNL     1      49.153  10.155  11.467  0.00  0.00    +0.000 A 
ATOM     30  O   UNL     1      47.954   9.916  11.405  0.00  0.00    +0.000 OA
ATOM     31  C   UNL     1      50.111   9.502  12.330  0.00  0.00    +0.000 A 
ATOM     32  H   UNL     1      49.064  11.574  10.020  0.00  0.00    +0.000 HD
ENDBRANCH  19  22
ENDBRANCH   2  18
TORSDOF 6
ENDMDL
MODEL 8
REMARK VINA RESULT:    -7.635      2.453      4.155
REMARK INTER + INTRA:         -10.354
REMARK INTER:                  -9.496
REMARK INTRA:                  -0.858
REMARK UNBOUND:                -0.264
REMARK  Name = 
REMARK  7 active torsions:
REMARK  status: ('A' for Active; 'I' for Inactive)
REMARK    1  A    between atoms: C_1  and  C_2
REMARK    2  A    between atoms: C_2  and  N_3
REMARK    3  A    between atoms: C_2  and  C_16
REMARK    4  A    between atoms: C_4  and  C_6
REMARK    5  A    between atoms: C_19  and  S_20
REMARK    6  A    between atoms: S_20  and  C_21
REMARK    7  A    between atoms: C_24  and  O_25
REMARK                            x       y       z     vdW  Elec       q    Type
REMARK                         _______ _______ _______ _____ _____    ______ ____
ROOT
ATOM      1  C   UNL     1      47.517   3.716  15.346  0.00  0.00    +0.000 C 
ATOM      2  C   UNL     1      47.102   5.055  14.742  0.00  0.00    +0.000 C 
ENDROOT
BRANCH   2   3
ATOM      3  C   UNL     1      46.369   4.870  13.428  0.00  0.00    +0.000 A 
ATOM      4  C   UNL     1      46.214   5.899  12.496  0.00  0.00    +0.000 A 
ATOM      5  C   UNL     1      45.505   5.671  11.317  0.00  0.00    +0.000 A 
ATOM      6  C   UNL     1      44.970   4.412  11.088  0.00  0.00    +0.000 A 
ATOM      7  N   UNL     1      45.132   3.382  11.949  0.00  0.00    +0.000 NA
ATOM      8  C   UNL     1      45.821   3.633  13.089  0.00  0.00    +0.000 A 
BRANCH   6   9
ATOM      9  S   UNL     1      44.062   4.097   9.586  0.00  0.00    +0.000 S 
BRANCH   9  10
ATOM     10  C   UNL     1      45.264   3.192   8.639  0.00  0.00    +0.000 A 
ATOM     11  C   UNL     1      45.397   1.807   8.749  0.00  0.00    +0.000 A 
ATOM     12  C   UNL     1      46.385   1.142   8.023  0.00  0.00    +0.000 A 
ATOM     13  C   UNL     1      47.214   1.895   7.209  0.00  0.00    +0.000 A 
ATOM     14  N   UNL     1      47.124   3.227   7.073  0.00  0.00    +0.000 NA
ATOM     15  C   UNL     1      46.157   3.845   7.795  0.00  0.00    +0.000 A 
BRANCH  13  16
ATOM     16  O   UNL     1      48.207   1.309   6.481  0.00  0.00    +0.000 OA
ATOM     17  H   UNL     1      48.667   2.005   5.990  0.00  0.00    +0.000 HD
ENDBRANCH  13  16
ENDBRANCH   9  10
ENDBRANCH   6   9
ENDBRANCH   2   3
BRANCH   2  18
ATOM     18  N   UNL     1      48.263   5.920  14.605  0.00  0.00    +0.000 N 
ATOM     19  C   UNL     1      48.847   6.544  15.685  0.00  0.00    +0.000 C 
ATOM     20  O   UNL     1      48.443   6.370  16.829  0.00  0.00    +0.000 OA
ATOM     21  H   UNL     1      48.634   6.159  13.689  0.00  0.00    +0.000 HD
BRANCH  19  22
ATOM     22  C   UNL     1      50.013   7.389  15.347  0.00  0.00    +0.000 A 
ATOM     23  N   UNL     1      51.229   7.003  15.781  0.00  0.00    +0.000 NA
ATOM     24  S   UNL     1      52.351   8.152  15.374  0.00  0.00    +0.000 S 
ATOM     25  C   UNL     1      51.265   9.199  14.588  0.00  0.00    +0.000 A 
ATOM     26  N   UNL     1      51.625  10.390  14.040  0.00  0.00    +0.000 NA
ATOM     27  C   UNL     1      50.640  11.038  13.509  0.00  0.00    +0.000 A 
ATOM     28  N   UNL     1      49.343  10.591  13.470  0.00  0.00    +0.000 N 
ATOM     29  C   UNL     1      48.945   9.366  13.965  0.00  0.00    +0.000 A 
ATOM     30  O   UNL     1      47.794   8.984  13.801  0.00  0.00    +0.000 OA
ATOM     31  C   UNL     1      50.004   8.631  14.618  0.00  0.00    +0.000 A 
ATOM     32  H   UNL     1      48.622  11.126  13.008  0.00  0.00    +0.000 HD
ENDBRANCH  19  22
ENDBRANCH   2  18
TORSDOF 6
ENDMDL
MODEL 9
REMARK VINA RESULT:    -7.533      2.875      8.883
REMARK INTER + INTRA:         -10.219
REMARK INTER:                  -9.303
REMARK INTRA:                  -0.915
REMARK UNBOUND:                -0.264
REMARK  Name = 
REMARK  7 active torsions:
REMARK  status: ('A' for Active; 'I' for Inactive)
REMARK    1  A    between atoms: C_1  and  C_2
REMARK    2  A    between atoms: C_2  and  N_3
REMARK    3  A    between atoms: C_2  and  C_16
REMARK    4  A    between atoms: C_4  and  C_6
REMARK    5  A    between atoms: C_19  and  S_20
REMARK    6  A    between atoms: S_20  and  C_21
REMARK    7  A    between atoms: C_24  and  O_25
REMARK                            x       y       z     vdW  Elec       q    Type
REMARK                         _______ _______ _______ _____ _____    ______ ____
ROOT
ATOM      1  C   UNL     1      48.986   7.684  11.198  0.00  0.00    +0.000 C 
ATOM      2  C   UNL     1      47.851   7.798  12.212  0.00  0.00    +0.000 C 
ENDROOT
BRANCH   2   3
ATOM      3  C   UNL     1      48.380   7.959  13.624  0.00  0.00    +0.000 A 
ATOM      4  C   UNL     1      49.410   7.168  14.141  0.00  0.00    +0.000 A 
ATOM      5  C   UNL     1      49.833   7.348  15.457  0.00  0.00    +0.000 A 
ATOM      6  C   UNL     1      49.222   8.324  16.231  0.00  0.00    +0.000 A 
ATOM      7  N   UNL     1      48.249   9.132  15.754  0.00  0.00    +0.000 NA
ATOM      8  C   UNL     1      47.854   8.932  14.472  0.00  0.00    +0.000 A 
BRANCH   6   9
ATOM      9  S   UNL     1      49.749   8.574  17.916  0.00  0.00    +0.000 S 
BRANCH   9  10
ATOM     10  C   UNL     1      49.257   7.038  18.664  0.00  0.00    +0.000 A 
ATOM     11  C   UNL     1      47.933   6.786  19.025  0.00  0.00    +0.000 A 
ATOM     12  C   UNL     1      47.598   5.586  19.653  0.00  0.00    +0.000 A 
ATOM     13  C   UNL     1      48.612   4.677  19.903  0.00  0.00    +0.000 A 
ATOM     14  N   UNL     1      49.898   4.876  19.575  0.00  0.00    +0.000 NA
ATOM     15  C   UNL     1      50.192   6.054  18.971  0.00  0.00    +0.000 A 
BRANCH  13  16
ATOM     16  O   UNL     1      48.355   3.490  20.524  0.00  0.00    +0.000 OA
ATOM     17  H   UNL     1      48.787   3.507  21.390  0.00  0.00    +0.000 HD
ENDBRANCH  13  16
ENDBRANCH   9  10
ENDBRANCH   6   9
ENDBRANCH   2   3
BRANCH   2  18
ATOM     18  N   UNL     1      46.956   6.658  12.089  0.00  0.00    +0.000 N 
ATOM     19  C   UNL     1      45.631   6.798  11.740  0.00  0.00    +0.000 C 
ATOM     20  O   UNL     1      45.144   7.891  11.475  0.00  0.00    +0.000 OA
ATOM     21  H   UNL     1      47.263   5.721  12.337  0.00  0.00    +0.000 HD
BRANCH  19  22
ATOM     22  C   UNL     1      44.879   5.526  11.672  0.00  0.00    +0.000 A 
ATOM     23  N   UNL     1      44.139   5.163  12.739  0.00  0.00    +0.000 NA
ATOM     24  S   UNL     1      43.481   3.667  12.471  0.00  0.00    +0.000 S 
ATOM     25  C   UNL     1      44.139   3.452  10.917  0.00  0.00    +0.000 A 
ATOM     26  N   UNL     1      43.955   2.334  10.166  0.00  0.00    +0.000 NA
ATOM     27  C   UNL     1      44.560   2.369   9.023  0.00  0.00    +0.000 A 
ATOM     28  N   UNL     1      45.312   3.424   8.571  0.00  0.00    +0.000 N 
ATOM     29  C   UNL     1      45.479   4.598   9.277  0.00  0.00    +0.000 A 
ATOM     30  O   UNL     1      46.075   5.538   8.769  0.00  0.00    +0.000 OA
ATOM     31  C   UNL     1      44.866   4.581  10.586  0.00  0.00    +0.000 A 
ATOM     32  H   UNL     1      45.731   3.409   7.652  0.00  0.00    +0.000 HD
ENDBRANCH  19  22
ENDBRANCH   2  18
TORSDOF 6
ENDMDL
