MODEL 1
REMARK VINA RESULT:    -8.533      0.000      0.000
REMARK INTER + INTRA:         -14.102
REMARK INTER:                 -12.524
REMARK INTRA:                  -1.579
REMARK UNBOUND:                -1.579
REMARK  Name = 
REMARK  10 active torsions:
REMARK  status: ('A' for Active; 'I' for Inactive)
REMARK    1  A    between atoms: C_1  and  O_2
REMARK    2  A    between atoms: O_2  and  C_3
REMARK    3  A    between atoms: C_10  and  C_11
REMARK    4  A    between atoms: N_13  and  C_14
REMARK    5  A    between atoms: C_14  and  C_15
REMARK    6  A    between atoms: C_18  and  C_19
REMARK    7  A    between atoms: C_19  and  N_20
REMARK    8  A    between atoms: N_20  and  C_21
REMARK    9  A    between atoms: C_21  and  C_22
REMARK   10  A    between atoms: C_21  and  C_23
REMARK                            x       y       z     vdW  Elec       q    Type
REMARK                         _______ _______ _______ _____ _____    ______ ____
ROOT
ATOM      1  C   UNL     1      46.307   7.351  12.533  0.00  0.00    +0.000 A 
ATOM      2  C   UNL     1      46.784   6.628  11.429  0.00  0.00    +0.000 A 
ATOM      3  C   UNL     1      45.916   5.827  10.670  0.00  0.00    +0.000 A 
ATOM      4  C   UNL     1      44.553   5.754  10.983  0.00  0.00    +0.000 A 
ATOM      5  C   UNL     1      44.070   6.542  12.039  0.00  0.00    +0.000 A 
ATOM      6  C   UNL     1      44.933   7.333  12.800  0.00  0.00    +0.000 A 
ENDROOT
BRANCH   1   7
ATOM      7  C   UNL     1      47.242   8.142  13.413  0.00  0.00    +0.000 C 
BRANCH   7  10
ATOM      8  C   UNL     1      48.849   6.873  14.783  0.00  0.00    +0.000 C 
ATOM      9  O   UNL     1      49.734   6.982  13.941  0.00  0.00    +0.000 OA
ATOM     10  N   UNL     1      47.609   7.410  14.595  0.00  0.00    +0.000 N 
ATOM     11  H   UNL     1      46.883   7.275  15.290  0.00  0.00    +0.000 HD
BRANCH   8  19
ATOM     12  C   UNL     1      47.286   4.222  16.333  0.00  0.00    +0.000 A 
ATOM     13  N   UNL     1      46.887   3.210  17.128  0.00  0.00    +0.000 NA
ATOM     14  C   UNL     1      47.556   3.006  18.264  0.00  0.00    +0.000 A 
ATOM     15  N   UNL     1      48.595   3.701  18.718  0.00  0.00    +0.000 NA
ATOM     16  C   UNL     1      48.968   4.692  17.890  0.00  0.00    +0.000 A 
ATOM     17  S   UNL     1      50.280   5.686  18.308  0.00  0.00    +0.000 S 
ATOM     18  C   UNL     1      50.119   6.587  16.877  0.00  0.00    +0.000 A 
ATOM     19  C   UNL     1      49.083   6.160  16.056  0.00  0.00    +0.000 A 
ATOM     20  C   UNL     1      48.388   5.028  16.670  0.00  0.00    +0.000 A 
BRANCH  12  22
ATOM     21  C   UNL     1      47.125   3.647  14.071  0.00  0.00    +0.000 C 
ATOM     22  O   UNL     1      46.605   4.419  15.151  0.00  0.00    +0.000 OA
ENDBRANCH  12  22
ENDBRANCH   8  19
ENDBRANCH   7  10
ENDBRANCH   1   7
BRANCH   4  23
ATOM     23  C   UNL     1      43.585   4.893  10.191  0.00  0.00    +0.000 C 
BRANCH  23  24
ATOM     24  N   UNL     1      44.147   4.452   8.912  0.00  0.00    +0.000 NA
ATOM     25  H   UNL     1      45.031   4.936   8.765  0.00  0.00    +0.000 HD
BRANCH  24  26
ATOM     26  C   UNL     1      44.387   2.990   8.855  0.00  0.00    +0.000 C 
ATOM     27  C   UNL     1      44.362   2.348  10.251  0.00  0.00    +0.000 C 
BRANCH  26  28
ATOM     28  C   UNL     1      45.622   2.556   8.057  0.00  0.00    +0.000 A 
ATOM     29  C   UNL     1      46.174   3.408   7.099  0.00  0.00    +0.000 A 
ATOM     30  C   UNL     1      47.224   2.945   6.306  0.00  0.00    +0.000 A 
ATOM     31  C   UNL     1      47.719   1.664   6.507  0.00  0.00    +0.000 A 
ATOM     32  C   UNL     1      47.160   0.902   7.517  0.00  0.00    +0.000 A 
ATOM     33  N   UNL     1      46.136   1.320   8.292  0.00  0.00    +0.000 NA
ENDBRANCH  26  28
ENDBRANCH  24  26
ENDBRANCH  23  24
ENDBRANCH   4  23
TORSDOF 8
ENDMDL
MODEL 2
REMARK VINA RESULT:    -7.389      1.813      2.268
REMARK INTER + INTRA:         -12.423
REMARK INTER:                 -11.166
REMARK INTRA:                  -1.257
REMARK UNBOUND:                -1.579
REMARK  Name = 
REMARK  10 active torsions:
REMARK  status: ('A' for Active; 'I' for Inactive)
REMARK    1  A    between atoms: C_1  and  O_2
REMARK    2  A    between atoms: O_2  and  C_3
REMARK    3  A    between atoms: C_10  and  C_11
REMARK    4  A    between atoms: N_13  and  C_14
REMARK    5  A    between atoms: C_14  and  C_15
REMARK    6  A    between atoms: C_18  and  C_19
REMARK    7  A    between atoms: C_19  and  N_20
REMARK    8  A    between atoms: N_20  and  C_21
REMARK    9  A    between atoms: C_21  and  C_22
REMARK   10  A    between atoms: C_21  and  C_23
REMARK                            x       y       z     vdW  Elec       q    Type
REMARK                         _______ _______ _______ _____ _____    ______ ____
ROOT
ATOM      1  C   UNL     1      47.469   7.394  13.736  0.00  0.00    +0.000 A 
ATOM      2  C   UNL     1      47.362   5.996  13.732  0.00  0.00    +0.000 A 
ATOM      3  C   UNL     1      46.302   5.362  13.064  0.00  0.00    +0.000 A 
ATOM      4  C   UNL     1      45.347   6.112  12.366  0.00  0.00    +0.000 A 
ATOM      5  C   UNL     1      45.507   7.505  12.309  0.00  0.00    +0.000 A 
ATOM      6  C   UNL     1      46.556   8.137  12.980  0.00  0.00    +0.000 A 
ENDROOT
BRANCH   1   7
ATOM      7  C   UNL     1      48.548   8.093  14.526  0.00  0.00    +0.000 C 
BRANCH   7  10
ATOM      8  C   UNL     1      49.486   6.947  16.495  0.00  0.00    +0.000 C 
ATOM      9  O   UNL     1      48.752   7.557  17.264  0.00  0.00    +0.000 OA
ATOM     10  N   UNL     1      49.445   7.157  15.147  0.00  0.00    +0.000 N 
ATOM     11  H   UNL     1      50.087   6.667  14.534  0.00  0.00    +0.000 HD
BRANCH   8  19
ATOM     12  C   UNL     1      49.411   3.509  16.717  0.00  0.00    +0.000 A 
ATOM     13  N   UNL     1      49.652   2.195  16.890  0.00  0.00    +0.000 NA
ATOM     14  C   UNL     1      50.825   1.838  17.416  0.00  0.00    +0.000 A 
ATOM     15  N   UNL     1      51.810   2.645  17.800  0.00  0.00    +0.000 NA
ATOM     16  C   UNL     1      51.534   3.945  17.599  0.00  0.00    +0.000 A 
ATOM     17  S   UNL     1      52.678   5.123  18.032  0.00  0.00    +0.000 S 
ATOM     18  C   UNL     1      51.664   6.377  17.501  0.00  0.00    +0.000 A 
ATOM     19  C   UNL     1      50.450   5.940  16.986  0.00  0.00    +0.000 A 
ATOM     20  C   UNL     1      50.370   4.481  17.054  0.00  0.00    +0.000 A 
BRANCH  12  22
ATOM     21  C   UNL     1      47.167   4.036  17.120  0.00  0.00    +0.000 C 
ATOM     22  O   UNL     1      48.206   3.874  16.157  0.00  0.00    +0.000 OA
ENDBRANCH  12  22
ENDBRANCH   8  19
ENDBRANCH   7  10
ENDBRANCH   1   7
BRANCH   4  23
ATOM     23  C   UNL     1      44.183   5.464  11.638  0.00  0.00    +0.000 C 
BRANCH  23  24
ATOM     24  N   UNL     1      44.445   5.290  10.207  0.00  0.00    +0.000 NA
ATOM     25  H   UNL     1      45.423   5.512  10.031  0.00  0.00    +0.000 HD
BRANCH  24  26
ATOM     26  C   UNL     1      44.175   3.912   9.731  0.00  0.00    +0.000 C 
ATOM     27  C   UNL     1      43.907   2.943  10.893  0.00  0.00    +0.000 C 
BRANCH  26  28
ATOM     28  C   UNL     1      45.203   3.342   8.746  0.00  0.00    +0.000 A 
ATOM     29  C   UNL     1      45.497   1.978   8.751  0.00  0.00    +0.000 A 
ATOM     30  C   UNL     1      46.518   1.503   7.928  0.00  0.00    +0.000 A 
ATOM     31  C   UNL     1      47.196   2.387   7.100  0.00  0.00    +0.000 A 
ATOM     32  C   UNL     1      46.806   3.714   7.108  0.00  0.00    +0.000 A 
ATOM     33  N   UNL     1      45.829   4.203   7.902  0.00  0.00    +0.000 NA
ENDBRANCH  26  28
ENDBRANCH  24  26
ENDBRANCH  23  24
ENDBRANCH   4  23
TORSDOF 8
ENDMDL
MODEL 3
REMARK VINA RESULT:    -7.021      1.675      2.285
REMARK INTER + INTRA:         -11.883
REMARK INTER:                 -10.721
REMARK INTRA:                  -1.162
REMARK UNBOUND:                -1.579
REMARK  Name = 
REMARK  10 active torsions:
REMARK  status: ('A' for Active; 'I' for Inactive)
REMARK    1  A    between atoms: C_1  and  O_2
REMARK    2  A    between atoms: O_2  and  C_3
REMARK    3  A    between atoms: C_10  and  C_11
REMARK    4  A    between atoms: N_13  and  C_14
REMARK    5  A    between atoms: C_14  and  C_15
REMARK    6  A    between atoms: C_18  and  C_19
REMARK    7  A    between atoms: C_19  and  N_20
REMARK    8  A    between atoms: N_20  and  C_21
REMARK    9  A    between atoms: C_21  and  C_22
REMARK   10  A    between atoms: C_21  and  C_23
REMARK                            x       y       z     vdW  Elec       q    Type
REMARK                         _______ _______ _______ _____ _____    ______ ____
ROOT
ATOM      1  C   UNL     1      47.761   7.561  13.395  0.00  0.00    +0.000 A 
ATOM      2  C   UNL     1      47.479   6.213  13.659  0.00  0.00    +0.000 A 
ATOM      3  C   UNL     1      46.345   5.598  13.105  0.00  0.00    +0.000 A 
ATOM      4  C   UNL     1      45.487   6.310  12.257  0.00  0.00    +0.000 A 
ATOM      5  C   UNL     1      45.820   7.635  11.935  0.00  0.00    +0.000 A 
ATOM      6  C   UNL     1      46.944   8.250  12.491  0.00  0.00    +0.000 A 
ENDROOT
BRANCH   1   7
ATOM      7  C   UNL     1      48.923   8.261  14.054  0.00  0.00    +0.000 C 
BRANCH   7  10
ATOM      8  C   UNL     1      49.793   7.287  16.143  0.00  0.00    +0.000 C 
ATOM      9  O   UNL     1      50.662   6.656  15.549  0.00  0.00    +0.000 OA
ATOM     10  N   UNL     1      48.909   8.087  15.482  0.00  0.00    +0.000 N 
ATOM     11  H   UNL     1      48.177   8.570  15.991  0.00  0.00    +0.000 HD
BRANCH   8  19
ATOM     12  C   UNL     1      48.866   4.788  18.327  0.00  0.00    +0.000 A 
ATOM     13  N   UNL     1      48.574   4.001  19.381  0.00  0.00    +0.000 NA
ATOM     14  C   UNL     1      48.656   4.534  20.601  0.00  0.00    +0.000 A 
ATOM     15  N   UNL     1      48.999   5.782  20.910  0.00  0.00    +0.000 NA
ATOM     16  C   UNL     1      49.294   6.528  19.831  0.00  0.00    +0.000 A 
ATOM     17  S   UNL     1      49.753   8.150  20.034  0.00  0.00    +0.000 S 
ATOM     18  C   UNL     1      49.939   8.360  18.359  0.00  0.00    +0.000 A 
ATOM     19  C   UNL     1      49.665   7.220  17.614  0.00  0.00    +0.000 A 
ATOM     20  C   UNL     1      49.269   6.124  18.499  0.00  0.00    +0.000 A 
BRANCH  12  22
ATOM     21  C   UNL     1      47.527   3.654  16.779  0.00  0.00    +0.000 C 
ATOM     22  O   UNL     1      48.798   4.230  17.068  0.00  0.00    +0.000 OA
ENDBRANCH  12  22
ENDBRANCH   8  19
ENDBRANCH   7  10
ENDBRANCH   1   7
BRANCH   4  23
ATOM     23  C   UNL     1      44.247   5.683  11.646  0.00  0.00    +0.000 C 
BRANCH  23  24
ATOM     24  N   UNL     1      44.378   5.480  10.201  0.00  0.00    +0.000 NA
ATOM     25  H   UNL     1      45.337   5.691   9.932  0.00  0.00    +0.000 HD
BRANCH  24  26
ATOM     26  C   UNL     1      44.058   4.095   9.778  0.00  0.00    +0.000 C 
ATOM     27  C   UNL     1      43.765   3.180  10.977  0.00  0.00    +0.000 C 
BRANCH  26  28
ATOM     28  C   UNL     1      45.059   3.454   8.810  0.00  0.00    +0.000 A 
ATOM     29  C   UNL     1      45.337   2.089   8.891  0.00  0.00    +0.000 A 
ATOM     30  C   UNL     1      46.336   1.552   8.079  0.00  0.00    +0.000 A 
ATOM     31  C   UNL     1      47.008   2.376   7.186  0.00  0.00    +0.000 A 
ATOM     32  C   UNL     1      46.633   3.706   7.122  0.00  0.00    +0.000 A 
ATOM     33  N   UNL     1      45.677   4.255   7.903  0.00  0.00    +0.000 NA
ENDBRANCH  26  28
ENDBRANCH  24  26
ENDBRANCH  23  24
ENDBRANCH   4  23
TORSDOF 8
ENDMDL
MODEL 4
REMARK VINA RESULT:    -7.010      4.791      9.534
REMARK INTER + INTRA:         -11.867
REMARK INTER:                 -10.821
REMARK INTRA:                  -1.046
REMARK UNBOUND:                -1.579
REMARK  Name = 
REMARK  10 active torsions:
REMARK  status: ('A' for Active; 'I' for Inactive)
REMARK    1  A    between atoms: C_1  and  O_2
REMARK    2  A    between atoms: O_2  and  C_3
REMARK    3  A    between atoms: C_10  and  C_11
REMARK    4  A    between atoms: N_13  and  C_14
REMARK    5  A    between atoms: C_14  and  C_15
REMARK    6  A    between atoms: C_18  and  C_19
REMARK    7  A    between atoms: C_19  and  N_20
REMARK    8  A    between atoms: N_20  and  C_21
REMARK    9  A    between atoms: C_21  and  C_22
REMARK   10  A    between atoms: C_21  and  C_23
REMARK                            x       y       z     vdW  Elec       q    Type
REMARK                         _______ _______ _______ _____ _____    ______ ____
ROOT
ATOM      1  C   UNL     1      48.666   3.312  17.115  0.00  0.00    +0.000 A 
ATOM      2  C   UNL     1      49.384   4.407  17.617  0.00  0.00    +0.000 A 
ATOM      3  C   UNL     1      50.745   4.283  17.941  0.00  0.00    +0.000 A 
ATOM      4  C   UNL     1      51.419   3.071  17.744  0.00  0.00    +0.000 A 
ATOM      5  C   UNL     1      50.714   2.004  17.167  0.00  0.00    +0.000 A 
ATOM      6  C   UNL     1      49.358   2.124  16.852  0.00  0.00    +0.000 A 
ENDROOT
BRANCH   1   7
ATOM      7  C   UNL     1      47.184   3.403  16.849  0.00  0.00    +0.000 C 
BRANCH   7  10
ATOM      8  C   UNL     1      46.924   4.191  14.529  0.00  0.00    +0.000 C 
ATOM      9  O   UNL     1      47.236   3.098  14.068  0.00  0.00    +0.000 OA
ATOM     10  N   UNL     1      46.880   4.415  15.874  0.00  0.00    +0.000 N 
ATOM     11  H   UNL     1      46.654   5.337  16.230  0.00  0.00    +0.000 HD
BRANCH   8  19
ATOM     12  C   UNL     1      44.163   4.913  12.597  0.00  0.00    +0.000 A 
ATOM     13  N   UNL     1      43.218   5.443  11.798  0.00  0.00    +0.000 NA
ATOM     14  C   UNL     1      43.470   6.623  11.228  0.00  0.00    +0.000 A 
ATOM     15  N   UNL     1      44.572   7.357  11.357  0.00  0.00    +0.000 NA
ATOM     16  C   UNL     1      45.483   6.798  12.172  0.00  0.00    +0.000 A 
ATOM     17  S   UNL     1      46.956   7.594  12.455  0.00  0.00    +0.000 S 
ATOM     18  C   UNL     1      47.485   6.356  13.492  0.00  0.00    +0.000 A 
ATOM     19  C   UNL     1      46.569   5.324  13.649  0.00  0.00    +0.000 A 
ATOM     20  C   UNL     1      45.372   5.587  12.849  0.00  0.00    +0.000 A 
BRANCH  12  22
ATOM     21  C   UNL     1      43.613   2.663  12.266  0.00  0.00    +0.000 C 
ATOM     22  O   UNL     1      43.893   3.703  13.200  0.00  0.00    +0.000 OA
ENDBRANCH  12  22
ENDBRANCH   8  19
ENDBRANCH   7  10
ENDBRANCH   1   7
BRANCH   4  23
ATOM     23  C   UNL     1      52.886   2.896  18.090  0.00  0.00    +0.000 C 
BRANCH  23  24
ATOM     24  N   UNL     1      53.163   1.600  18.716  0.00  0.00    +0.000 NA
ATOM     25  H   UNL     1      52.419   0.954  18.458  0.00  0.00    +0.000 HD
BRANCH  24  26
ATOM     26  C   UNL     1      54.464   1.022  18.303  0.00  0.00    +0.000 C 
ATOM     27  C   UNL     1      54.953   1.599  16.965  0.00  0.00    +0.000 C 
BRANCH  26  28
ATOM     28  C   UNL     1      54.537  -0.510  18.317  0.00  0.00    +0.000 A 
ATOM     29  C   UNL     1      55.036  -1.198  17.210  0.00  0.00    +0.000 A 
ATOM     30  C   UNL     1      54.985  -2.592  17.200  0.00  0.00    +0.000 A 
ATOM     31  C   UNL     1      54.472  -3.265  18.300  0.00  0.00    +0.000 A 
ATOM     32  C   UNL     1      54.053  -2.514  19.384  0.00  0.00    +0.000 A 
ATOM     33  N   UNL     1      54.081  -1.164  19.417  0.00  0.00    +0.000 NA
ENDBRANCH  26  28
ENDBRANCH  24  26
ENDBRANCH  23  24
ENDBRANCH   4  23
TORSDOF 8
ENDMDL
MODEL 5
REMARK VINA RESULT:    -6.839      3.126      7.954
REMARK INTER + INTRA:         -11.616
REMARK INTER:                  -9.872
REMARK INTRA:                  -1.744
REMARK UNBOUND:                -1.579
REMARK  Name = 
REMARK  10 active torsions:
REMARK  status: ('A' for Active; 'I' for Inactive)
REMARK    1  A    between atoms: C_1  and  O_2
REMARK    2  A    between atoms: O_2  and  C_3
REMARK    3  A    between atoms: C_10  and  C_11
REMARK    4  A    between atoms: N_13  and  C_14
REMARK    5  A    between atoms: C_14  and  C_15
REMARK    6  A    between atoms: C_18  and  C_19
REMARK    7  A    between atoms: C_19  and  N_20
REMARK    8  A    between atoms: N_20  and  C_21
REMARK    9  A    between atoms: C_21  and  C_22
REMARK   10  A    between atoms: C_21  and  C_23
REMARK                            x       y       z     vdW  Elec       q    Type
REMARK                         _______ _______ _______ _____ _____    ______ ____
ROOT
ATOM      1  C   UNL     1      48.460   7.883  13.435  0.00  0.00    +0.000 A 
ATOM      2  C   UNL     1      49.105   6.837  14.111  0.00  0.00    +0.000 A 
ATOM      3  C   UNL     1      49.207   6.844  15.511  0.00  0.00    +0.000 A 
ATOM      4  C   UNL     1      48.644   7.884  16.263  0.00  0.00    +0.000 A 
ATOM      5  C   UNL     1      47.932   8.885  15.585  0.00  0.00    +0.000 A 
ATOM      6  C   UNL     1      47.837   8.883  14.191  0.00  0.00    +0.000 A 
ENDROOT
BRANCH   1   7
ATOM      7  C   UNL     1      48.423   7.936  11.928  0.00  0.00    +0.000 C 
BRANCH   7  10
ATOM      8  C   UNL     1      46.304   6.866  11.266  0.00  0.00    +0.000 C 
ATOM      9  O   UNL     1      45.641   7.826  11.641  0.00  0.00    +0.000 OA
ATOM     10  N   UNL     1      47.664   6.846  11.376  0.00  0.00    +0.000 N 
ATOM     11  H   UNL     1      48.188   6.025  11.092  0.00  0.00    +0.000 HD
BRANCH   8  19
ATOM     12  C   UNL     1      44.504   4.231  12.566  0.00  0.00    +0.000 A 
ATOM     13  N   UNL     1      43.766   3.129  12.801  0.00  0.00    +0.000 NA
ATOM     14  C   UNL     1      43.438   2.362  11.759  0.00  0.00    +0.000 A 
ATOM     15  N   UNL     1      43.762   2.560  10.484  0.00  0.00    +0.000 NA
ATOM     16  C   UNL     1      44.488   3.675  10.293  0.00  0.00    +0.000 A 
ATOM     17  S   UNL     1      44.995   4.088   8.726  0.00  0.00    +0.000 S 
ATOM     18  C   UNL     1      45.771   5.489   9.291  0.00  0.00    +0.000 A 
ATOM     19  C   UNL     1      45.665   5.678  10.663  0.00  0.00    +0.000 A 
ATOM     20  C   UNL     1      44.901   4.583  11.264  0.00  0.00    +0.000 A 
BRANCH  12  22
ATOM     21  C   UNL     1      46.135   4.786  14.149  0.00  0.00    +0.000 C 
ATOM     22  O   UNL     1      44.826   5.032  13.641  0.00  0.00    +0.000 OA
ENDBRANCH  12  22
ENDBRANCH   8  19
ENDBRANCH   7  10
ENDBRANCH   1   7
BRANCH   4  23
ATOM     23  C   UNL     1      48.740   7.932  17.777  0.00  0.00    +0.000 C 
BRANCH  23  24
ATOM     24  N   UNL     1      47.525   7.439  18.431  0.00  0.00    +0.000 NA
ATOM     25  H   UNL     1      46.849   7.196  17.709  0.00  0.00    +0.000 HD
BRANCH  24  26
ATOM     26  C   UNL     1      47.765   6.249  19.281  0.00  0.00    +0.000 C 
ATOM     27  C   UNL     1      48.815   6.521  20.370  0.00  0.00    +0.000 C 
BRANCH  26  28
ATOM     28  C   UNL     1      48.061   4.948  18.526  0.00  0.00    +0.000 A 
ATOM     29  C   UNL     1      49.351   4.415  18.527  0.00  0.00    +0.000 A 
ATOM     30  C   UNL     1      49.621   3.296  17.738  0.00  0.00    +0.000 A 
ATOM     31  C   UNL     1      48.599   2.718  16.997  0.00  0.00    +0.000 A 
ATOM     32  C   UNL     1      47.334   3.269  17.096  0.00  0.00    +0.000 A 
ATOM     33  N   UNL     1      47.046   4.358  17.843  0.00  0.00    +0.000 NA
ENDBRANCH  26  28
ENDBRANCH  24  26
ENDBRANCH  23  24
ENDBRANCH   4  23
TORSDOF 8
ENDMDL
MODEL 6
REMARK VINA RESULT:    -6.506      2.904      4.051
REMARK INTER + INTRA:         -11.128
REMARK INTER:                  -9.828
REMARK INTRA:                  -1.299
REMARK UNBOUND:                -1.579
REMARK  Name = 
REMARK  10 active torsions:
REMARK  status: ('A' for Active; 'I' for Inactive)
REMARK    1  A    between atoms: C_1  and  O_2
REMARK    2  A    between atoms: O_2  and  C_3
REMARK    3  A    between atoms: C_10  and  C_11
REMARK    4  A    between atoms: N_13  and  C_14
REMARK    5  A    between atoms: C_14  and  C_15
REMARK    6  A    between atoms: C_18  and  C_19
REMARK    7  A    between atoms: C_19  and  N_20
REMARK    8  A    between atoms: N_20  and  C_21
REMARK    9  A    between atoms: C_21  and  C_22
REMARK   10  A    between atoms: C_21  and  C_23
REMARK                            x       y       z     vdW  Elec       q    Type
REMARK                         _______ _______ _______ _____ _____    ______ ____
ROOT
ATOM      1  C   UNL     1      48.601   6.303  15.882  0.00  0.00    +0.000 A 
ATOM      2  C   UNL     1      48.594   6.978  14.652  0.00  0.00    +0.000 A 
ATOM      3  C   UNL     1      47.842   6.490  13.572  0.00  0.00    +0.000 A 
ATOM      4  C   UNL     1      47.063   5.334  13.708  0.00  0.00    +0.000 A 
ATOM      5  C   UNL     1      47.013   4.710  14.964  0.00  0.00    +0.000 A 
ATOM      6  C   UNL     1      47.767   5.190  16.037  0.00  0.00    +0.000 A 
ENDROOT
BRANCH   1   7
ATOM      7  C   UNL     1      49.475   6.762  17.022  0.00  0.00    +0.000 C 
BRANCH   7  10
ATOM      8  C   UNL     1      51.706   5.717  17.059  0.00  0.00    +0.000 C 
ATOM      9  O   UNL     1      52.182   6.583  16.333  0.00  0.00    +0.000 OA
ATOM     10  N   UNL     1      50.395   5.737  17.435  0.00  0.00    +0.000 N 
ATOM     11  H   UNL     1      50.016   4.990  18.007  0.00  0.00    +0.000 HD
BRANCH   8  19
ATOM     12  C   UNL     1      51.220   2.313  17.296  0.00  0.00    +0.000 A 
ATOM     13  N   UNL     1      51.299   0.982  17.480  0.00  0.00    +0.000 NA
ATOM     14  C   UNL     1      52.410   0.492  18.033  0.00  0.00    +0.000 A 
ATOM     15  N   UNL     1      53.476   1.179  18.434  0.00  0.00    +0.000 NA
ATOM     16  C   UNL     1      53.361   2.501  18.221  0.00  0.00    +0.000 A 
ATOM     17  S   UNL     1      54.627   3.538  18.673  0.00  0.00    +0.000 S 
ATOM     18  C   UNL     1      53.780   4.900  18.115  0.00  0.00    +0.000 A 
ATOM     19  C   UNL     1      52.533   4.607  17.576  0.00  0.00    +0.000 A 
ATOM     20  C   UNL     1      52.280   3.167  17.649  0.00  0.00    +0.000 A 
BRANCH  12  22
ATOM     21  C   UNL     1      49.088   1.819  16.467  0.00  0.00    +0.000 C 
ATOM     22  O   UNL     1      50.078   2.816  16.708  0.00  0.00    +0.000 OA
ENDBRANCH  12  22
ENDBRANCH   8  19
ENDBRANCH   7  10
ENDBRANCH   1   7
BRANCH   4  23
ATOM     23  C   UNL     1      46.243   4.771  12.562  0.00  0.00    +0.000 C 
BRANCH  23  24
ATOM     24  N   UNL     1      45.368   5.777  11.953  0.00  0.00    +0.000 NA
ATOM     25  H   UNL     1      45.941   6.402  11.390  0.00  0.00    +0.000 HD
BRANCH  24  26
ATOM     26  C   UNL     1      44.315   5.186  11.092  0.00  0.00    +0.000 C 
ATOM     27  C   UNL     1      43.231   4.472  11.915  0.00  0.00    +0.000 C 
BRANCH  26  28
ATOM     28  C   UNL     1      44.821   4.307   9.943  0.00  0.00    +0.000 A 
ATOM     29  C   UNL     1      44.572   2.934   9.948  0.00  0.00    +0.000 A 
ATOM     30  C   UNL     1      45.141   2.139   8.953  0.00  0.00    +0.000 A 
ATOM     31  C   UNL     1      45.913   2.731   7.963  0.00  0.00    +0.000 A 
ATOM     32  C   UNL     1      46.064   4.106   7.992  0.00  0.00    +0.000 A 
ATOM     33  N   UNL     1      45.534   4.899   8.948  0.00  0.00    +0.000 NA
ENDBRANCH  26  28
ENDBRANCH  24  26
ENDBRANCH  23  24
ENDBRANCH   4  23
TORSDOF 8
ENDMDL
MODEL 7
REMARK VINA RESULT:    -6.292      2.340      3.013
REMARK INTER + INTRA:         -10.813
REMARK INTER:                  -9.494
REMARK INTRA:                  -1.319
REMARK UNBOUND:                -1.579
REMARK  Name = 
REMARK  10 active torsions:
REMARK  status: ('A' for Active; 'I' for Inactive)
REMARK    1  A    between atoms: C_1  and  O_2
REMARK    2  A    between atoms: O_2  and  C_3
REMARK    3  A    between atoms: C_10  and  C_11
REMARK    4  A    between atoms: N_13  and  C_14
REMARK    5  A    between atoms: C_14  and  C_15
REMARK    6  A    between atoms: C_18  and  C_19
REMARK    7  A    between atoms: C_19  and  N_20
REMARK    8  A    between atoms: N_20  and  C_21
REMARK    9  A    between atoms: C_21  and  C_22
REMARK   10  A    between atoms: C_21  and  C_23
REMARK                            x       y       z     vdW  Elec       q    Type
REMARK                         _______ _______ _______ _____ _____    ______ ____
ROOT
ATOM      1  C   UNL     1      47.231   7.179  13.295  0.00  0.00    +0.000 A 
ATOM      2  C   UNL     1      47.085   5.785  13.325  0.00  0.00    +0.000 A 
ATOM      3  C   UNL     1      46.129   5.148  12.518  0.00  0.00    +0.000 A 
ATOM      4  C   UNL     1      45.320   5.890  11.648  0.00  0.00    +0.000 A 
ATOM      5  C   UNL     1      45.527   7.276  11.566  0.00  0.00    +0.000 A 
ATOM      6  C   UNL     1      46.472   7.911  12.374  0.00  0.00    +0.000 A 
ENDROOT
BRANCH   1   7
ATOM      7  C   UNL     1      48.189   7.885  14.223  0.00  0.00    +0.000 C 
BRANCH   7  10
ATOM      8  C   UNL     1      49.043   6.691  16.201  0.00  0.00    +0.000 C 
ATOM      9  O   UNL     1      50.091   6.399  15.637  0.00  0.00    +0.000 OA
ATOM     10  N   UNL     1      48.068   7.411  15.575  0.00  0.00    +0.000 N 
ATOM     11  H   UNL     1      47.194   7.610  16.050  0.00  0.00    +0.000 HD
BRANCH   8  19
ATOM     12  C   UNL     1      47.786   8.347  18.950  0.00  0.00    +0.000 A 
ATOM     13  N   UNL     1      47.311   8.738  20.148  0.00  0.00    +0.000 NA
ATOM     14  C   UNL     1      47.302   7.845  21.139  0.00  0.00    +0.000 A 
ATOM     15  N   UNL     1      47.718   6.582  21.085  0.00  0.00    +0.000 NA
ATOM     16  C   UNL     1      48.172   6.230  19.869  0.00  0.00    +0.000 A 
ATOM     17  S   UNL     1      48.746   4.653  19.613  0.00  0.00    +0.000 S 
ATOM     18  C   UNL     1      49.092   4.988  17.984  0.00  0.00    +0.000 A 
ATOM     19  C   UNL     1      48.782   6.287  17.598  0.00  0.00    +0.000 A 
ATOM     20  C   UNL     1      48.238   7.033  18.734  0.00  0.00    +0.000 A 
BRANCH  12  22
ATOM     21  C   UNL     1      48.915  10.125  17.931  0.00  0.00    +0.000 C 
ATOM     22  O   UNL     1      47.778   9.266  17.922  0.00  0.00    +0.000 OA
ENDBRANCH  12  22
ENDBRANCH   8  19
ENDBRANCH   7  10
ENDBRANCH   1   7
BRANCH   4  23
ATOM     23  C   UNL     1      44.270   5.239  10.766  0.00  0.00    +0.000 C 
BRANCH  23  24
ATOM     24  N   UNL     1      44.772   4.949   9.420  0.00  0.00    +0.000 NA
ATOM     25  H   UNL     1      45.772   5.140   9.403  0.00  0.00    +0.000 HD
BRANCH  24  26
ATOM     26  C   UNL     1      44.546   3.543   9.007  0.00  0.00    +0.000 C 
ATOM     27  C   UNL     1      44.303   2.621  10.212  0.00  0.00    +0.000 C 
BRANCH  26  28
ATOM     28  C   UNL     1      45.595   2.960   8.053  0.00  0.00    +0.000 A 
ATOM     29  C   UNL     1      46.099   1.676   8.264  0.00  0.00    +0.000 A 
ATOM     30  C   UNL     1      47.135   1.214   7.453  0.00  0.00    +0.000 A 
ATOM     31  C   UNL     1      47.620   2.023   6.435  0.00  0.00    +0.000 A 
ATOM     32  C   UNL     1      47.028   3.259   6.250  0.00  0.00    +0.000 A 
ATOM     33  N   UNL     1      46.031   3.737   7.027  0.00  0.00    +0.000 NA
ENDBRANCH  26  28
ENDBRANCH  24  26
ENDBRANCH  23  24
ENDBRANCH   4  23
TORSDOF 8
ENDMDL
MODEL 8
REMARK VINA RESULT:    -6.235      3.608      8.145
REMARK INTER + INTRA:         -10.729
REMARK INTER:                  -8.978
REMARK INTRA:                  -1.751
REMARK UNBOUND:                -1.579
REMARK  Name = 
REMARK  10 active torsions:
REMARK  status: ('A' for Active; 'I' for Inactive)
REMARK    1  A    between atoms: C_1  and  O_2
REMARK    2  A    between atoms: O_2  and  C_3
REMARK    3  A    between atoms: C_10  and  C_11
REMARK    4  A    between atoms: N_13  and  C_14
REMARK    5  A    between atoms: C_14  and  C_15
REMARK    6  A    between atoms: C_18  and  C_19
REMARK    7  A    between atoms: C_19  and  N_20
REMARK    8  A    between atoms: N_20  and  C_21
REMARK    9  A    between atoms: C_21  and  C_22
REMARK   10  A    between atoms: C_21  and  C_23
REMARK                            x       y       z     vdW  Elec       q    Type
REMARK                         _______ _______ _______ _____ _____    ______ ____
ROOT
ATOM      1  C   UNL     1      48.269   8.620  15.272  0.00  0.00    +0.000 A 
ATOM      2  C   UNL     1      47.994   9.438  16.377  0.00  0.00    +0.000 A 
ATOM      3  C   UNL     1      48.283   9.002  17.680  0.00  0.00    +0.000 A 
ATOM      4  C   UNL     1      48.876   7.752  17.900  0.00  0.00    +0.000 A 
ATOM      5  C   UNL     1      49.222   6.974  16.784  0.00  0.00    +0.000 A 
ATOM      6  C   UNL     1      48.927   7.403  15.488  0.00  0.00    +0.000 A 
ENDROOT
BRANCH   1   7
ATOM      7  C   UNL     1      47.880   9.035  13.875  0.00  0.00    +0.000 C 
BRANCH   7  10
ATOM      8  C   UNL     1      46.794   7.300  12.504  0.00  0.00    +0.000 C 
ATOM      9  O   UNL     1      47.863   6.935  12.025  0.00  0.00    +0.000 OA
ATOM     10  N   UNL     1      46.724   8.318  13.408  0.00  0.00    +0.000 N 
ATOM     11  H   UNL     1      45.825   8.626  13.762  0.00  0.00    +0.000 HD
BRANCH   8  19
ATOM     12  C   UNL     1      45.618   4.073  12.787  0.00  0.00    +0.000 A 
ATOM     13  N   UNL     1      44.916   2.924  12.799  0.00  0.00    +0.000 NA
ATOM     14  C   UNL     1      43.682   2.940  12.291  0.00  0.00    +0.000 A 
ATOM     15  N   UNL     1      43.047   3.981  11.759  0.00  0.00    +0.000 NA
ATOM     16  C   UNL     1      43.778   5.109  11.779  0.00  0.00    +0.000 A 
ATOM     17  S   UNL     1      43.127   6.541  11.140  0.00  0.00    +0.000 S 
ATOM     18  C   UNL     1      44.537   7.410  11.517  0.00  0.00    +0.000 A 
ATOM     19  C   UNL     1      45.522   6.647  12.131  0.00  0.00    +0.000 A 
ATOM     20  C   UNL     1      45.067   5.264  12.279  0.00  0.00    +0.000 A 
BRANCH  12  22
ATOM     21  C   UNL     1      46.904   4.387  14.716  0.00  0.00    +0.000 C 
ATOM     22  O   UNL     1      46.885   4.059  13.329  0.00  0.00    +0.000 OA
ENDBRANCH  12  22
ENDBRANCH   8  19
ENDBRANCH   7  10
ENDBRANCH   1   7
BRANCH   4  23
ATOM     23  C   UNL     1      49.197   7.243  19.294  0.00  0.00    +0.000 C 
BRANCH  23  24
ATOM     24  N   UNL     1      48.264   6.203  19.737  0.00  0.00    +0.000 NA
ATOM     25  H   UNL     1      47.601   6.025  18.985  0.00  0.00    +0.000 HD
BRANCH  24  26
ATOM     26  C   UNL     1      48.938   4.932  20.092  0.00  0.00    +0.000 C 
ATOM     27  C   UNL     1      50.085   5.147  21.092  0.00  0.00    +0.000 C 
BRANCH  26  28
ATOM     28  C   UNL     1      49.378   4.066  18.906  0.00  0.00    +0.000 A 
ATOM     29  C   UNL     1      48.432   3.357  18.165  0.00  0.00    +0.000 A 
ATOM     30  C   UNL     1      48.867   2.487  17.166  0.00  0.00    +0.000 A 
ATOM     31  C   UNL     1      50.226   2.368  16.907  0.00  0.00    +0.000 A 
ATOM     32  C   UNL     1      51.098   3.149  17.644  0.00  0.00    +0.000 A 
ATOM     33  N   UNL     1      50.705   3.992  18.624  0.00  0.00    +0.000 NA
ENDBRANCH  26  28
ENDBRANCH  24  26
ENDBRANCH  23  24
ENDBRANCH   4  23
TORSDOF 8
ENDMDL
MODEL 9
REMARK VINA RESULT:    -5.613      2.857      3.865
REMARK INTER + INTRA:          -9.817
REMARK INTER:                  -8.795
REMARK INTRA:                  -1.022
REMARK UNBOUND:                -1.579
REMARK  Name = 
REMARK  10 active torsions:
REMARK  status: ('A' for Active; 'I' for Inactive)
REMARK    1  A    between atoms: C_1  and  O_2
REMARK    2  A    between atoms: O_2  and  C_3
REMARK    3  A    between atoms: C_10  and  C_11
REMARK    4  A    between atoms: N_13  and  C_14
REMARK    5  A    between atoms: C_14  and  C_15
REMARK    6  A    between atoms: C_18  and  C_19
REMARK    7  A    between atoms: C_19  and  N_20
REMARK    8  A    between atoms: N_20  and  C_21
REMARK    9  A    between atoms: C_21  and  C_22
REMARK   10  A    between atoms: C_21  and  C_23
REMARK                            x       y       z     vdW  Elec       q    Type
REMARK                         _______ _______ _______ _____ _____    ______ ____
ROOT
ATOM      1  C   UNL     1      47.134   9.223  13.062  0.00  0.00    +0.000 A 
ATOM      2  C   UNL     1      46.172   9.574  12.103  0.00  0.00    +0.000 A 
ATOM      3  C   UNL     1      45.382   8.590  11.488  0.00  0.00    +0.000 A 
ATOM      4  C   UNL     1      45.520   7.241  11.839  0.00  0.00    +0.000 A 
ATOM      5  C   UNL     1      46.428   6.907  12.856  0.00  0.00    +0.000 A 
ATOM      6  C   UNL     1      47.220   7.885  13.463  0.00  0.00    +0.000 A 
ENDROOT
BRANCH   1   7
ATOM      7  C   UNL     1      48.053  10.257  13.663  0.00  0.00    +0.000 C 
BRANCH   7  10
ATOM      8  C   UNL     1      50.287   9.433  13.029  0.00  0.00    +0.000 C 
ATOM      9  O   UNL     1      50.083   9.643  11.838  0.00  0.00    +0.000 OA
ATOM     10  N   UNL     1      49.344   9.705  13.976  0.00  0.00    +0.000 N 
ATOM     11  H   UNL     1      49.522   9.490  14.951  0.00  0.00    +0.000 HD
BRANCH   8  19
ATOM     12  C   UNL     1      51.147   7.320  15.611  0.00  0.00    +0.000 A 
ATOM     13  N   UNL     1      51.744   6.510  16.506  0.00  0.00    +0.000 NA
ATOM     14  C   UNL     1      53.068   6.366  16.434  0.00  0.00    +0.000 A 
ATOM     15  N   UNL     1      53.891   6.942  15.561  0.00  0.00    +0.000 NA
ATOM     16  C   UNL     1      53.253   7.730  14.679  0.00  0.00    +0.000 A 
ATOM     17  S   UNL     1      54.145   8.550  13.489  0.00  0.00    +0.000 S 
ATOM     18  C   UNL     1      52.739   9.250  12.843  0.00  0.00    +0.000 A 
ATOM     19  C   UNL     1      51.573   8.882  13.504  0.00  0.00    +0.000 A 
ATOM     20  C   UNL     1      51.885   7.977  14.610  0.00  0.00    +0.000 A 
BRANCH  12  22
ATOM     21  C   UNL     1      49.115   6.251  16.066  0.00  0.00    +0.000 C 
ATOM     22  O   UNL     1      49.776   7.452  15.675  0.00  0.00    +0.000 OA
ENDBRANCH  12  22
ENDBRANCH   8  19
ENDBRANCH   7  10
ENDBRANCH   1   7
BRANCH   4  23
ATOM     23  C   UNL     1      44.690   6.147  11.192  0.00  0.00    +0.000 C 
BRANCH  23  24
ATOM     24  N   UNL     1      45.415   5.452  10.125  0.00  0.00    +0.000 NA
ATOM     25  H   UNL     1      46.265   5.054  10.520  0.00  0.00    +0.000 HD
BRANCH  24  26
ATOM     26  C   UNL     1      44.625   4.366   9.497  0.00  0.00    +0.000 C 
ATOM     27  C   UNL     1      43.859   3.536  10.539  0.00  0.00    +0.000 C 
BRANCH  26  28
ATOM     28  C   UNL     1      45.395   3.472   8.519  0.00  0.00    +0.000 A 
ATOM     29  C   UNL     1      45.609   2.126   8.819  0.00  0.00    +0.000 A 
ATOM     30  C   UNL     1      46.410   1.362   7.971  0.00  0.00    +0.000 A 
ATOM     31  C   UNL     1      46.951   1.945   6.833  0.00  0.00    +0.000 A 
ATOM     32  C   UNL     1      46.644   3.268   6.572  0.00  0.00    +0.000 A 
ATOM     33  N   UNL     1      45.880   4.034   7.381  0.00  0.00    +0.000 NA
ENDBRANCH  26  28
ENDBRANCH  24  26
ENDBRANCH  23  24
ENDBRANCH   4  23
TORSDOF 8
ENDMDL
