MODEL 1
REMARK VINA RESULT:    -9.042      0.000      0.000
REMARK INTER + INTRA:         -12.367
REMARK INTER:                 -11.685
REMARK INTRA:                  -0.682
REMARK UNBOUND:                -0.682
REMARK  Name = 
REMARK  5 active torsions:
REMARK  status: ('A' for Active; 'I' for Inactive)
REMARK    1  A    between atoms: C_2  and  C_3
REMARK    2  A    between atoms: N_7  and  C_8
REMARK    3  A    between atoms: C_8  and  C_9
REMARK    4  A    between atoms: C_9  and  C_12
REMARK    5  A    between atoms: C_16  and  C_17
REMARK                            x       y       z     vdW  Elec       q    Type
REMARK                         _______ _______ _______ _____ _____    ______ ____
ROOT
ATOM      1  C   UNL     1      43.448   5.461  12.170  0.00  0.00    +0.000 C 
ATOM      2  F   UNL     1      42.966   6.629  11.649  0.00  0.00    +0.000 F 
ATOM      3  F   UNL     1      42.645   5.186  13.242  0.00  0.00    +0.000 F 
ENDROOT
BRANCH   1   4
ATOM      4  C   UNL     1      44.910   5.566  12.584  0.00  0.00    +0.000 A 
ATOM      5  C   UNL     1      45.725   6.553  12.006  0.00  0.00    +0.000 A 
ATOM      6  C   UNL     1      47.046   6.726  12.424  0.00  0.00    +0.000 A 
ATOM      7  C   UNL     1      47.570   5.921  13.436  0.00  0.00    +0.000 A 
ATOM      8  C   UNL     1      46.780   4.925  14.019  0.00  0.00    +0.000 A 
ATOM      9  C   UNL     1      45.455   4.743  13.584  0.00  0.00    +0.000 A 
BRANCH   8  10
ATOM     10  C   UNL     1      47.279   4.107  15.156  0.00  0.00    +0.000 C 
ATOM     11  N   UNL     1      47.197   4.640  16.412  0.00  0.00    +0.000 N 
ATOM     12  O   UNL     1      47.746   2.989  14.976  0.00  0.00    +0.000 OA
ATOM     13  H   UNL     1      46.989   5.609  16.600  0.00  0.00    +0.000 HD
ATOM     14  H   UNL     1      47.586   4.087  17.168  0.00  0.00    +0.000 HD
ENDBRANCH   8  10
ENDBRANCH   1   4
BRANCH   1  15
ATOM     15  C   UNL     1      43.275   4.336  11.111  0.00  0.00    +0.000 C 
BRANCH  15  20
ATOM     16  C   UNL     1      46.546   2.645   7.601  0.00  0.00    +0.000 A 
ATOM     17  C   UNL     1      45.712   1.930   8.450  0.00  0.00    +0.000 A 
ATOM     18  C   UNL     1      44.749   2.611   9.195  0.00  0.00    +0.000 A 
ATOM     19  C   UNL     1      44.638   3.996   9.087  0.00  0.00    +0.000 A 
ATOM     20  N   UNL     1      43.660   4.724   9.743  0.00  0.00    +0.000 N 
ATOM     21  N   UNL     1      45.449   4.698   8.273  0.00  0.00    +0.000 NA
ATOM     22  C   UNL     1      46.379   4.018   7.550  0.00  0.00    +0.000 A 
ATOM     23  H   UNL     1      43.842   5.718   9.605  0.00  0.00    +0.000 HD
BRANCH  16  25
ATOM     24  N   UNL     1      48.339   1.464   6.152  0.00  0.00    +0.000 NA
ATOM     25  C   UNL     1      47.531   1.993   6.800  0.00  0.00    +0.000 C 
ENDBRANCH  16  25
ENDBRANCH  15  20
ENDBRANCH   1  15
TORSDOF 5
ENDMDL
MODEL 2
REMARK VINA RESULT:    -8.522      2.347      2.788
REMARK INTER + INTRA:         -11.695
REMARK INTER:                 -11.046
REMARK INTRA:                  -0.650
REMARK UNBOUND:                -0.682
REMARK  Name = 
REMARK  5 active torsions:
REMARK  status: ('A' for Active; 'I' for Inactive)
REMARK    1  A    between atoms: C_2  and  C_3
REMARK    2  A    between atoms: N_7  and  C_8
REMARK    3  A    between atoms: C_8  and  C_9
REMARK    4  A    between atoms: C_9  and  C_12
REMARK    5  A    between atoms: C_16  and  C_17
REMARK                            x       y       z     vdW  Elec       q    Type
REMARK                         _______ _______ _______ _____ _____    ______ ____
ROOT
ATOM      1  C   UNL     1      43.220   4.855  12.501  0.00  0.00    +0.000 C 
ATOM      2  F   UNL     1      42.173   5.647  12.122  0.00  0.00    +0.000 F 
ATOM      3  F   UNL     1      42.817   4.252  13.659  0.00  0.00    +0.000 F 
ENDROOT
BRANCH   1   4
ATOM      4  C   UNL     1      44.505   5.647  12.705  0.00  0.00    +0.000 A 
ATOM      5  C   UNL     1      45.699   4.968  12.999  0.00  0.00    +0.000 A 
ATOM      6  C   UNL     1      46.907   5.659  13.111  0.00  0.00    +0.000 A 
ATOM      7  C   UNL     1      46.943   7.041  12.920  0.00  0.00    +0.000 A 
ATOM      8  C   UNL     1      45.764   7.739  12.639  0.00  0.00    +0.000 A 
ATOM      9  C   UNL     1      44.547   7.042  12.541  0.00  0.00    +0.000 A 
BRANCH   8  10
ATOM     10  C   UNL     1      45.779   9.198  12.347  0.00  0.00    +0.000 C 
ATOM     11  N   UNL     1      44.640   9.911  12.594  0.00  0.00    +0.000 N 
ATOM     12  O   UNL     1      46.780   9.745  11.903  0.00  0.00    +0.000 OA
ATOM     13  H   UNL     1      43.744   9.491  12.790  0.00  0.00    +0.000 HD
ATOM     14  H   UNL     1      44.654  10.894  12.345  0.00  0.00    +0.000 HD
ENDBRANCH   8  10
ENDBRANCH   1   4
BRANCH   1  15
ATOM     15  C   UNL     1      43.436   3.764  11.414  0.00  0.00    +0.000 C 
BRANCH  15  20
ATOM     16  C   UNL     1      46.560   2.573   7.580  0.00  0.00    +0.000 A 
ATOM     17  C   UNL     1      45.817   1.740   8.407  0.00  0.00    +0.000 A 
ATOM     18  C   UNL     1      44.870   2.299   9.265  0.00  0.00    +0.000 A 
ATOM     19  C   UNL     1      44.684   3.679   9.292  0.00  0.00    +0.000 A 
ATOM     20  N   UNL     1      43.715   4.292  10.068  0.00  0.00    +0.000 N 
ATOM     21  N   UNL     1      45.407   4.494   8.500  0.00  0.00    +0.000 NA
ATOM     22  C   UNL     1      46.323   3.933   7.665  0.00  0.00    +0.000 A 
ATOM     23  H   UNL     1      43.838   5.303  10.011  0.00  0.00    +0.000 HD
BRANCH  16  25
ATOM     24  N   UNL     1      48.303   1.621   5.918  0.00  0.00    +0.000 NA
ATOM     25  C   UNL     1      47.524   2.049   6.667  0.00  0.00    +0.000 C 
ENDBRANCH  16  25
ENDBRANCH  15  20
ENDBRANCH   1  15
TORSDOF 5
ENDMDL
MODEL 3
REMARK VINA RESULT:    -7.977      2.057      2.408
REMARK INTER + INTRA:         -10.991
REMARK INTER:                 -10.519
REMARK INTRA:                  -0.472
REMARK UNBOUND:                -0.682
REMARK  Name = 
REMARK  5 active torsions:
REMARK  status: ('A' for Active; 'I' for Inactive)
REMARK    1  A    between atoms: C_2  and  C_3
REMARK    2  A    between atoms: N_7  and  C_8
REMARK    3  A    between atoms: C_8  and  C_9
REMARK    4  A    between atoms: C_9  and  C_12
REMARK    5  A    between atoms: C_16  and  C_17
REMARK                            x       y       z     vdW  Elec       q    Type
REMARK                         _______ _______ _______ _____ _____    ______ ____
ROOT
ATOM      1  C   UNL     1      44.420   4.437  12.241  0.00  0.00    +0.000 C 
ATOM      2  F   UNL     1      43.775   4.338  13.442  0.00  0.00    +0.000 F 
ATOM      3  F   UNL     1      45.280   3.375  12.205  0.00  0.00    +0.000 F 
ENDROOT
BRANCH   1   4
ATOM      4  C   UNL     1      45.162   5.758  12.085  0.00  0.00    +0.000 A 
ATOM      5  C   UNL     1      44.435   6.941  11.876  0.00  0.00    +0.000 A 
ATOM      6  C   UNL     1      45.082   8.177  11.811  0.00  0.00    +0.000 A 
ATOM      7  C   UNL     1      46.467   8.251  11.965  0.00  0.00    +0.000 A 
ATOM      8  C   UNL     1      47.212   7.083  12.163  0.00  0.00    +0.000 A 
ATOM      9  C   UNL     1      46.559   5.839  12.213  0.00  0.00    +0.000 A 
BRANCH   8  10
ATOM     10  C   UNL     1      48.677   7.134  12.414  0.00  0.00    +0.000 C 
ATOM     11  N   UNL     1      49.450   7.859  11.551  0.00  0.00    +0.000 N 
ATOM     12  O   UNL     1      49.177   6.547  13.366  0.00  0.00    +0.000 OA
ATOM     13  H   UNL     1      49.124   8.211  10.664  0.00  0.00    +0.000 HD
ATOM     14  H   UNL     1      50.451   7.842  11.712  0.00  0.00    +0.000 HD
ENDBRANCH   8  10
ENDBRANCH   1   4
BRANCH   1  15
ATOM     15  C   UNL     1      43.374   4.277  11.102  0.00  0.00    +0.000 C 
BRANCH  15  20
ATOM     16  C   UNL     1      46.651   2.691   7.548  0.00  0.00    +0.000 A 
ATOM     17  C   UNL     1      45.745   1.960   8.305  0.00  0.00    +0.000 A 
ATOM     18  C   UNL     1      44.801   2.635   9.080  0.00  0.00    +0.000 A 
ATOM     19  C   UNL     1      44.781   4.028   9.095  0.00  0.00    +0.000 A 
ATOM     20  N   UNL     1      43.829   4.759   9.786  0.00  0.00    +0.000 N 
ATOM     21  N   UNL     1      45.663   4.744   8.372  0.00  0.00    +0.000 NA
ATOM     22  C   UNL     1      46.573   4.071   7.617  0.00  0.00    +0.000 A 
ATOM     23  H   UNL     1      44.078   5.746   9.744  0.00  0.00    +0.000 HD
BRANCH  16  25
ATOM     24  N   UNL     1      48.404   1.522   6.042  0.00  0.00    +0.000 NA
ATOM     25  C   UNL     1      47.620   2.049   6.720  0.00  0.00    +0.000 C 
ENDBRANCH  16  25
ENDBRANCH  15  20
ENDBRANCH   1  15
TORSDOF 5
ENDMDL
MODEL 4
REMARK VINA RESULT:    -7.852      2.845      6.204
REMARK INTER + INTRA:         -10.829
REMARK INTER:                 -10.092
REMARK INTRA:                  -0.737
REMARK UNBOUND:                -0.682
REMARK  Name = 
REMARK  5 active torsions:
REMARK  status: ('A' for Active; 'I' for Inactive)
REMARK    1  A    between atoms: C_2  and  C_3
REMARK    2  A    between atoms: N_7  and  C_8
REMARK    3  A    between atoms: C_8  and  C_9
REMARK    4  A    between atoms: C_9  and  C_12
REMARK    5  A    between atoms: C_16  and  C_17
REMARK                            x       y       z     vdW  Elec       q    Type
REMARK                         _______ _______ _______ _____ _____    ______ ____
ROOT
ATOM      1  C   UNL     1      44.353   3.071  11.005  0.00  0.00    +0.000 C 
ATOM      2  F   UNL     1      45.168   2.598  11.994  0.00  0.00    +0.000 F 
ATOM      3  F   UNL     1      43.313   2.186  10.938  0.00  0.00    +0.000 F 
ENDROOT
BRANCH   1   4
ATOM      4  C   UNL     1      45.069   3.188   9.665  0.00  0.00    +0.000 A 
ATOM      5  C   UNL     1      45.234   4.452   9.075  0.00  0.00    +0.000 A 
ATOM      6  C   UNL     1      45.956   4.600   7.890  0.00  0.00    +0.000 A 
ATOM      7  C   UNL     1      46.536   3.486   7.280  0.00  0.00    +0.000 A 
ATOM      8  C   UNL     1      46.375   2.216   7.844  0.00  0.00    +0.000 A 
ATOM      9  C   UNL     1      45.634   2.069   9.030  0.00  0.00    +0.000 A 
BRANCH   8  10
ATOM     10  C   UNL     1      47.049   1.022   7.268  0.00  0.00    +0.000 C 
ATOM     11  N   UNL     1      46.693  -0.207   7.748  0.00  0.00    +0.000 N 
ATOM     12  O   UNL     1      47.894   1.133   6.389  0.00  0.00    +0.000 OA
ATOM     13  H   UNL     1      46.141  -0.348   8.581  0.00  0.00    +0.000 HD
ATOM     14  H   UNL     1      47.196  -1.005   7.377  0.00  0.00    +0.000 HD
ENDBRANCH   8  10
ENDBRANCH   1   4
BRANCH   1  15
ATOM     15  C   UNL     1      43.803   4.461  11.436  0.00  0.00    +0.000 C 
BRANCH  15  20
ATOM     16  C   UNL     1      48.071   6.772  12.958  0.00  0.00    +0.000 A 
ATOM     17  C   UNL     1      47.307   6.987  11.819  0.00  0.00    +0.000 A 
ATOM     18  C   UNL     1      46.060   6.372  11.707  0.00  0.00    +0.000 A 
ATOM     19  C   UNL     1      45.599   5.545  12.729  0.00  0.00    +0.000 A 
ATOM     20  N   UNL     1      44.344   4.959  12.713  0.00  0.00    +0.000 N 
ATOM     21  N   UNL     1      46.338   5.323  13.832  0.00  0.00    +0.000 NA
ATOM     22  C   UNL     1      47.549   5.935  13.928  0.00  0.00    +0.000 A 
ATOM     23  H   UNL     1      44.271   4.315  13.500  0.00  0.00    +0.000 HD
BRANCH  16  25
ATOM     24  N   UNL     1      50.375   7.914  13.270  0.00  0.00    +0.000 NA
ATOM     25  C   UNL     1      49.342   7.398  13.132  0.00  0.00    +0.000 C 
ENDBRANCH  16  25
ENDBRANCH  15  20
ENDBRANCH   1  15
TORSDOF 5
ENDMDL
MODEL 5
REMARK VINA RESULT:    -6.471      3.045      6.192
REMARK INTER + INTRA:          -9.045
REMARK INTER:                  -8.206
REMARK INTRA:                  -0.839
REMARK UNBOUND:                -0.682
REMARK  Name = 
REMARK  5 active torsions:
REMARK  status: ('A' for Active; 'I' for Inactive)
REMARK    1  A    between atoms: C_2  and  C_3
REMARK    2  A    between atoms: N_7  and  C_8
REMARK    3  A    between atoms: C_8  and  C_9
REMARK    4  A    between atoms: C_9  and  C_12
REMARK    5  A    between atoms: C_16  and  C_17
REMARK                            x       y       z     vdW  Elec       q    Type
REMARK                         _______ _______ _______ _____ _____    ______ ____
ROOT
ATOM      1  C   UNL     1      43.487   5.660  11.659  0.00  0.00    +0.000 C 
ATOM      2  F   UNL     1      42.217   5.442  12.114  0.00  0.00    +0.000 F 
ATOM      3  F   UNL     1      43.412   6.799  10.908  0.00  0.00    +0.000 F 
ENDROOT
BRANCH   1   4
ATOM      4  C   UNL     1      44.022   4.491  10.842  0.00  0.00    +0.000 A 
ATOM      5  C   UNL     1      43.599   3.185  11.140  0.00  0.00    +0.000 A 
ATOM      6  C   UNL     1      44.008   2.104  10.357  0.00  0.00    +0.000 A 
ATOM      7  C   UNL     1      44.839   2.311   9.256  0.00  0.00    +0.000 A 
ATOM      8  C   UNL     1      45.282   3.602   8.948  0.00  0.00    +0.000 A 
ATOM      9  C   UNL     1      44.880   4.687   9.747  0.00  0.00    +0.000 A 
BRANCH   8  10
ATOM     10  C   UNL     1      46.099   3.871   7.734  0.00  0.00    +0.000 C 
ATOM     11  N   UNL     1      46.014   2.986   6.696  0.00  0.00    +0.000 N 
ATOM     12  O   UNL     1      46.824   4.855   7.663  0.00  0.00    +0.000 OA
ATOM     13  H   UNL     1      45.577   2.079   6.765  0.00  0.00    +0.000 HD
ATOM     14  H   UNL     1      46.613   3.160   5.898  0.00  0.00    +0.000 HD
ENDBRANCH   8  10
ENDBRANCH   1   4
BRANCH   1  15
ATOM     15  C   UNL     1      44.414   5.922  12.880  0.00  0.00    +0.000 C 
BRANCH  15  20
ATOM     16  C   UNL     1      48.842   8.368  12.337  0.00  0.00    +0.000 A 
ATOM     17  C   UNL     1      48.289   7.356  11.563  0.00  0.00    +0.000 A 
ATOM     18  C   UNL     1      46.966   6.972  11.783  0.00  0.00    +0.000 A 
ATOM     19  C   UNL     1      46.217   7.598  12.778  0.00  0.00    +0.000 A 
ATOM     20  N   UNL     1      44.880   7.314  13.002  0.00  0.00    +0.000 N 
ATOM     21  N   UNL     1      46.748   8.573  13.539  0.00  0.00    +0.000 NA
ATOM     22  C   UNL     1      48.038   8.939  13.308  0.00  0.00    +0.000 A 
ATOM     23  H   UNL     1      44.576   7.806  13.842  0.00  0.00    +0.000 HD
BRANCH  16  25
ATOM     24  N   UNL     1      51.272   9.183  11.972  0.00  0.00    +0.000 NA
ATOM     25  C   UNL     1      50.182   8.813  12.135  0.00  0.00    +0.000 C 
ENDBRANCH  16  25
ENDBRANCH  15  20
ENDBRANCH   1  15
TORSDOF 5
ENDMDL
MODEL 6
REMARK VINA RESULT:    -6.314      2.647      7.060
REMARK INTER + INTRA:          -8.842
REMARK INTER:                  -8.332
REMARK INTRA:                  -0.510
REMARK UNBOUND:                -0.682
REMARK  Name = 
REMARK  5 active torsions:
REMARK  status: ('A' for Active; 'I' for Inactive)
REMARK    1  A    between atoms: C_2  and  C_3
REMARK    2  A    between atoms: N_7  and  C_8
REMARK    3  A    between atoms: C_8  and  C_9
REMARK    4  A    between atoms: C_9  and  C_12
REMARK    5  A    between atoms: C_16  and  C_17
REMARK                            x       y       z     vdW  Elec       q    Type
REMARK                         _______ _______ _______ _____ _____    ______ ____
ROOT
ATOM      1  C   UNL     1      44.885   6.056  11.371  0.00  0.00    +0.000 C 
ATOM      2  F   UNL     1      43.650   6.641  11.384  0.00  0.00    +0.000 F 
ATOM      3  F   UNL     1      45.717   6.979  10.802  0.00  0.00    +0.000 F 
ENDROOT
BRANCH   1   4
ATOM      4  C   UNL     1      44.900   4.743  10.599  0.00  0.00    +0.000 A 
ATOM      5  C   UNL     1      44.090   3.678  11.024  0.00  0.00    +0.000 A 
ATOM      6  C   UNL     1      44.021   2.493  10.289  0.00  0.00    +0.000 A 
ATOM      7  C   UNL     1      44.755   2.357   9.110  0.00  0.00    +0.000 A 
ATOM      8  C   UNL     1      45.578   3.401   8.674  0.00  0.00    +0.000 A 
ATOM      9  C   UNL     1      45.656   4.588   9.424  0.00  0.00    +0.000 A 
BRANCH   8  10
ATOM     10  C   UNL     1      46.307   3.322   7.380  0.00  0.00    +0.000 C 
ATOM     11  N   UNL     1      46.819   2.111   7.006  0.00  0.00    +0.000 N 
ATOM     12  O   UNL     1      46.444   4.309   6.668  0.00  0.00    +0.000 OA
ATOM     13  H   UNL     1      46.890   1.316   7.623  0.00  0.00    +0.000 HD
ATOM     14  H   UNL     1      47.353   2.088   6.145  0.00  0.00    +0.000 HD
ENDBRANCH   8  10
ENDBRANCH   1   4
BRANCH   1  15
ATOM     15  C   UNL     1      45.334   5.813  12.840  0.00  0.00    +0.000 C 
BRANCH  15  20
ATOM     16  C   UNL     1      48.561   4.914  16.669  0.00  0.00    +0.000 A 
ATOM     17  C   UNL     1      47.498   4.148  16.210  0.00  0.00    +0.000 A 
ATOM     18  C   UNL     1      46.872   4.495  15.012  0.00  0.00    +0.000 A 
ATOM     19  C   UNL     1      47.311   5.606  14.295  0.00  0.00    +0.000 A 
ATOM     20  N   UNL     1      46.781   5.965  13.067  0.00  0.00    +0.000 N 
ATOM     21  N   UNL     1      48.335   6.360  14.738  0.00  0.00    +0.000 NA
ATOM     22  C   UNL     1      48.938   6.005  15.905  0.00  0.00    +0.000 A 
ATOM     23  H   UNL     1      47.176   6.863  12.789  0.00  0.00    +0.000 HD
BRANCH  16  25
ATOM     24  N   UNL     1      49.808   4.313  18.858  0.00  0.00    +0.000 NA
ATOM     25  C   UNL     1      49.250   4.587  17.875  0.00  0.00    +0.000 C 
ENDBRANCH  16  25
ENDBRANCH  15  20
ENDBRANCH   1  15
TORSDOF 5
ENDMDL
MODEL 7
REMARK VINA RESULT:    -6.293      2.118      2.593
REMARK INTER + INTRA:          -8.815
REMARK INTER:                  -8.024
REMARK INTRA:                  -0.791
REMARK UNBOUND:                -0.682
REMARK  Name = 
REMARK  5 active torsions:
REMARK  status: ('A' for Active; 'I' for Inactive)
REMARK    1  A    between atoms: C_2  and  C_3
REMARK    2  A    between atoms: N_7  and  C_8
REMARK    3  A    between atoms: C_8  and  C_9
REMARK    4  A    between atoms: C_9  and  C_12
REMARK    5  A    between atoms: C_16  and  C_17
REMARK                            x       y       z     vdW  Elec       q    Type
REMARK                         _______ _______ _______ _____ _____    ______ ____
ROOT
ATOM      1  C   UNL     1      44.814   6.965  11.688  0.00  0.00    +0.000 C 
ATOM      2  F   UNL     1      45.392   7.189  10.471  0.00  0.00    +0.000 F 
ATOM      3  F   UNL     1      44.222   8.148  12.031  0.00  0.00    +0.000 F 
ENDROOT
BRANCH   1   4
ATOM      4  C   UNL     1      45.824   6.524  12.740  0.00  0.00    +0.000 A 
ATOM      5  C   UNL     1      45.727   5.239  13.299  0.00  0.00    +0.000 A 
ATOM      6  C   UNL     1      46.685   4.779  14.204  0.00  0.00    +0.000 A 
ATOM      7  C   UNL     1      47.762   5.592  14.558  0.00  0.00    +0.000 A 
ATOM      8  C   UNL     1      47.873   6.879  14.022  0.00  0.00    +0.000 A 
ATOM      9  C   UNL     1      46.898   7.346  13.122  0.00  0.00    +0.000 A 
BRANCH   8  10
ATOM     10  C   UNL     1      49.050   7.740  14.311  0.00  0.00    +0.000 C 
ATOM     11  N   UNL     1      50.210   7.129  14.699  0.00  0.00    +0.000 N 
ATOM     12  O   UNL     1      48.988   8.958  14.202  0.00  0.00    +0.000 OA
ATOM     13  H   UNL     1      50.271   6.160  14.973  0.00  0.00    +0.000 HD
ATOM     14  H   UNL     1      50.987   7.735  14.937  0.00  0.00    +0.000 HD
ENDBRANCH   8  10
ENDBRANCH   1   4
BRANCH   1  15
ATOM     15  C   UNL     1      43.712   5.880  11.522  0.00  0.00    +0.000 C 
BRANCH  15  20
ATOM     16  C   UNL     1      45.622   2.178   8.600  0.00  0.00    +0.000 A 
ATOM     17  C   UNL     1      45.242   2.144   9.936  0.00  0.00    +0.000 A 
ATOM     18  C   UNL     1      44.553   3.230  10.478  0.00  0.00    +0.000 A 
ATOM     19  C   UNL     1      44.261   4.335   9.682  0.00  0.00    +0.000 A 
ATOM     20  N   UNL     1      43.521   5.414  10.137  0.00  0.00    +0.000 N 
ATOM     21  N   UNL     1      44.634   4.381   8.389  0.00  0.00    +0.000 NA
ATOM     22  C   UNL     1      45.300   3.312   7.874  0.00  0.00    +0.000 A 
ATOM     23  H   UNL     1      43.531   6.143   9.425  0.00  0.00    +0.000 HD
BRANCH  16  25
ATOM     24  N   UNL     1      46.870   0.194   7.500  0.00  0.00    +0.000 NA
ATOM     25  C   UNL     1      46.306   1.084   7.992  0.00  0.00    +0.000 C 
ENDBRANCH  16  25
ENDBRANCH  15  20
ENDBRANCH   1  15
TORSDOF 5
ENDMDL
MODEL 8
REMARK VINA RESULT:    -6.218      4.041      5.985
REMARK INTER + INTRA:          -8.718
REMARK INTER:                  -8.296
REMARK INTRA:                  -0.422
REMARK UNBOUND:                -0.682
REMARK  Name = 
REMARK  5 active torsions:
REMARK  status: ('A' for Active; 'I' for Inactive)
REMARK    1  A    between atoms: C_2  and  C_3
REMARK    2  A    between atoms: N_7  and  C_8
REMARK    3  A    between atoms: C_8  and  C_9
REMARK    4  A    between atoms: C_9  and  C_12
REMARK    5  A    between atoms: C_16  and  C_17
REMARK                            x       y       z     vdW  Elec       q    Type
REMARK                         _______ _______ _______ _____ _____    ______ ____
ROOT
ATOM      1  C   UNL     1      47.749   3.681  17.070  0.00  0.00    +0.000 C 
ATOM      2  F   UNL     1      47.080   4.776  17.540  0.00  0.00    +0.000 F 
ATOM      3  F   UNL     1      47.155   2.608  17.673  0.00  0.00    +0.000 F 
ENDROOT
BRANCH   1   4
ATOM      4  C   UNL     1      49.241   3.734  17.376  0.00  0.00    +0.000 A 
ATOM      5  C   UNL     1      49.817   4.938  17.814  0.00  0.00    +0.000 A 
ATOM      6  C   UNL     1      51.163   4.996  18.179  0.00  0.00    +0.000 A 
ATOM      7  C   UNL     1      51.954   3.848  18.122  0.00  0.00    +0.000 A 
ATOM      8  C   UNL     1      51.404   2.640  17.678  0.00  0.00    +0.000 A 
ATOM      9  C   UNL     1      50.051   2.589  17.297  0.00  0.00    +0.000 A 
BRANCH   8  10
ATOM     10  C   UNL     1      52.194   1.381  17.686  0.00  0.00    +0.000 C 
ATOM     11  N   UNL     1      51.570   0.236  18.097  0.00  0.00    +0.000 N 
ATOM     12  O   UNL     1      53.366   1.365  17.331  0.00  0.00    +0.000 OA
ATOM     13  H   UNL     1      50.674   0.219  18.560  0.00  0.00    +0.000 HD
ATOM     14  H   UNL     1      52.138  -0.602  18.140  0.00  0.00    +0.000 HD
ENDBRANCH   8  10
ENDBRANCH   1   4
BRANCH   1  15
ATOM     15  C   UNL     1      47.525   3.583  15.534  0.00  0.00    +0.000 C 
BRANCH  15  20
ATOM     16  C   UNL     1      45.150   4.385  11.108  0.00  0.00    +0.000 A 
ATOM     17  C   UNL     1      45.332   3.202  11.812  0.00  0.00    +0.000 A 
ATOM     18  C   UNL     1      45.843   3.251  13.110  0.00  0.00    +0.000 A 
ATOM     19  C   UNL     1      46.171   4.479  13.681  0.00  0.00    +0.000 A 
ATOM     20  N   UNL     1      46.616   4.605  14.986  0.00  0.00    +0.000 N 
ATOM     21  N   UNL     1      46.007   5.629  13.001  0.00  0.00    +0.000 NA
ATOM     22  C   UNL     1      45.502   5.564  11.739  0.00  0.00    +0.000 A 
ATOM     23  H   UNL     1      46.897   5.572  15.146  0.00  0.00    +0.000 HD
BRANCH  16  25
ATOM     24  N   UNL     1      44.165   4.386   8.712  0.00  0.00    +0.000 NA
ATOM     25  C   UNL     1      44.608   4.389   9.787  0.00  0.00    +0.000 C 
ENDBRANCH  16  25
ENDBRANCH  15  20
ENDBRANCH   1  15
TORSDOF 5
ENDMDL
MODEL 9
REMARK VINA RESULT:    -6.086      2.848      7.553
REMARK INTER + INTRA:          -8.547
REMARK INTER:                  -8.034
REMARK INTRA:                  -0.512
REMARK UNBOUND:                -0.682
REMARK  Name = 
REMARK  5 active torsions:
REMARK  status: ('A' for Active; 'I' for Inactive)
REMARK    1  A    between atoms: C_2  and  C_3
REMARK    2  A    between atoms: N_7  and  C_8
REMARK    3  A    between atoms: C_8  and  C_9
REMARK    4  A    between atoms: C_9  and  C_12
REMARK    5  A    between atoms: C_16  and  C_17
REMARK                            x       y       z     vdW  Elec       q    Type
REMARK                         _______ _______ _______ _____ _____    ______ ____
ROOT
ATOM      1  C   UNL     1      46.405   6.744  12.563  0.00  0.00    +0.000 C 
ATOM      2  F   UNL     1      46.005   7.758  13.387  0.00  0.00    +0.000 F 
ATOM      3  F   UNL     1      46.938   7.359  11.465  0.00  0.00    +0.000 F 
ENDROOT
BRANCH   1   4
ATOM      4  C   UNL     1      45.257   5.819  12.179  0.00  0.00    +0.000 A 
ATOM      5  C   UNL     1      44.054   5.869  12.902  0.00  0.00    +0.000 A 
ATOM      6  C   UNL     1      42.958   5.092  12.522  0.00  0.00    +0.000 A 
ATOM      7  C   UNL     1      43.043   4.260  11.406  0.00  0.00    +0.000 A 
ATOM      8  C   UNL     1      44.236   4.185  10.678  0.00  0.00    +0.000 A 
ATOM      9  C   UNL     1      45.343   4.957  11.072  0.00  0.00    +0.000 A 
BRANCH   8  10
ATOM     10  C   UNL     1      44.335   3.373   9.436  0.00  0.00    +0.000 C 
ATOM     11  N   UNL     1      44.193   4.016   8.238  0.00  0.00    +0.000 N 
ATOM     12  O   UNL     1      44.541   2.167   9.481  0.00  0.00    +0.000 OA
ATOM     13  H   UNL     1      43.852   4.961   8.143  0.00  0.00    +0.000 HD
ATOM     14  H   UNL     1      44.217   3.439   7.405  0.00  0.00    +0.000 HD
ENDBRANCH   8  10
ENDBRANCH   1   4
BRANCH   1  15
ATOM     15  C   UNL     1      47.523   5.934  13.279  0.00  0.00    +0.000 C 
BRANCH  15  20
ATOM     16  C   UNL     1      49.438   5.013  17.902  0.00  0.00    +0.000 A 
ATOM     17  C   UNL     1      49.475   6.177  17.145  0.00  0.00    +0.000 A 
ATOM     18  C   UNL     1      48.706   6.262  15.984  0.00  0.00    +0.000 A 
ATOM     19  C   UNL     1      47.918   5.181  15.592  0.00  0.00    +0.000 A 
ATOM     20  N   UNL     1      47.079   5.223  14.491  0.00  0.00    +0.000 N 
ATOM     21  N   UNL     1      47.884   4.046  16.315  0.00  0.00    +0.000 NA
ATOM     22  C   UNL     1      48.636   3.981  17.447  0.00  0.00    +0.000 A 
ATOM     23  H   UNL     1      46.693   4.293  14.336  0.00  0.00    +0.000 HD
BRANCH  16  25
ATOM     24  N   UNL     1      50.803   4.779  20.090  0.00  0.00    +0.000 NA
ATOM     25  C   UNL     1      50.188   4.886  19.109  0.00  0.00    +0.000 C 
ENDBRANCH  16  25
ENDBRANCH  15  20
ENDBRANCH   1  15
TORSDOF 5
ENDMDL
