MODEL 1
REMARK VINA RESULT:    -6.621      0.000      0.000
REMARK INTER + INTRA:          -8.165
REMARK INTER:                  -7.782
REMARK INTRA:                  -0.383
REMARK UNBOUND:                -0.383
REMARK  Name = 
REMARK  3 active torsions:
REMARK  status: ('A' for Active; 'I' for Inactive)
REMARK    1  A    between atoms: C_2  and  C_3
REMARK    2  A    between atoms: C_10  and  C_11
REMARK    3  A    between atoms: C_15  and  N_16
REMARK                            x       y       z     vdW  Elec       q    Type
REMARK                         _______ _______ _______ _____ _____    ______ ____
ROOT
ATOM      1  C   UNL     1      50.648   9.523  11.607  0.00  0.00    +0.000 A 
ATOM      2  C   UNL     1      50.895   8.183  11.866  0.00  0.00    +0.000 A 
ATOM      3  C   UNL     1      49.818   7.307  11.946  0.00  0.00    +0.000 A 
ATOM      4  C   UNL     1      48.517   7.782  11.764  0.00  0.00    +0.000 A 
ATOM      5  N   UNL     1      47.434   6.939  11.881  0.00  0.00    +0.000 N 
ATOM      6  C   UNL     1      46.260   7.199  11.050  0.00  0.00    +0.000 C 
ATOM      7  C   UNL     1      44.971   7.211  11.861  0.00  0.00    +0.000 C 
ATOM      8  C   UNL     1      44.862   6.074  12.882  0.00  0.00    +0.000 C 
ATOM      9  C   UNL     1      46.119   6.051  13.762  0.00  0.00    +0.000 C 
ATOM     10  C   UNL     1      47.409   5.958  12.960  0.00  0.00    +0.000 C 
ATOM     11  N   UNL     1      48.287   9.081  11.482  0.00  0.00    +0.000 NA
ATOM     12  C   UNL     1      49.338   9.923  11.421  0.00  0.00    +0.000 A 
ENDROOT
BRANCH   8  13
ATOM     13  C   UNL     1      44.536   4.696  12.317  0.00  0.00    +0.000 A 
ATOM     14  C   UNL     1      43.781   3.745  13.013  0.00  0.00    +0.000 A 
ATOM     15  C   UNL     1      43.396   2.552  12.418  0.00  0.00    +0.000 A 
ATOM     16  C   UNL     1      43.755   2.290  11.102  0.00  0.00    +0.000 A 
ATOM     17  C   UNL     1      44.512   3.199  10.354  0.00  0.00    +0.000 A 
ATOM     18  C   UNL     1      44.914   4.386  10.995  0.00  0.00    +0.000 A 
BRANCH  17  19
ATOM     19  N   UNL     1      44.804   2.967   9.023  0.00  0.00    +0.000 N 
ATOM     20  C   UNL     1      45.037   1.613   8.521  0.00  0.00    +0.000 C 
ATOM     21  C   UNL     1      46.481   1.464   8.053  0.00  0.00    +0.000 C 
ATOM     22  C   UNL     1      46.847   2.563   7.057  0.00  0.00    +0.000 C 
ATOM     23  C   UNL     1      46.560   3.947   7.638  0.00  0.00    +0.000 C 
ATOM     24  C   UNL     1      45.110   4.069   8.114  0.00  0.00    +0.000 C 
ENDBRANCH  17  19
ENDBRANCH   8  13
BRANCH   1  26
ATOM     25  N   UNL     1      52.568  11.239  11.472  0.00  0.00    +0.000 NA
ATOM     26  C   UNL     1      51.708  10.469  11.531  0.00  0.00    +0.000 C 
ENDBRANCH   1  26
TORSDOF 3
ENDMDL
MODEL 2
REMARK VINA RESULT:    -6.457      1.923      2.118
REMARK INTER + INTRA:          -7.972
REMARK INTER:                  -7.303
REMARK INTRA:                  -0.669
REMARK UNBOUND:                -0.383
REMARK  Name = 
REMARK  3 active torsions:
REMARK  status: ('A' for Active; 'I' for Inactive)
REMARK    1  A    between atoms: C_2  and  C_3
REMARK    2  A    between atoms: C_10  and  C_11
REMARK    3  A    between atoms: C_15  and  N_16
REMARK                            x       y       z     vdW  Elec       q    Type
REMARK                         _______ _______ _______ _____ _____    ______ ____
ROOT
ATOM      1  C   UNL     1      50.083   8.720  14.993  0.00  0.00    +0.000 A 
ATOM      2  C   UNL     1      49.641   7.523  15.537  0.00  0.00    +0.000 A 
ATOM      3  C   UNL     1      48.687   6.785  14.846  0.00  0.00    +0.000 A 
ATOM      4  C   UNL     1      48.193   7.252  13.625  0.00  0.00    +0.000 A 
ATOM      5  N   UNL     1      47.216   6.558  12.946  0.00  0.00    +0.000 N 
ATOM      6  C   UNL     1      47.222   6.605  11.485  0.00  0.00    +0.000 C 
ATOM      7  C   UNL     1      45.854   6.954  10.915  0.00  0.00    +0.000 C 
ATOM      8  C   UNL     1      44.689   6.215  11.582  0.00  0.00    +0.000 C 
ATOM      9  C   UNL     1      44.765   6.404  13.103  0.00  0.00    +0.000 C 
ATOM     10  C   UNL     1      46.104   5.981  13.692  0.00  0.00    +0.000 C 
ATOM     11  N   UNL     1      48.649   8.402  13.088  0.00  0.00    +0.000 NA
ATOM     12  C   UNL     1      49.565   9.116  13.774  0.00  0.00    +0.000 A 
ENDROOT
BRANCH   8  13
ATOM     13  C   UNL     1      44.516   4.751  11.197  0.00  0.00    +0.000 A 
ATOM     14  C   UNL     1      43.722   3.859  11.927  0.00  0.00    +0.000 A 
ATOM     15  C   UNL     1      43.485   2.567  11.476  0.00  0.00    +0.000 A 
ATOM     16  C   UNL     1      44.035   2.145  10.272  0.00  0.00    +0.000 A 
ATOM     17  C   UNL     1      44.839   2.989   9.498  0.00  0.00    +0.000 A 
ATOM     18  C   UNL     1      45.087   4.282   9.997  0.00  0.00    +0.000 A 
BRANCH  17  19
ATOM     19  N   UNL     1      45.323   2.589   8.266  0.00  0.00    +0.000 N 
ATOM     20  C   UNL     1      45.675   1.194   8.004  0.00  0.00    +0.000 C 
ATOM     21  C   UNL     1      47.175   1.063   7.760  0.00  0.00    +0.000 C 
ATOM     22  C   UNL     1      47.635   2.030   6.671  0.00  0.00    +0.000 C 
ATOM     23  C   UNL     1      47.217   3.463   6.998  0.00  0.00    +0.000 C 
ATOM     24  C   UNL     1      45.712   3.568   7.254  0.00  0.00    +0.000 C 
ENDBRANCH  17  19
ENDBRANCH   8  13
BRANCH   1  26
ATOM     25  N   UNL     1      51.824  10.182  16.209  0.00  0.00    +0.000 NA
ATOM     26  C   UNL     1      51.045   9.526  15.662  0.00  0.00    +0.000 C 
ENDBRANCH   1  26
TORSDOF 3
ENDMDL
MODEL 3
REMARK VINA RESULT:    -6.053      4.096      6.081
REMARK INTER + INTRA:          -7.498
REMARK INTER:                  -6.950
REMARK INTRA:                  -0.548
REMARK UNBOUND:                -0.383
REMARK  Name = 
REMARK  3 active torsions:
REMARK  status: ('A' for Active; 'I' for Inactive)
REMARK    1  A    between atoms: C_2  and  C_3
REMARK    2  A    between atoms: C_10  and  C_11
REMARK    3  A    between atoms: C_15  and  N_16
REMARK                            x       y       z     vdW  Elec       q    Type
REMARK                         _______ _______ _______ _____ _____    ______ ____
ROOT
ATOM      1  C   UNL     1      50.700   5.740  18.651  0.00  0.00    +0.000 A 
ATOM      2  C   UNL     1      49.547   6.483  18.855  0.00  0.00    +0.000 A 
ATOM      3  C   UNL     1      48.865   6.979  17.749  0.00  0.00    +0.000 A 
ATOM      4  C   UNL     1      49.343   6.722  16.461  0.00  0.00    +0.000 A 
ATOM      5  N   UNL     1      48.707   7.240  15.355  0.00  0.00    +0.000 N 
ATOM      6  C   UNL     1      48.727   6.463  14.117  0.00  0.00    +0.000 C 
ATOM      7  C   UNL     1      49.160   7.297  12.920  0.00  0.00    +0.000 C 
ATOM      8  C   UNL     1      48.517   8.688  12.858  0.00  0.00    +0.000 C 
ATOM      9  C   UNL     1      48.728   9.410  14.195  0.00  0.00    +0.000 C 
ATOM     10  C   UNL     1      48.223   8.615  15.391  0.00  0.00    +0.000 C 
ATOM     11  N   UNL     1      50.449   5.973  16.270  0.00  0.00    +0.000 NA
ATOM     12  C   UNL     1      51.109   5.510  17.350  0.00  0.00    +0.000 A 
ENDROOT
BRANCH   8  13
ATOM     13  C   UNL     1      47.062   8.732  12.408  0.00  0.00    +0.000 A 
ATOM     14  C   UNL     1      46.389   9.925  12.119  0.00  0.00    +0.000 A 
ATOM     15  C   UNL     1      45.106   9.921  11.590  0.00  0.00    +0.000 A 
ATOM     16  C   UNL     1      44.471   8.712  11.329  0.00  0.00    +0.000 A 
ATOM     17  C   UNL     1      45.090   7.486  11.598  0.00  0.00    +0.000 A 
ATOM     18  C   UNL     1      46.378   7.524  12.164  0.00  0.00    +0.000 A 
BRANCH  17  19
ATOM     19  N   UNL     1      44.484   6.288  11.269  0.00  0.00    +0.000 N 
ATOM     20  C   UNL     1      43.033   6.121  11.354  0.00  0.00    +0.000 C 
ATOM     21  C   UNL     1      42.680   5.103  12.433  0.00  0.00    +0.000 C 
ATOM     22  C   UNL     1      43.440   3.796  12.217  0.00  0.00    +0.000 C 
ATOM     23  C   UNL     1      44.944   4.046  12.118  0.00  0.00    +0.000 C 
ATOM     24  C   UNL     1      45.274   5.081  11.040  0.00  0.00    +0.000 C 
ENDBRANCH  17  19
ENDBRANCH   8  13
BRANCH   1  26
ATOM     25  N   UNL     1      52.060   4.803  20.631  0.00  0.00    +0.000 NA
ATOM     26  C   UNL     1      51.449   5.221  19.743  0.00  0.00    +0.000 C 
ENDBRANCH   1  26
TORSDOF 3
ENDMDL
MODEL 4
REMARK VINA RESULT:    -5.682      1.742      2.890
REMARK INTER + INTRA:          -7.062
REMARK INTER:                  -6.412
REMARK INTRA:                  -0.650
REMARK UNBOUND:                -0.383
REMARK  Name = 
REMARK  3 active torsions:
REMARK  status: ('A' for Active; 'I' for Inactive)
REMARK    1  A    between atoms: C_2  and  C_3
REMARK    2  A    between atoms: C_10  and  C_11
REMARK    3  A    between atoms: C_15  and  N_16
REMARK                            x       y       z     vdW  Elec       q    Type
REMARK                         _______ _______ _______ _____ _____    ______ ____
ROOT
ATOM      1  C   UNL     1      53.512  10.121  10.978  0.00  0.00    +0.000 A 
ATOM      2  C   UNL     1      53.636   8.864  11.551  0.00  0.00    +0.000 A 
ATOM      3  C   UNL     1      52.484   8.168  11.897  0.00  0.00    +0.000 A 
ATOM      4  C   UNL     1      51.229   8.736  11.662  0.00  0.00    +0.000 A 
ATOM      5  N   UNL     1      50.076   8.082  12.036  0.00  0.00    +0.000 N 
ATOM      6  C   UNL     1      48.877   8.271  11.222  0.00  0.00    +0.000 C 
ATOM      7  C   UNL     1      47.660   8.632  12.062  0.00  0.00    +0.000 C 
ATOM      8  C   UNL     1      47.509   7.797  13.339  0.00  0.00    +0.000 C 
ATOM      9  C   UNL     1      48.819   7.840  14.138  0.00  0.00    +0.000 C 
ATOM     10  C   UNL     1      50.030   7.402  13.325  0.00  0.00    +0.000 C 
ATOM     11  N   UNL     1      51.115   9.946  11.076  0.00  0.00    +0.000 NA
ATOM     12  C   UNL     1      52.240  10.617  10.758  0.00  0.00    +0.000 A 
ENDROOT
BRANCH   8  13
ATOM     13  C   UNL     1      47.001   6.372  13.151  0.00  0.00    +0.000 A 
ATOM     14  C   UNL     1      47.066   5.401  14.157  0.00  0.00    +0.000 A 
ATOM     15  C   UNL     1      46.479   4.154  13.996  0.00  0.00    +0.000 A 
ATOM     16  C   UNL     1      45.804   3.857  12.818  0.00  0.00    +0.000 A 
ATOM     17  C   UNL     1      45.707   4.784  11.774  0.00  0.00    +0.000 A 
ATOM     18  C   UNL     1      46.339   6.029  11.956  0.00  0.00    +0.000 A 
BRANCH  17  19
ATOM     19  N   UNL     1      44.972   4.510  10.636  0.00  0.00    +0.000 N 
ATOM     20  C   UNL     1      44.058   3.370  10.577  0.00  0.00    +0.000 C 
ATOM     21  C   UNL     1      44.551   2.349   9.556  0.00  0.00    +0.000 C 
ATOM     22  C   UNL     1      44.801   3.011   8.202  0.00  0.00    +0.000 C 
ATOM     23  C   UNL     1      45.746   4.204   8.341  0.00  0.00    +0.000 C 
ATOM     24  C   UNL     1      45.240   5.207   9.380  0.00  0.00    +0.000 C 
ENDBRANCH  17  19
ENDBRANCH   8  13
BRANCH   1  26
ATOM     25  N   UNL     1      55.582  11.510  10.323  0.00  0.00    +0.000 NA
ATOM     26  C   UNL     1      54.655  10.887  10.619  0.00  0.00    +0.000 C 
ENDBRANCH   1  26
TORSDOF 3
ENDMDL
MODEL 5
REMARK VINA RESULT:    -5.509      6.252      9.191
REMARK INTER + INTRA:          -6.858
REMARK INTER:                  -6.470
REMARK INTRA:                  -0.389
REMARK UNBOUND:                -0.383
REMARK  Name = 
REMARK  3 active torsions:
REMARK  status: ('A' for Active; 'I' for Inactive)
REMARK    1  A    between atoms: C_2  and  C_3
REMARK    2  A    between atoms: C_10  and  C_11
REMARK    3  A    between atoms: C_15  and  N_16
REMARK                            x       y       z     vdW  Elec       q    Type
REMARK                         _______ _______ _______ _____ _____    ______ ____
ROOT
ATOM      1  C   UNL     1      45.701   5.103  12.252  0.00  0.00    +0.000 A 
ATOM      2  C   UNL     1      46.743   5.992  12.473  0.00  0.00    +0.000 A 
ATOM      3  C   UNL     1      47.499   5.862  13.632  0.00  0.00    +0.000 A 
ATOM      4  C   UNL     1      47.205   4.848  14.548  0.00  0.00    +0.000 A 
ATOM      5  N   UNL     1      47.914   4.729  15.722  0.00  0.00    +0.000 N 
ATOM      6  C   UNL     1      48.118   3.392  16.276  0.00  0.00    +0.000 C 
ATOM      7  C   UNL     1      47.750   3.317  17.751  0.00  0.00    +0.000 C 
ATOM      8  C   UNL     1      48.256   4.500  18.585  0.00  0.00    +0.000 C 
ATOM      9  C   UNL     1      47.818   5.816  17.928  0.00  0.00    +0.000 C 
ATOM     10  C   UNL     1      48.253   5.932  16.474  0.00  0.00    +0.000 C 
ATOM     11  N   UNL     1      46.210   3.969  14.311  0.00  0.00    +0.000 NA
ATOM     12  C   UNL     1      45.474   4.114  13.190  0.00  0.00    +0.000 A 
ENDROOT
BRANCH   8  13
ATOM     13  C   UNL     1      49.743   4.496  18.919  0.00  0.00    +0.000 A 
ATOM     14  C   UNL     1      50.279   5.170  20.022  0.00  0.00    +0.000 A 
ATOM     15  C   UNL     1      51.617   5.040  20.369  0.00  0.00    +0.000 A 
ATOM     16  C   UNL     1      52.447   4.219  19.616  0.00  0.00    +0.000 A 
ATOM     17  C   UNL     1      51.972   3.521  18.500  0.00  0.00    +0.000 A 
ATOM     18  C   UNL     1      50.619   3.698  18.156  0.00  0.00    +0.000 A 
BRANCH  17  19
ATOM     19  N   UNL     1      52.784   2.649  17.799  0.00  0.00    +0.000 N 
ATOM     20  C   UNL     1      52.307   1.328  17.390  0.00  0.00    +0.000 C 
ATOM     21  C   UNL     1      53.089   0.237  18.113  0.00  0.00    +0.000 C 
ATOM     22  C   UNL     1      54.593   0.433  17.932  0.00  0.00    +0.000 C 
ATOM     23  C   UNL     1      55.018   1.838  18.359  0.00  0.00    +0.000 C 
ATOM     24  C   UNL     1      54.211   2.916  17.632  0.00  0.00    +0.000 C 
ENDBRANCH  17  19
ENDBRANCH   8  13
BRANCH   1  26
ATOM     25  N   UNL     1      44.216   5.268  10.151  0.00  0.00    +0.000 NA
ATOM     26  C   UNL     1      44.882   5.197  11.092  0.00  0.00    +0.000 C 
ENDBRANCH   1  26
TORSDOF 3
ENDMDL
MODEL 6
REMARK VINA RESULT:    -5.380      5.738      9.634
REMARK INTER + INTRA:          -6.707
REMARK INTER:                  -6.114
REMARK INTRA:                  -0.593
REMARK UNBOUND:                -0.383
REMARK  Name = 
REMARK  3 active torsions:
REMARK  status: ('A' for Active; 'I' for Inactive)
REMARK    1  A    between atoms: C_2  and  C_3
REMARK    2  A    between atoms: C_10  and  C_11
REMARK    3  A    between atoms: C_15  and  N_16
REMARK                            x       y       z     vdW  Elec       q    Type
REMARK                         _______ _______ _______ _____ _____    ______ ____
ROOT
ATOM      1  C   UNL     1      45.103   5.216  12.165  0.00  0.00    +0.000 A 
ATOM      2  C   UNL     1      46.295   5.922  12.230  0.00  0.00    +0.000 A 
ATOM      3  C   UNL     1      47.173   5.660  13.275  0.00  0.00    +0.000 A 
ATOM      4  C   UNL     1      46.849   4.696  14.234  0.00  0.00    +0.000 A 
ATOM      5  N   UNL     1      47.686   4.452  15.300  0.00  0.00    +0.000 N 
ATOM      6  C   UNL     1      47.746   3.093  15.836  0.00  0.00    +0.000 C 
ATOM      7  C   UNL     1      47.579   3.062  17.348  0.00  0.00    +0.000 C 
ATOM      8  C   UNL     1      48.379   4.138  18.091  0.00  0.00    +0.000 C 
ATOM      9  C   UNL     1      48.072   5.515  17.486  0.00  0.00    +0.000 C 
ATOM     10  C   UNL     1      48.314   5.576  15.984  0.00  0.00    +0.000 C 
ATOM     11  N   UNL     1      45.703   3.992  14.147  0.00  0.00    +0.000 NA
ATOM     12  C   UNL     1      44.852   4.265  13.137  0.00  0.00    +0.000 A 
ENDROOT
BRANCH   8  13
ATOM     13  C   UNL     1      49.878   3.891  18.215  0.00  0.00    +0.000 A 
ATOM     14  C   UNL     1      50.516   2.779  17.655  0.00  0.00    +0.000 A 
ATOM     15  C   UNL     1      51.899   2.651  17.678  0.00  0.00    +0.000 A 
ATOM     16  C   UNL     1      52.673   3.648  18.258  0.00  0.00    +0.000 A 
ATOM     17  C   UNL     1      52.095   4.783  18.837  0.00  0.00    +0.000 A 
ATOM     18  C   UNL     1      50.690   4.868  18.826  0.00  0.00    +0.000 A 
BRANCH  17  19
ATOM     19  N   UNL     1      52.873   5.805  19.347  0.00  0.00    +0.000 N 
ATOM     20  C   UNL     1      52.445   7.202  19.261  0.00  0.00    +0.000 C 
ATOM     21  C   UNL     1      53.390   7.989  18.359  0.00  0.00    +0.000 C 
ATOM     22  C   UNL     1      54.840   7.814  18.804  0.00  0.00    +0.000 C 
ATOM     23  C   UNL     1      55.212   6.335  18.891  0.00  0.00    +0.000 C 
ATOM     24  C   UNL     1      54.244   5.561  19.789  0.00  0.00    +0.000 C 
ENDBRANCH  17  19
ENDBRANCH   8  13
BRANCH   1  26
ATOM     25  N   UNL     1      43.388   5.640  10.288  0.00  0.00    +0.000 NA
ATOM     26  C   UNL     1      44.157   5.452  11.129  0.00  0.00    +0.000 C 
ENDBRANCH   1  26
TORSDOF 3
ENDMDL
MODEL 7
REMARK VINA RESULT:    -5.109      2.574      4.477
REMARK INTER + INTRA:          -6.388
REMARK INTER:                  -5.796
REMARK INTRA:                  -0.592
REMARK UNBOUND:                -0.383
REMARK  Name = 
REMARK  3 active torsions:
REMARK  status: ('A' for Active; 'I' for Inactive)
REMARK    1  A    between atoms: C_2  and  C_3
REMARK    2  A    between atoms: C_10  and  C_11
REMARK    3  A    between atoms: C_15  and  N_16
REMARK                            x       y       z     vdW  Elec       q    Type
REMARK                         _______ _______ _______ _____ _____    ______ ____
ROOT
ATOM      1  C   UNL     1      53.597  10.243   9.544  0.00  0.00    +0.000 A 
ATOM      2  C   UNL     1      53.889   9.060  10.206  0.00  0.00    +0.000 A 
ATOM      3  C   UNL     1      52.897   8.459  10.972  0.00  0.00    +0.000 A 
ATOM      4  C   UNL     1      51.632   9.045  11.062  0.00  0.00    +0.000 A 
ATOM      5  N   UNL     1      50.650   8.489  11.850  0.00  0.00    +0.000 N 
ATOM      6  C   UNL     1      49.258   8.628  11.424  0.00  0.00    +0.000 C 
ATOM      7  C   UNL     1      48.361   9.137  12.544  0.00  0.00    +0.000 C 
ATOM      8  C   UNL     1      48.609   8.468  13.900  0.00  0.00    +0.000 C 
ATOM      9  C   UNL     1      50.102   8.552  14.249  0.00  0.00    +0.000 C 
ATOM     10  C   UNL     1      51.002   7.971  13.167  0.00  0.00    +0.000 C 
ATOM     11  N   UNL     1      51.346  10.180  10.391  0.00  0.00    +0.000 NA
ATOM     12  C   UNL     1      52.320  10.762   9.662  0.00  0.00    +0.000 A 
ENDROOT
BRANCH   8  13
ATOM     13  C   UNL     1      48.065   7.053  14.059  0.00  0.00    +0.000 A 
ATOM     14  C   UNL     1      48.273   6.280  15.207  0.00  0.00    +0.000 A 
ATOM     15  C   UNL     1      47.657   5.047  15.370  0.00  0.00    +0.000 A 
ATOM     16  C   UNL     1      46.807   4.566  14.381  0.00  0.00    +0.000 A 
ATOM     17  C   UNL     1      46.560   5.290  13.209  0.00  0.00    +0.000 A 
ATOM     18  C   UNL     1      47.225   6.522  13.060  0.00  0.00    +0.000 A 
BRANCH  17  19
ATOM     19  N   UNL     1      45.658   4.841  12.264  0.00  0.00    +0.000 N 
ATOM     20  C   UNL     1      45.096   5.743  11.259  0.00  0.00    +0.000 C 
ATOM     21  C   UNL     1      43.595   5.905  11.474  0.00  0.00    +0.000 C 
ATOM     22  C   UNL     1      42.905   4.544  11.535  0.00  0.00    +0.000 C 
ATOM     23  C   UNL     1      43.553   3.647  12.588  0.00  0.00    +0.000 C 
ATOM     24  C   UNL     1      45.061   3.511  12.363  0.00  0.00    +0.000 C 
ENDBRANCH  17  19
ENDBRANCH   8  13
BRANCH   1  26
ATOM     25  N   UNL     1      55.369  11.455   8.117  0.00  0.00    +0.000 NA
ATOM     26  C   UNL     1      54.575  10.914   8.758  0.00  0.00    +0.000 C 
ENDBRANCH   1  26
TORSDOF 3
ENDMDL
MODEL 8
REMARK VINA RESULT:    -4.800     11.153     13.484
REMARK INTER + INTRA:          -6.025
REMARK INTER:                  -5.845
REMARK INTRA:                  -0.180
REMARK UNBOUND:                -0.383
REMARK  Name = 
REMARK  3 active torsions:
REMARK  status: ('A' for Active; 'I' for Inactive)
REMARK    1  A    between atoms: C_2  and  C_3
REMARK    2  A    between atoms: C_10  and  C_11
REMARK    3  A    between atoms: C_15  and  N_16
REMARK                            x       y       z     vdW  Elec       q    Type
REMARK                         _______ _______ _______ _____ _____    ______ ____
ROOT
ATOM      1  C   UNL     1      38.764  -2.738  11.408  0.00  0.00    +0.000 A 
ATOM      2  C   UNL     1      37.711  -2.186  12.122  0.00  0.00    +0.000 A 
ATOM      3  C   UNL     1      37.888  -1.916  13.474  0.00  0.00    +0.000 A 
ATOM      4  C   UNL     1      39.111  -2.198  14.089  0.00  0.00    +0.000 A 
ATOM      5  N   UNL     1      39.292  -1.979  15.436  0.00  0.00    +0.000 N 
ATOM      6  C   UNL     1      40.622  -1.591  15.902  0.00  0.00    +0.000 C 
ATOM      7  C   UNL     1      41.092  -2.438  17.076  0.00  0.00    +0.000 C 
ATOM      8  C   UNL     1      40.021  -2.675  18.147  0.00  0.00    +0.000 C 
ATOM      9  C   UNL     1      38.748  -3.223  17.488  0.00  0.00    +0.000 C 
ATOM     10  C   UNL     1      38.227  -2.337  16.365  0.00  0.00    +0.000 C 
ATOM     11  N   UNL     1      40.140  -2.707  13.380  0.00  0.00    +0.000 NA
ATOM     12  C   UNL     1      39.952  -2.977  12.073  0.00  0.00    +0.000 A 
ENDROOT
BRANCH   8  13
ATOM     13  C   UNL     1      39.725  -1.498  19.069  0.00  0.00    +0.000 A 
ATOM     14  C   UNL     1      40.365  -1.315  20.301  0.00  0.00    +0.000 A 
ATOM     15  C   UNL     1      40.165  -0.167  21.055  0.00  0.00    +0.000 A 
ATOM     16  C   UNL     1      39.323   0.832  20.581  0.00  0.00    +0.000 A 
ATOM     17  C   UNL     1      38.653   0.706  19.358  0.00  0.00    +0.000 A 
ATOM     18  C   UNL     1      38.851  -0.483  18.632  0.00  0.00    +0.000 A 
BRANCH  17  19
ATOM     19  N   UNL     1      37.873   1.733  18.858  0.00  0.00    +0.000 N 
ATOM     20  C   UNL     1      36.916   1.503  17.776  0.00  0.00    +0.000 C 
ATOM     21  C   UNL     1      37.339   2.265  16.525  0.00  0.00    +0.000 C 
ATOM     22  C   UNL     1      37.571   3.741  16.839  0.00  0.00    +0.000 C 
ATOM     23  C   UNL     1      38.564   3.907  17.989  0.00  0.00    +0.000 C 
ATOM     24  C   UNL     1      38.128   3.123  19.229  0.00  0.00    +0.000 C 
ENDBRANCH  17  19
ENDBRANCH   8  13
BRANCH   1  26
ATOM     25  N   UNL     1      38.539  -3.306   8.903  0.00  0.00    +0.000 NA
ATOM     26  C   UNL     1      38.637  -3.050  10.026  0.00  0.00    +0.000 C 
ENDBRANCH   1  26
TORSDOF 3
ENDMDL
MODEL 9
REMARK VINA RESULT:    -4.757      6.636      9.885
REMARK INTER + INTRA:          -5.974
REMARK INTER:                  -5.403
REMARK INTRA:                  -0.571
REMARK UNBOUND:                -0.383
REMARK  Name = 
REMARK  3 active torsions:
REMARK  status: ('A' for Active; 'I' for Inactive)
REMARK    1  A    between atoms: C_2  and  C_3
REMARK    2  A    between atoms: C_10  and  C_11
REMARK    3  A    between atoms: C_15  and  N_16
REMARK                            x       y       z     vdW  Elec       q    Type
REMARK                         _______ _______ _______ _____ _____    ______ ____
ROOT
ATOM      1  C   UNL     1      46.574   5.436  13.016  0.00  0.00    +0.000 A 
ATOM      2  C   UNL     1      47.304   6.576  13.317  0.00  0.00    +0.000 A 
ATOM      3  C   UNL     1      48.033   6.612  14.500  0.00  0.00    +0.000 A 
ATOM      4  C   UNL     1      48.023   5.511  15.360  0.00  0.00    +0.000 A 
ATOM      5  N   UNL     1      48.703   5.542  16.557  0.00  0.00    +0.000 N 
ATOM      6  C   UNL     1      49.274   4.295  17.063  0.00  0.00    +0.000 C 
ATOM      7  C   UNL     1      48.904   4.040  18.517  0.00  0.00    +0.000 C 
ATOM      8  C   UNL     1      49.018   5.274  19.420  0.00  0.00    +0.000 C 
ATOM      9  C   UNL     1      48.232   6.438  18.800  0.00  0.00    +0.000 C 
ATOM     10  C   UNL     1      48.654   6.751  17.371  0.00  0.00    +0.000 C 
ATOM     11  N   UNL     1      47.335   4.394  15.046  0.00  0.00    +0.000 NA
ATOM     12  C   UNL     1      46.621   4.376  13.902  0.00  0.00    +0.000 A 
ENDROOT
BRANCH   8  13
ATOM     13  C   UNL     1      50.432   5.686  19.814  0.00  0.00    +0.000 A 
ATOM     14  C   UNL     1      50.701   6.733  20.703  0.00  0.00    +0.000 A 
ATOM     15  C   UNL     1      51.992   6.997  21.139  0.00  0.00    +0.000 A 
ATOM     16  C   UNL     1      53.045   6.205  20.696  0.00  0.00    +0.000 A 
ATOM     17  C   UNL     1      52.841   5.145  19.805  0.00  0.00    +0.000 A 
ATOM     18  C   UNL     1      51.525   4.922  19.358  0.00  0.00    +0.000 A 
BRANCH  17  19
ATOM     19  N   UNL     1      53.879   4.316  19.426  0.00  0.00    +0.000 N 
ATOM     20  C   UNL     1      55.005   4.819  18.639  0.00  0.00    +0.000 C 
ATOM     21  C   UNL     1      55.020   4.167  17.260  0.00  0.00    +0.000 C 
ATOM     22  C   UNL     1      54.980   2.645  17.377  0.00  0.00    +0.000 C 
ATOM     23  C   UNL     1      53.793   2.191  18.226  0.00  0.00    +0.000 C 
ATOM     24  C   UNL     1      53.790   2.868  19.599  0.00  0.00    +0.000 C 
ENDBRANCH  17  19
ENDBRANCH   8  13
BRANCH   1  26
ATOM     25  N   UNL     1      45.161   5.275  10.866  0.00  0.00    +0.000 NA
ATOM     26  C   UNL     1      45.796   5.347  11.828  0.00  0.00    +0.000 C 
ENDBRANCH   1  26
TORSDOF 3
ENDMDL
