MODEL 1
REMARK VINA RESULT:    -7.701      0.000      0.000
REMARK INTER + INTRA:         -11.442
REMARK INTER:                 -10.402
REMARK INTRA:                  -1.040
REMARK UNBOUND:                -1.040
REMARK  Name = 
REMARK  7 active torsions:
REMARK  status: ('A' for Active; 'I' for Inactive)
REMARK    1  A    between atoms: C_1  and  C_2
REMARK    2  A    between atoms: C_4  and  C_5
REMARK    3  A    between atoms: N_7  and  C_8
REMARK    4  A    between atoms: C_8  and  C_9
REMARK    5  A    between atoms: C_12  and  C_13
REMARK    6  A    between atoms: C_13  and  N_14
REMARK    7  A    between atoms: C_15  and  C_17
REMARK                            x       y       z     vdW  Elec       q    Type
REMARK                         _______ _______ _______ _____ _____    ______ ____
ROOT
ATOM      1  C   UNL     1      45.071   6.329  11.332  0.00  0.00    +0.000 A 
ATOM      2  C   UNL     1      46.297   5.820  11.780  0.00  0.00    +0.000 A 
ATOM      3  C   UNL     1      47.121   6.574  12.626  0.00  0.00    +0.000 A 
ATOM      4  C   UNL     1      46.723   7.846  13.061  0.00  0.00    +0.000 A 
ATOM      5  C   UNL     1      45.504   8.361  12.600  0.00  0.00    +0.000 A 
ATOM      6  C   UNL     1      44.682   7.607  11.755  0.00  0.00    +0.000 A 
ENDROOT
BRANCH   1   7
ATOM      7  C   UNL     1      44.211   5.534  10.386  0.00  0.00    +0.000 C 
BRANCH   7  10
ATOM      8  C   UNL     1      44.758   3.412   9.309  0.00  0.00    +0.000 C 
ATOM      9  O   UNL     1      43.953   2.796  10.003  0.00  0.00    +0.000 OA
ATOM     10  N   UNL     1      44.958   4.772   9.418  0.00  0.00    +0.000 N 
ATOM     11  H   UNL     1      45.634   5.202   8.795  0.00  0.00    +0.000 HD
BRANCH   8  15
ATOM     12  C   UNL     1      47.515   2.624   5.239  0.00  0.00    +0.000 C 
ATOM     13  C   UNL     1      46.778   2.466   6.516  0.00  0.00    +0.000 A 
ATOM     14  N   UNL     1      46.068   3.378   7.150  0.00  0.00    +0.000 NA
ATOM     15  C   UNL     1      45.590   2.758   8.296  0.00  0.00    +0.000 A 
ATOM     16  C   UNL     1      46.025   1.447   8.328  0.00  0.00    +0.000 A 
ATOM     17  N   UNL     1      46.772   1.276   7.201  0.00  0.00    +0.000 N 
ATOM     18  H   UNL     1      47.243   0.428   6.916  0.00  0.00    +0.000 HD
ENDBRANCH   8  15
ENDBRANCH   7  10
ENDBRANCH   1   7
BRANCH   4  19
ATOM     19  C   UNL     1      47.587   8.653  13.998  0.00  0.00    +0.000 C 
BRANCH  19  20
ATOM     20  N   UNL     1      47.924   7.921  15.193  0.00  0.00    +0.000 N 
ATOM     21  C   UNL     1      49.201   7.462  15.400  0.00  0.00    +0.000 C 
ATOM     22  O   UNL     1      50.112   7.690  14.605  0.00  0.00    +0.000 OA
ATOM     23  H   UNL     1      47.155   7.521  15.724  0.00  0.00    +0.000 HD
BRANCH  21  24
ATOM     24  C   UNL     1      49.448   6.739  16.654  0.00  0.00    +0.000 A 
ATOM     25  C   UNL     1      50.291   7.285  17.613  0.00  0.00    +0.000 A 
ATOM     26  S   UNL     1      50.426   6.342  19.027  0.00  0.00    +0.000 S 
ATOM     27  C   UNL     1      49.407   5.139  18.386  0.00  0.00    +0.000 A 
ATOM     28  N   UNL     1      49.122   4.013  19.095  0.00  0.00    +0.000 NA
ATOM     29  C   UNL     1      48.362   3.173  18.475  0.00  0.00    +0.000 A 
ATOM     30  N   UNL     1      47.858   3.357  17.215  0.00  0.00    +0.000 N 
ATOM     31  C   UNL     1      48.096   4.491  16.473  0.00  0.00    +0.000 A 
ATOM     32  O   UNL     1      47.597   4.642  15.362  0.00  0.00    +0.000 OA
ATOM     33  C   UNL     1      48.953   5.464  17.119  0.00  0.00    +0.000 A 
ATOM     34  H   UNL     1      47.266   2.662  16.786  0.00  0.00    +0.000 HD
ENDBRANCH  21  24
ENDBRANCH  19  20
ENDBRANCH   4  19
TORSDOF 6
ENDMDL
MODEL 2
REMARK VINA RESULT:    -7.345      4.805     10.006
REMARK INTER + INTRA:         -10.961
REMARK INTER:                 -10.184
REMARK INTRA:                  -0.777
REMARK UNBOUND:                -1.040
REMARK  Name = 
REMARK  7 active torsions:
REMARK  status: ('A' for Active; 'I' for Inactive)
REMARK    1  A    between atoms: C_1  and  C_2
REMARK    2  A    between atoms: C_4  and  C_5
REMARK    3  A    between atoms: N_7  and  C_8
REMARK    4  A    between atoms: C_8  and  C_9
REMARK    5  A    between atoms: C_12  and  C_13
REMARK    6  A    between atoms: C_13  and  N_14
REMARK    7  A    between atoms: C_15  and  C_17
REMARK                            x       y       z     vdW  Elec       q    Type
REMARK                         _______ _______ _______ _____ _____    ______ ____
ROOT
ATOM      1  C   UNL     1      51.567   2.801  17.747  0.00  0.00    +0.000 A 
ATOM      2  C   UNL     1      50.990   4.012  18.151  0.00  0.00    +0.000 A 
ATOM      3  C   UNL     1      49.634   4.274  17.913  0.00  0.00    +0.000 A 
ATOM      4  C   UNL     1      48.821   3.319  17.287  0.00  0.00    +0.000 A 
ATOM      5  C   UNL     1      49.404   2.115  16.868  0.00  0.00    +0.000 A 
ATOM      6  C   UNL     1      50.759   1.853  17.106  0.00  0.00    +0.000 A 
ENDROOT
BRANCH   1   7
ATOM      7  C   UNL     1      53.035   2.543  17.963  0.00  0.00    +0.000 C 
BRANCH   7  10
ATOM      8  C   UNL     1      53.986   0.298  17.839  0.00  0.00    +0.000 C 
ATOM      9  O   UNL     1      54.365   0.469  16.683  0.00  0.00    +0.000 OA
ATOM     10  N   UNL     1      53.322   1.265  18.562  0.00  0.00    +0.000 N 
ATOM     11  H   UNL     1      53.057   1.043  19.516  0.00  0.00    +0.000 HD
BRANCH   8  15
ATOM     12  C   UNL     1      53.208  -3.743  20.639  0.00  0.00    +0.000 C 
ATOM     13  C   UNL     1      53.815  -2.696  19.784  0.00  0.00    +0.000 A 
ATOM     14  N   UNL     1      53.235  -1.609  19.313  0.00  0.00    +0.000 NA
ATOM     15  C   UNL     1      54.203  -0.957  18.563  0.00  0.00    +0.000 A 
ATOM     16  C   UNL     1      55.382  -1.677  18.601  0.00  0.00    +0.000 A 
ATOM     17  N   UNL     1      55.124  -2.769  19.376  0.00  0.00    +0.000 N 
ATOM     18  H   UNL     1      55.774  -3.507  19.607  0.00  0.00    +0.000 HD
ENDBRANCH   8  15
ENDBRANCH   7  10
ENDBRANCH   1   7
BRANCH   4  19
ATOM     19  C   UNL     1      47.354   3.577  17.055  0.00  0.00    +0.000 C 
BRANCH  19  20
ATOM     20  N   UNL     1      47.131   4.577  16.041  0.00  0.00    +0.000 N 
ATOM     21  C   UNL     1      47.139   4.243  14.709  0.00  0.00    +0.000 C 
ATOM     22  O   UNL     1      47.292   3.082  14.330  0.00  0.00    +0.000 OA
ATOM     23  H   UNL     1      47.248   5.549  16.315  0.00  0.00    +0.000 HD
BRANCH  21  24
ATOM     24  C   UNL     1      46.889   5.330  13.754  0.00  0.00    +0.000 A 
ATOM     25  C   UNL     1      47.872   6.281  13.516  0.00  0.00    +0.000 A 
ATOM     26  S   UNL     1      47.437   7.440  12.342  0.00  0.00    +0.000 S 
ATOM     27  C   UNL     1      45.896   6.745  12.150  0.00  0.00    +0.000 A 
ATOM     28  N   UNL     1      44.988   7.282  11.291  0.00  0.00    +0.000 NA
ATOM     29  C   UNL     1      43.850   6.673  11.270  0.00  0.00    +0.000 A 
ATOM     30  N   UNL     1      43.537   5.574  12.025  0.00  0.00    +0.000 N 
ATOM     31  C   UNL     1      44.432   4.980  12.886  0.00  0.00    +0.000 A 
ATOM     32  O   UNL     1      44.134   3.973  13.519  0.00  0.00    +0.000 OA
ATOM     33  C   UNL     1      45.724   5.632  12.956  0.00  0.00    +0.000 A 
ATOM     34  H   UNL     1      42.629   5.141  11.960  0.00  0.00    +0.000 HD
ENDBRANCH  21  24
ENDBRANCH  19  20
ENDBRANCH   4  19
TORSDOF 6
ENDMDL
MODEL 3
REMARK VINA RESULT:    -7.082      1.777      2.030
REMARK INTER + INTRA:         -10.606
REMARK INTER:                  -9.708
REMARK INTRA:                  -0.898
REMARK UNBOUND:                -1.040
REMARK  Name = 
REMARK  7 active torsions:
REMARK  status: ('A' for Active; 'I' for Inactive)
REMARK    1  A    between atoms: C_1  and  C_2
REMARK    2  A    between atoms: C_4  and  C_5
REMARK    3  A    between atoms: N_7  and  C_8
REMARK    4  A    between atoms: C_8  and  C_9
REMARK    5  A    between atoms: C_12  and  C_13
REMARK    6  A    between atoms: C_13  and  N_14
REMARK    7  A    between atoms: C_15  and  C_17
REMARK                            x       y       z     vdW  Elec       q    Type
REMARK                         _______ _______ _______ _____ _____    ______ ____
ROOT
ATOM      1  C   UNL     1      45.691   6.523  12.335  0.00  0.00    +0.000 A 
ATOM      2  C   UNL     1      46.592   5.687  13.005  0.00  0.00    +0.000 A 
ATOM      3  C   UNL     1      47.544   6.217  13.886  0.00  0.00    +0.000 A 
ATOM      4  C   UNL     1      47.599   7.596  14.132  0.00  0.00    +0.000 A 
ATOM      5  C   UNL     1      46.708   8.434  13.449  0.00  0.00    +0.000 A 
ATOM      6  C   UNL     1      45.756   7.903  12.569  0.00  0.00    +0.000 A 
ENDROOT
BRANCH   1   7
ATOM      7  C   UNL     1      44.700   5.954  11.354  0.00  0.00    +0.000 C 
BRANCH   7  10
ATOM      8  C   UNL     1      44.634   3.967   9.937  0.00  0.00    +0.000 C 
ATOM      9  O   UNL     1      43.538   3.629  10.378  0.00  0.00    +0.000 OA
ATOM     10  N   UNL     1      45.292   5.104  10.353  0.00  0.00    +0.000 N 
ATOM     11  H   UNL     1      46.189   5.314   9.926  0.00  0.00    +0.000 HD
BRANCH   8  15
ATOM     12  C   UNL     1      46.812   0.183   7.545  0.00  0.00    +0.000 C 
ATOM     13  C   UNL     1      46.285   1.515   7.927  0.00  0.00    +0.000 A 
ATOM     14  N   UNL     1      45.655   1.839   9.039  0.00  0.00    +0.000 NA
ATOM     15  C   UNL     1      45.352   3.188   8.925  0.00  0.00    +0.000 A 
ATOM     16  C   UNL     1      45.823   3.668   7.718  0.00  0.00    +0.000 A 
ATOM     17  N   UNL     1      46.409   2.604   7.099  0.00  0.00    +0.000 N 
ATOM     18  H   UNL     1      46.854   2.608   6.192  0.00  0.00    +0.000 HD
ENDBRANCH   8  15
ENDBRANCH   7  10
ENDBRANCH   1   7
BRANCH   4  19
ATOM     19  C   UNL     1      48.598   8.174  15.102  0.00  0.00    +0.000 C 
BRANCH  19  20
ATOM     20  N   UNL     1      49.551   7.190  15.553  0.00  0.00    +0.000 N 
ATOM     21  C   UNL     1      49.508   6.706  16.838  0.00  0.00    +0.000 C 
ATOM     22  O   UNL     1      48.638   7.053  17.636  0.00  0.00    +0.000 OA
ATOM     23  H   UNL     1      50.400   7.082  15.005  0.00  0.00    +0.000 HD
BRANCH  21  24
ATOM     24  C   UNL     1      50.512   5.697  17.197  0.00  0.00    +0.000 A 
ATOM     25  C   UNL     1      51.774   6.097  17.618  0.00  0.00    +0.000 A 
ATOM     26  S   UNL     1      52.798   4.802  18.045  0.00  0.00    +0.000 S 
ATOM     27  C   UNL     1      51.611   3.656  17.629  0.00  0.00    +0.000 A 
ATOM     28  N   UNL     1      51.859   2.322  17.735  0.00  0.00    +0.000 NA
ATOM     29  C   UNL     1      50.882   1.568  17.356  0.00  0.00    +0.000 A 
ATOM     30  N   UNL     1      49.679   2.024  16.884  0.00  0.00    +0.000 N 
ATOM     31  C   UNL     1      49.375   3.362  16.786  0.00  0.00    +0.000 A 
ATOM     32  O   UNL     1      48.274   3.738  16.397  0.00  0.00    +0.000 OA
ATOM     33  C   UNL     1      50.443   4.254  17.190  0.00  0.00    +0.000 A 
ATOM     34  H   UNL     1      48.953   1.382  16.607  0.00  0.00    +0.000 HD
ENDBRANCH  21  24
ENDBRANCH  19  20
ENDBRANCH   4  19
TORSDOF 6
ENDMDL
MODEL 4
REMARK VINA RESULT:    -6.977      3.665      8.512
REMARK INTER + INTRA:         -10.464
REMARK INTER:                  -9.647
REMARK INTRA:                  -0.817
REMARK UNBOUND:                -1.040
REMARK  Name = 
REMARK  7 active torsions:
REMARK  status: ('A' for Active; 'I' for Inactive)
REMARK    1  A    between atoms: C_1  and  C_2
REMARK    2  A    between atoms: C_4  and  C_5
REMARK    3  A    between atoms: N_7  and  C_8
REMARK    4  A    between atoms: C_8  and  C_9
REMARK    5  A    between atoms: C_12  and  C_13
REMARK    6  A    between atoms: C_13  and  N_14
REMARK    7  A    between atoms: C_15  and  C_17
REMARK                            x       y       z     vdW  Elec       q    Type
REMARK                         _______ _______ _______ _____ _____    ______ ____
ROOT
ATOM      1  C   UNL     1      50.092   6.823  16.090  0.00  0.00    +0.000 A 
ATOM      2  C   UNL     1      50.807   7.690  15.253  0.00  0.00    +0.000 A 
ATOM      3  C   UNL     1      50.298   8.061  14.002  0.00  0.00    +0.000 A 
ATOM      4  C   UNL     1      49.050   7.590  13.571  0.00  0.00    +0.000 A 
ATOM      5  C   UNL     1      48.343   6.709  14.401  0.00  0.00    +0.000 A 
ATOM      6  C   UNL     1      48.852   6.340  15.652  0.00  0.00    +0.000 A 
ENDROOT
BRANCH   1   7
ATOM      7  C   UNL     1      50.665   6.390  17.414  0.00  0.00    +0.000 C 
BRANCH   7  10
ATOM      8  C   UNL     1      50.639   3.975  17.769  0.00  0.00    +0.000 C 
ATOM      9  O   UNL     1      49.473   3.995  18.155  0.00  0.00    +0.000 OA
ATOM     10  N   UNL     1      51.319   5.108  17.376  0.00  0.00    +0.000 N 
ATOM     11  H   UNL     1      52.277   4.997  17.058  0.00  0.00    +0.000 HD
BRANCH   8  15
ATOM     12  C   UNL     1      54.431   0.758  17.995  0.00  0.00    +0.000 C 
ATOM     13  C   UNL     1      53.100   1.383  17.806  0.00  0.00    +0.000 A 
ATOM     14  N   UNL     1      52.779   2.651  17.976  0.00  0.00    +0.000 NA
ATOM     15  C   UNL     1      51.424   2.741  17.692  0.00  0.00    +0.000 A 
ATOM     16  C   UNL     1      50.942   1.495  17.339  0.00  0.00    +0.000 A 
ATOM     17  N   UNL     1      52.008   0.649  17.413  0.00  0.00    +0.000 N 
ATOM     18  H   UNL     1      52.002  -0.342  17.220  0.00  0.00    +0.000 HD
ENDBRANCH   8  15
ENDBRANCH   7  10
ENDBRANCH   1   7
BRANCH   4  19
ATOM     19  C   UNL     1      48.477   8.008  12.240  0.00  0.00    +0.000 C 
BRANCH  19  20
ATOM     20  N   UNL     1      47.741   6.943  11.605  0.00  0.00    +0.000 N 
ATOM     21  C   UNL     1      46.370   6.911  11.651  0.00  0.00    +0.000 C 
ATOM     22  O   UNL     1      45.715   7.802  12.190  0.00  0.00    +0.000 OA
ATOM     23  H   UNL     1      48.256   6.095  11.379  0.00  0.00    +0.000 HD
BRANCH  21  24
ATOM     24  C   UNL     1      45.712   5.792  10.963  0.00  0.00    +0.000 A 
ATOM     25  C   UNL     1      45.818   5.670   9.584  0.00  0.00    +0.000 A 
ATOM     26  S   UNL     1      45.039   4.288   8.955  0.00  0.00    +0.000 S 
ATOM     27  C   UNL     1      44.483   3.834  10.497  0.00  0.00    +0.000 A 
ATOM     28  N   UNL     1      43.712   2.725  10.664  0.00  0.00    +0.000 NA
ATOM     29  C   UNL     1      43.336   2.518  11.882  0.00  0.00    +0.000 A 
ATOM     30  N   UNL     1      43.662   3.314  12.948  0.00  0.00    +0.000 N 
ATOM     31  C   UNL     1      44.461   4.428  12.831  0.00  0.00    +0.000 A 
ATOM     32  O   UNL     1      44.767   5.098  13.812  0.00  0.00    +0.000 OA
ATOM     33  C   UNL     1      44.904   4.713  11.481  0.00  0.00    +0.000 A 
ATOM     34  H   UNL     1      43.338   3.095  13.877  0.00  0.00    +0.000 HD
ENDBRANCH  21  24
ENDBRANCH  19  20
ENDBRANCH   4  19
TORSDOF 6
ENDMDL
MODEL 5
REMARK VINA RESULT:    -6.874      5.009      7.629
REMARK INTER + INTRA:         -10.325
REMARK INTER:                  -9.441
REMARK INTRA:                  -0.884
REMARK UNBOUND:                -1.040
REMARK  Name = 
REMARK  7 active torsions:
REMARK  status: ('A' for Active; 'I' for Inactive)
REMARK    1  A    between atoms: C_1  and  C_2
REMARK    2  A    between atoms: C_4  and  C_5
REMARK    3  A    between atoms: N_7  and  C_8
REMARK    4  A    between atoms: C_8  and  C_9
REMARK    5  A    between atoms: C_12  and  C_13
REMARK    6  A    between atoms: C_13  and  N_14
REMARK    7  A    between atoms: C_15  and  C_17
REMARK                            x       y       z     vdW  Elec       q    Type
REMARK                         _______ _______ _______ _____ _____    ______ ____
ROOT
ATOM      1  C   UNL     1      50.532   8.714  11.356  0.00  0.00    +0.000 A 
ATOM      2  C   UNL     1      49.611   9.768  11.385  0.00  0.00    +0.000 A 
ATOM      3  C   UNL     1      48.320   9.579  11.894  0.00  0.00    +0.000 A 
ATOM      4  C   UNL     1      47.930   8.334  12.406  0.00  0.00    +0.000 A 
ATOM      5  C   UNL     1      48.846   7.275  12.361  0.00  0.00    +0.000 A 
ATOM      6  C   UNL     1      50.137   7.465  11.853  0.00  0.00    +0.000 A 
ENDROOT
BRANCH   1   7
ATOM      7  C   UNL     1      51.904   8.909  10.765  0.00  0.00    +0.000 C 
BRANCH   7  10
ATOM      8  C   UNL     1      52.940   7.652   8.946  0.00  0.00    +0.000 C 
ATOM      9  O   UNL     1      52.865   8.608   8.178  0.00  0.00    +0.000 OA
ATOM     10  N   UNL     1      52.496   7.701  10.250  0.00  0.00    +0.000 N 
ATOM     11  H   UNL     1      52.609   6.868  10.820  0.00  0.00    +0.000 HD
BRANCH   8  15
ATOM     12  C   UNL     1      54.147   3.640   6.258  0.00  0.00    +0.000 C 
ATOM     13  C   UNL     1      54.006   4.641   7.342  0.00  0.00    +0.000 A 
ATOM     14  N   UNL     1      53.328   5.772   7.307  0.00  0.00    +0.000 NA
ATOM     15  C   UNL     1      53.509   6.362   8.549  0.00  0.00    +0.000 A 
ATOM     16  C   UNL     1      54.307   5.552   9.335  0.00  0.00    +0.000 A 
ATOM     17  N   UNL     1      54.612   4.471   8.563  0.00  0.00    +0.000 N 
ATOM     18  H   UNL     1      55.184   3.684   8.833  0.00  0.00    +0.000 HD
ENDBRANCH   8  15
ENDBRANCH   7  10
ENDBRANCH   1   7
BRANCH   4  19
ATOM     19  C   UNL     1      46.554   8.127  12.986  0.00  0.00    +0.000 C 
BRANCH  19  20
ATOM     20  N   UNL     1      46.042   6.807  12.715  0.00  0.00    +0.000 N 
ATOM     21  C   UNL     1      45.045   6.614  11.790  0.00  0.00    +0.000 C 
ATOM     22  O   UNL     1      44.583   7.543  11.129  0.00  0.00    +0.000 OA
ATOM     23  H   UNL     1      46.229   6.086  13.408  0.00  0.00    +0.000 HD
BRANCH  21  24
ATOM     24  C   UNL     1      44.601   5.231  11.576  0.00  0.00    +0.000 A 
ATOM     25  C   UNL     1      43.911   4.564  12.579  0.00  0.00    +0.000 A 
ATOM     26  S   UNL     1      43.424   2.987  12.146  0.00  0.00    +0.000 S 
ATOM     27  C   UNL     1      44.169   3.118  10.622  0.00  0.00    +0.000 A 
ATOM     28  N   UNL     1      44.148   2.082   9.741  0.00  0.00    +0.000 NA
ATOM     29  C   UNL     1      44.778   2.308   8.637  0.00  0.00    +0.000 A 
ATOM     30  N   UNL     1      45.423   3.477   8.331  0.00  0.00    +0.000 N 
ATOM     31  C   UNL     1      45.447   4.561   9.178  0.00  0.00    +0.000 A 
ATOM     32  O   UNL     1      46.000   5.608   8.858  0.00  0.00    +0.000 OA
ATOM     33  C   UNL     1      44.762   4.356  10.438  0.00  0.00    +0.000 A 
ATOM     34  H   UNL     1      45.895   3.593   7.448  0.00  0.00    +0.000 HD
ENDBRANCH  21  24
ENDBRANCH  19  20
ENDBRANCH   4  19
TORSDOF 6
ENDMDL
MODEL 6
REMARK VINA RESULT:    -6.816      2.201      2.792
REMARK INTER + INTRA:         -10.248
REMARK INTER:                  -9.324
REMARK INTRA:                  -0.923
REMARK UNBOUND:                -1.040
REMARK  Name = 
REMARK  7 active torsions:
REMARK  status: ('A' for Active; 'I' for Inactive)
REMARK    1  A    between atoms: C_1  and  C_2
REMARK    2  A    between atoms: C_4  and  C_5
REMARK    3  A    between atoms: N_7  and  C_8
REMARK    4  A    between atoms: C_8  and  C_9
REMARK    5  A    between atoms: C_12  and  C_13
REMARK    6  A    between atoms: C_13  and  N_14
REMARK    7  A    between atoms: C_15  and  C_17
REMARK                            x       y       z     vdW  Elec       q    Type
REMARK                         _______ _______ _______ _____ _____    ______ ____
ROOT
ATOM      1  C   UNL     1      45.707   6.495  12.039  0.00  0.00    +0.000 A 
ATOM      2  C   UNL     1      46.389   5.532  12.793  0.00  0.00    +0.000 A 
ATOM      3  C   UNL     1      47.342   5.912  13.748  0.00  0.00    +0.000 A 
ATOM      4  C   UNL     1      47.617   7.266  13.983  0.00  0.00    +0.000 A 
ATOM      5  C   UNL     1      46.946   8.228  13.217  0.00  0.00    +0.000 A 
ATOM      6  C   UNL     1      45.993   7.849  12.264  0.00  0.00    +0.000 A 
ENDROOT
BRANCH   1   7
ATOM      7  C   UNL     1      44.718   6.081  10.982  0.00  0.00    +0.000 C 
BRANCH   7  10
ATOM      8  C   UNL     1      44.714   4.027   9.662  0.00  0.00    +0.000 C 
ATOM      9  O   UNL     1      43.725   3.595  10.249  0.00  0.00    +0.000 OA
ATOM     10  N   UNL     1      45.281   5.251   9.948  0.00  0.00    +0.000 N 
ATOM     11  H   UNL     1      46.089   5.536   9.405  0.00  0.00    +0.000 HD
BRANCH   8  15
ATOM     12  C   UNL     1      47.025   2.913   5.396  0.00  0.00    +0.000 C 
ATOM     13  C   UNL     1      46.390   2.847   6.734  0.00  0.00    +0.000 A 
ATOM     14  N   UNL     1      45.824   3.832   7.403  0.00  0.00    +0.000 NA
ATOM     15  C   UNL     1      45.392   3.281   8.599  0.00  0.00    +0.000 A 
ATOM     16  C   UNL     1      45.706   1.935   8.629  0.00  0.00    +0.000 A 
ATOM     17  N   UNL     1      46.334   1.675   7.447  0.00  0.00    +0.000 N 
ATOM     18  H   UNL     1      46.699   0.782   7.146  0.00  0.00    +0.000 HD
ENDBRANCH   8  15
ENDBRANCH   7  10
ENDBRANCH   1   7
BRANCH   4  19
ATOM     19  C   UNL     1      48.616   7.687  15.031  0.00  0.00    +0.000 C 
BRANCH  19  20
ATOM     20  N   UNL     1      49.408   6.579  15.503  0.00  0.00    +0.000 N 
ATOM     21  C   UNL     1      49.210   6.056  16.757  0.00  0.00    +0.000 C 
ATOM     22  O   UNL     1      48.329   6.478  17.506  0.00  0.00    +0.000 OA
ATOM     23  H   UNL     1      50.278   6.388  15.012  0.00  0.00    +0.000 HD
BRANCH  21  24
ATOM     24  C   UNL     1      50.058   4.920  17.142  0.00  0.00    +0.000 A 
ATOM     25  C   UNL     1      49.486   3.673  17.356  0.00  0.00    +0.000 A 
ATOM     26  S   UNL     1      50.617   2.457  17.744  0.00  0.00    +0.000 S 
ATOM     27  C   UNL     1      51.907   3.565  17.694  0.00  0.00    +0.000 A 
ATOM     28  N   UNL     1      53.180   3.170  17.965  0.00  0.00    +0.000 NA
ATOM     29  C   UNL     1      54.053   4.121  17.922  0.00  0.00    +0.000 A 
ATOM     30  N   UNL     1      53.770   5.429  17.629  0.00  0.00    +0.000 N 
ATOM     31  C   UNL     1      52.503   5.868  17.322  0.00  0.00    +0.000 A 
ATOM     32  O   UNL     1      52.290   7.040  17.026  0.00  0.00    +0.000 OA
ATOM     33  C   UNL     1      51.482   4.841  17.366  0.00  0.00    +0.000 A 
ATOM     34  H   UNL     1      54.500   6.125  17.608  0.00  0.00    +0.000 HD
ENDBRANCH  21  24
ENDBRANCH  19  20
ENDBRANCH   4  19
TORSDOF 6
ENDMDL
MODEL 7
REMARK VINA RESULT:    -6.666      2.345      3.042
REMARK INTER + INTRA:         -10.045
REMARK INTER:                  -9.182
REMARK INTRA:                  -0.863
REMARK UNBOUND:                -1.040
REMARK  Name = 
REMARK  7 active torsions:
REMARK  status: ('A' for Active; 'I' for Inactive)
REMARK    1  A    between atoms: C_1  and  C_2
REMARK    2  A    between atoms: C_4  and  C_5
REMARK    3  A    between atoms: N_7  and  C_8
REMARK    4  A    between atoms: C_8  and  C_9
REMARK    5  A    between atoms: C_12  and  C_13
REMARK    6  A    between atoms: C_13  and  N_14
REMARK    7  A    between atoms: C_15  and  C_17
REMARK                            x       y       z     vdW  Elec       q    Type
REMARK                         _______ _______ _______ _____ _____    ______ ____
ROOT
ATOM      1  C   UNL     1      45.648   5.435  11.947  0.00  0.00    +0.000 A 
ATOM      2  C   UNL     1      45.124   4.434  12.774  0.00  0.00    +0.000 A 
ATOM      3  C   UNL     1      45.725   4.131  14.003  0.00  0.00    +0.000 A 
ATOM      4  C   UNL     1      46.852   4.840  14.440  0.00  0.00    +0.000 A 
ATOM      5  C   UNL     1      47.387   5.830  13.604  0.00  0.00    +0.000 A 
ATOM      6  C   UNL     1      46.785   6.133  12.377  0.00  0.00    +0.000 A 
ENDROOT
BRANCH   1   7
ATOM      7  C   UNL     1      45.027   5.726  10.606  0.00  0.00    +0.000 C 
BRANCH   7  10
ATOM      8  C   UNL     1      45.080   3.705   9.237  0.00  0.00    +0.000 C 
ATOM      9  O   UNL     1      44.152   3.198   9.863  0.00  0.00    +0.000 OA
ATOM     10  N   UNL     1      45.585   4.955   9.525  0.00  0.00    +0.000 N 
ATOM     11  H   UNL     1      46.344   5.302   8.948  0.00  0.00    +0.000 HD
BRANCH   8  15
ATOM     12  C   UNL     1      47.249   2.837   4.841  0.00  0.00    +0.000 C 
ATOM     13  C   UNL     1      46.679   2.699   6.203  0.00  0.00    +0.000 A 
ATOM     14  N   UNL     1      46.095   3.634   6.927  0.00  0.00    +0.000 NA
ATOM     15  C   UNL     1      45.745   3.025   8.123  0.00  0.00    +0.000 A 
ATOM     16  C   UNL     1      46.127   1.697   8.096  0.00  0.00    +0.000 A 
ATOM     17  N   UNL     1      46.713   1.505   6.880  0.00  0.00    +0.000 N 
ATOM     18  H   UNL     1      47.108   0.641   6.535  0.00  0.00    +0.000 HD
ENDBRANCH   8  15
ENDBRANCH   7  10
ENDBRANCH   1   7
BRANCH   4  19
ATOM     19  C   UNL     1      47.488   4.544  15.775  0.00  0.00    +0.000 C 
BRANCH  19  20
ATOM     20  N   UNL     1      47.810   5.747  16.503  0.00  0.00    +0.000 N 
ATOM     21  C   UNL     1      49.081   5.967  16.972  0.00  0.00    +0.000 C 
ATOM     22  O   UNL     1      50.001   5.178  16.756  0.00  0.00    +0.000 OA
ATOM     23  H   UNL     1      47.033   6.274  16.894  0.00  0.00    +0.000 HD
BRANCH  21  24
ATOM     24  C   UNL     1      49.312   7.228  17.689  0.00  0.00    +0.000 A 
ATOM     25  C   UNL     1      50.218   8.152  17.188  0.00  0.00    +0.000 A 
ATOM     26  S   UNL     1      50.326   9.581  18.115  0.00  0.00    +0.000 S 
ATOM     27  C   UNL     1      49.206   8.991  19.252  0.00  0.00    +0.000 A 
ATOM     28  N   UNL     1      48.862   9.728  20.342  0.00  0.00    +0.000 NA
ATOM     29  C   UNL     1      48.027   9.145  21.136  0.00  0.00    +0.000 A 
ATOM     30  N   UNL     1      47.501   7.896  20.938  0.00  0.00    +0.000 N 
ATOM     31  C   UNL     1      47.798   7.127  19.837  0.00  0.00    +0.000 A 
ATOM     32  O   UNL     1      47.280   6.028  19.669  0.00  0.00    +0.000 OA
ATOM     33  C   UNL     1      48.741   7.731  18.917  0.00  0.00    +0.000 A 
ATOM     34  H   UNL     1      46.849   7.497  21.595  0.00  0.00    +0.000 HD
ENDBRANCH  21  24
ENDBRANCH  19  20
ENDBRANCH   4  19
TORSDOF 6
ENDMDL
MODEL 8
REMARK VINA RESULT:    -6.649      4.039      8.697
REMARK INTER + INTRA:         -10.022
REMARK INTER:                  -9.112
REMARK INTRA:                  -0.910
REMARK UNBOUND:                -1.040
REMARK  Name = 
REMARK  7 active torsions:
REMARK  status: ('A' for Active; 'I' for Inactive)
REMARK    1  A    between atoms: C_1  and  C_2
REMARK    2  A    between atoms: C_4  and  C_5
REMARK    3  A    between atoms: N_7  and  C_8
REMARK    4  A    between atoms: C_8  and  C_9
REMARK    5  A    between atoms: C_12  and  C_13
REMARK    6  A    between atoms: C_13  and  N_14
REMARK    7  A    between atoms: C_15  and  C_17
REMARK                            x       y       z     vdW  Elec       q    Type
REMARK                         _______ _______ _______ _____ _____    ______ ____
ROOT
ATOM      1  C   UNL     1      49.612   4.545  17.588  0.00  0.00    +0.000 A 
ATOM      2  C   UNL     1      48.377   4.418  16.941  0.00  0.00    +0.000 A 
ATOM      3  C   UNL     1      47.939   5.392  16.033  0.00  0.00    +0.000 A 
ATOM      4  C   UNL     1      48.741   6.503  15.737  0.00  0.00    +0.000 A 
ATOM      5  C   UNL     1      49.970   6.637  16.397  0.00  0.00    +0.000 A 
ATOM      6  C   UNL     1      50.407   5.663  17.303  0.00  0.00    +0.000 A 
ENDROOT
BRANCH   1   7
ATOM      7  C   UNL     1      50.057   3.520  18.598  0.00  0.00    +0.000 C 
BRANCH   7  10
ATOM      8  C   UNL     1      51.604   1.949  17.548  0.00  0.00    +0.000 C 
ATOM      9  O   UNL     1      50.694   1.371  16.959  0.00  0.00    +0.000 OA
ATOM     10  N   UNL     1      51.393   3.028  18.381  0.00  0.00    +0.000 N 
ATOM     11  H   UNL     1      52.205   3.453  18.817  0.00  0.00    +0.000 HD
BRANCH   8  15
ATOM     12  C   UNL     1      55.689  -0.735  16.606  0.00  0.00    +0.000 C 
ATOM     13  C   UNL     1      54.749   0.341  17.001  0.00  0.00    +0.000 A 
ATOM     14  N   UNL     1      53.431   0.301  16.980  0.00  0.00    +0.000 NA
ATOM     15  C   UNL     1      53.007   1.545  17.426  0.00  0.00    +0.000 A 
ATOM     16  C   UNL     1      54.105   2.329  17.722  0.00  0.00    +0.000 A 
ATOM     17  N   UNL     1      55.196   1.558  17.451  0.00  0.00    +0.000 N 
ATOM     18  H   UNL     1      56.163   1.830  17.556  0.00  0.00    +0.000 HD
ENDBRANCH   8  15
ENDBRANCH   7  10
ENDBRANCH   1   7
BRANCH   4  19
ATOM     19  C   UNL     1      48.295   7.540  14.737  0.00  0.00    +0.000 C 
BRANCH  19  20
ATOM     20  N   UNL     1      47.062   7.173  14.086  0.00  0.00    +0.000 N 
ATOM     21  C   UNL     1      47.071   6.480  12.902  0.00  0.00    +0.000 C 
ATOM     22  O   UNL     1      48.118   6.107  12.373  0.00  0.00    +0.000 OA
ATOM     23  H   UNL     1      46.223   7.673  14.369  0.00  0.00    +0.000 HD
BRANCH  21  24
ATOM     24  C   UNL     1      45.764   6.142  12.324  0.00  0.00    +0.000 A 
ATOM     25  C   UNL     1      44.975   7.139  11.768  0.00  0.00    +0.000 A 
ATOM     26  S   UNL     1      43.515   6.567  11.097  0.00  0.00    +0.000 S 
ATOM     27  C   UNL     1      43.858   4.971  11.576  0.00  0.00    +0.000 A 
ATOM     28  N   UNL     1      42.981   3.961  11.327  0.00  0.00    +0.000 NA
ATOM     29  C   UNL     1      43.355   2.809  11.774  0.00  0.00    +0.000 A 
ATOM     30  N   UNL     1      44.527   2.573  12.443  0.00  0.00    +0.000 N 
ATOM     31  C   UNL     1      45.455   3.557  12.693  0.00  0.00    +0.000 A 
ATOM     32  O   UNL     1      46.513   3.304  13.261  0.00  0.00    +0.000 OA
ATOM     33  C   UNL     1      45.080   4.874  12.221  0.00  0.00    +0.000 A 
ATOM     34  H   UNL     1      44.763   1.647  12.764  0.00  0.00    +0.000 HD
ENDBRANCH  21  24
ENDBRANCH  19  20
ENDBRANCH   4  19
TORSDOF 6
ENDMDL
MODEL 9
REMARK VINA RESULT:    -6.594      2.655      3.863
REMARK INTER + INTRA:          -9.946
REMARK INTER:                  -9.058
REMARK INTRA:                  -0.888
REMARK UNBOUND:                -1.040
REMARK  Name = 
REMARK  7 active torsions:
REMARK  status: ('A' for Active; 'I' for Inactive)
REMARK    1  A    between atoms: C_1  and  C_2
REMARK    2  A    between atoms: C_4  and  C_5
REMARK    3  A    between atoms: N_7  and  C_8
REMARK    4  A    between atoms: C_8  and  C_9
REMARK    5  A    between atoms: C_12  and  C_13
REMARK    6  A    between atoms: C_13  and  N_14
REMARK    7  A    between atoms: C_15  and  C_17
REMARK                            x       y       z     vdW  Elec       q    Type
REMARK                         _______ _______ _______ _____ _____    ______ ____
ROOT
ATOM      1  C   UNL     1      47.690   7.756  13.572  0.00  0.00    +0.000 A 
ATOM      2  C   UNL     1      48.244   6.616  14.169  0.00  0.00    +0.000 A 
ATOM      3  C   UNL     1      48.855   6.691  15.428  0.00  0.00    +0.000 A 
ATOM      4  C   UNL     1      48.905   7.905  16.127  0.00  0.00    +0.000 A 
ATOM      5  C   UNL     1      48.365   9.048  15.522  0.00  0.00    +0.000 A 
ATOM      6  C   UNL     1      47.754   8.973  14.264  0.00  0.00    +0.000 A 
ENDROOT
BRANCH   1   7
ATOM      7  C   UNL     1      47.076   7.681  12.199  0.00  0.00    +0.000 C 
BRANCH   7  10
ATOM      8  C   UNL     1      45.360   6.108  11.463  0.00  0.00    +0.000 C 
ATOM      9  O   UNL     1      44.495   6.980  11.456  0.00  0.00    +0.000 OA
ATOM     10  N   UNL     1      46.671   6.354  11.813  0.00  0.00    +0.000 N 
ATOM     11  H   UNL     1      47.323   5.577  11.778  0.00  0.00    +0.000 HD
BRANCH   8  15
ATOM     12  C   UNL     1      44.722   1.943   8.813  0.00  0.00    +0.000 C 
ATOM     13  C   UNL     1      44.815   2.935   9.910  0.00  0.00    +0.000 A 
ATOM     14  N   UNL     1      45.101   4.219   9.809  0.00  0.00    +0.000 NA
ATOM     15  C   UNL     1      45.081   4.716  11.104  0.00  0.00    +0.000 A 
ATOM     16  C   UNL     1      44.768   3.699  11.985  0.00  0.00    +0.000 A 
ATOM     17  N   UNL     1      44.602   2.583  11.220  0.00  0.00    +0.000 N 
ATOM     18  H   UNL     1      44.368   1.658  11.552  0.00  0.00    +0.000 HD
ENDBRANCH   8  15
ENDBRANCH   7  10
ENDBRANCH   1   7
BRANCH   4  19
ATOM     19  C   UNL     1      49.530   7.990  17.496  0.00  0.00    +0.000 C 
BRANCH  19  20
ATOM     20  N   UNL     1      50.506   6.950  17.713  0.00  0.00    +0.000 N 
ATOM     21  C   UNL     1      50.251   5.916  18.580  0.00  0.00    +0.000 C 
ATOM     22  O   UNL     1      49.175   5.810  19.168  0.00  0.00    +0.000 OA
ATOM     23  H   UNL     1      51.464   7.149  17.438  0.00  0.00    +0.000 HD
BRANCH  21  24
ATOM     24  C   UNL     1      51.301   4.900  18.724  0.00  0.00    +0.000 A 
ATOM     25  C   UNL     1      52.446   5.188  19.455  0.00  0.00    +0.000 A 
ATOM     26  S   UNL     1      53.538   3.882  19.565  0.00  0.00    +0.000 S 
ATOM     27  C   UNL     1      52.546   2.901  18.590  0.00  0.00    +0.000 A 
ATOM     28  N   UNL     1      52.918   1.634  18.265  0.00  0.00    +0.000 NA
ATOM     29  C   UNL     1      52.085   1.017  17.494  0.00  0.00    +0.000 A 
ATOM     30  N   UNL     1      50.914   1.548  17.024  0.00  0.00    +0.000 N 
ATOM     31  C   UNL     1      50.484   2.813  17.349  0.00  0.00    +0.000 A 
ATOM     32  O   UNL     1      49.410   3.246  16.942  0.00  0.00    +0.000 OA
ATOM     33  C   UNL     1      51.388   3.555  18.205  0.00  0.00    +0.000 A 
ATOM     34  H   UNL     1      50.304   1.011  16.427  0.00  0.00    +0.000 HD
ENDBRANCH  21  24
ENDBRANCH  19  20
ENDBRANCH   4  19
TORSDOF 6
ENDMDL
