MODEL 1
REMARK VINA RESULT:    -8.791      0.000      0.000
REMARK INTER + INTRA:         -12.941
REMARK INTER:                 -11.875
REMARK INTRA:                  -1.066
REMARK UNBOUND:                -1.066
REMARK  Name = 
REMARK  7 active torsions:
REMARK  status: ('A' for Active; 'I' for Inactive)
REMARK    1  A    between atoms: C_1  and  C_2
REMARK    2  A    between atoms: C_2  and  N_3
REMARK    3  A    between atoms: C_2  and  C_16
REMARK    4  A    between atoms: C_4  and  C_6
REMARK    5  A    between atoms: C_19  and  O_20
REMARK    6  A    between atoms: O_20  and  C_21
REMARK    7  A    between atoms: C_21  and  C_22
REMARK                            x       y       z     vdW  Elec       q    Type
REMARK                         _______ _______ _______ _____ _____    ______ ____
ROOT
ATOM      1  C   UNL     1      45.876   8.790  13.146  0.00  0.00    +0.000 C 
ATOM      2  C   UNL     1      46.790   7.574  12.962  0.00  0.00    +0.000 C 
ENDROOT
BRANCH   2   3
ATOM      3  C   UNL     1      46.108   6.532  12.085  0.00  0.00    +0.000 A 
ATOM      4  C   UNL     1      46.396   6.536  10.712  0.00  0.00    +0.000 A 
ATOM      5  C   UNL     1      45.758   5.661   9.828  0.00  0.00    +0.000 A 
ATOM      6  C   UNL     1      44.825   4.742  10.304  0.00  0.00    +0.000 A 
ATOM      7  C   UNL     1      44.531   4.719  11.667  0.00  0.00    +0.000 A 
ATOM      8  C   UNL     1      45.155   5.611  12.550  0.00  0.00    +0.000 A 
BRANCH   6   9
ATOM      9  O   UNL     1      44.105   3.880   9.526  0.00  0.00    +0.000 OA
BRANCH   9  10
ATOM     10  C   UNL     1      44.576   2.527   9.495  0.00  0.00    +0.000 C 
BRANCH  10  11
ATOM     11  C   UNL     1      45.566   2.313   8.367  0.00  0.00    +0.000 A 
ATOM     12  C   UNL     1      45.727   3.264   7.361  0.00  0.00    +0.000 A 
ATOM     13  C   UNL     1      46.605   3.000   6.314  0.00  0.00    +0.000 A 
ATOM     14  C   UNL     1      47.294   1.794   6.289  0.00  0.00    +0.000 A 
ATOM     15  C   UNL     1      47.078   0.899   7.322  0.00  0.00    +0.000 A 
ATOM     16  N   UNL     1      46.231   1.127   8.351  0.00  0.00    +0.000 NA
ENDBRANCH  10  11
ENDBRANCH   9  10
ENDBRANCH   6   9
ENDBRANCH   2   3
BRANCH   2  17
ATOM     17  N   UNL     1      47.219   7.052  14.241  0.00  0.00    +0.000 N 
ATOM     18  C   UNL     1      48.508   6.627  14.477  0.00  0.00    +0.000 C 
ATOM     19  O   UNL     1      49.373   6.634  13.611  0.00  0.00    +0.000 OA
ATOM     20  H   UNL     1      46.508   6.857  14.931  0.00  0.00    +0.000 HD
BRANCH  18  21
ATOM     21  C   UNL     1      48.801   6.204  15.850  0.00  0.00    +0.000 A 
ATOM     22  C   UNL     1      49.661   6.952  16.643  0.00  0.00    +0.000 A 
ATOM     23  S   UNL     1      49.884   6.308  18.209  0.00  0.00    +0.000 S 
ATOM     24  C   UNL     1      48.863   4.989  17.870  0.00  0.00    +0.000 A 
ATOM     25  N   UNL     1      48.639   4.016  18.795  0.00  0.00    +0.000 NA
ATOM     26  C   UNL     1      47.855   3.069  18.399  0.00  0.00    +0.000 A 
ATOM     27  N   UNL     1      47.265   3.011  17.164  0.00  0.00    +0.000 N 
ATOM     28  C   UNL     1      47.433   3.988  16.217  0.00  0.00    +0.000 A 
ATOM     29  O   UNL     1      46.816   3.943  15.158  0.00  0.00    +0.000 OA
ATOM     30  C   UNL     1      48.332   5.057  16.598  0.00  0.00    +0.000 A 
ATOM     31  H   UNL     1      46.634   2.263  16.920  0.00  0.00    +0.000 HD
ENDBRANCH  18  21
ENDBRANCH   2  17
TORSDOF 6
ENDMDL
MODEL 2
REMARK VINA RESULT:    -7.720      1.869      2.347
REMARK INTER + INTRA:         -11.495
REMARK INTER:                 -10.409
REMARK INTRA:                  -1.086
REMARK UNBOUND:                -1.066
REMARK  Name = 
REMARK  7 active torsions:
REMARK  status: ('A' for Active; 'I' for Inactive)
REMARK    1  A    between atoms: C_1  and  C_2
REMARK    2  A    between atoms: C_2  and  N_3
REMARK    3  A    between atoms: C_2  and  C_16
REMARK    4  A    between atoms: C_4  and  C_6
REMARK    5  A    between atoms: C_19  and  O_20
REMARK    6  A    between atoms: O_20  and  C_21
REMARK    7  A    between atoms: C_21  and  C_22
REMARK                            x       y       z     vdW  Elec       q    Type
REMARK                         _______ _______ _______ _____ _____    ______ ____
ROOT
ATOM      1  C   UNL     1      47.998   9.023  12.552  0.00  0.00    +0.000 C 
ATOM      2  C   UNL     1      48.027   7.683  13.291  0.00  0.00    +0.000 C 
ENDROOT
BRANCH   2   3
ATOM      3  C   UNL     1      46.927   6.769  12.766  0.00  0.00    +0.000 A 
ATOM      4  C   UNL     1      46.965   5.415  13.131  0.00  0.00    +0.000 A 
ATOM      5  C   UNL     1      46.036   4.496  12.633  0.00  0.00    +0.000 A 
ATOM      6  C   UNL     1      45.029   4.918  11.769  0.00  0.00    +0.000 A 
ATOM      7  C   UNL     1      44.971   6.262  11.400  0.00  0.00    +0.000 A 
ATOM      8  C   UNL     1      45.915   7.179  11.882  0.00  0.00    +0.000 A 
BRANCH   6   9
ATOM      9  O   UNL     1      44.105   4.101  11.182  0.00  0.00    +0.000 OA
BRANCH   9  10
ATOM     10  C   UNL     1      43.864   4.333   9.788  0.00  0.00    +0.000 C 
BRANCH  10  11
ATOM     11  C   UNL     1      44.860   3.585   8.924  0.00  0.00    +0.000 A 
ATOM     12  C   UNL     1      45.063   2.215   9.080  0.00  0.00    +0.000 A 
ATOM     13  C   UNL     1      46.029   1.581   8.305  0.00  0.00    +0.000 A 
ATOM     14  C   UNL     1      46.774   2.325   7.400  0.00  0.00    +0.000 A 
ATOM     15  C   UNL     1      46.517   3.681   7.304  0.00  0.00    +0.000 A 
ATOM     16  N   UNL     1      45.587   4.326   8.045  0.00  0.00    +0.000 NA
ENDBRANCH  10  11
ENDBRANCH   9  10
ENDBRANCH   6   9
ENDBRANCH   2   3
BRANCH   2  17
ATOM     17  N   UNL     1      47.968   7.881  14.723  0.00  0.00    +0.000 N 
ATOM     18  C   UNL     1      48.827   7.251  15.598  0.00  0.00    +0.000 C 
ATOM     19  O   UNL     1      49.680   6.456  15.226  0.00  0.00    +0.000 OA
ATOM     20  H   UNL     1      47.175   8.382  15.096  0.00  0.00    +0.000 HD
BRANCH  18  21
ATOM     21  C   UNL     1      48.690   7.625  17.009  0.00  0.00    +0.000 A 
ATOM     22  C   UNL     1      49.005   8.912  17.424  0.00  0.00    +0.000 A 
ATOM     23  S   UNL     1      48.787   9.165  19.098  0.00  0.00    +0.000 S 
ATOM     24  C   UNL     1      48.293   7.552  19.332  0.00  0.00    +0.000 A 
ATOM     25  N   UNL     1      47.981   7.083  20.571  0.00  0.00    +0.000 NA
ATOM     26  C   UNL     1      47.636   5.839  20.603  0.00  0.00    +0.000 A 
ATOM     27  N   UNL     1      47.566   5.021  19.506  0.00  0.00    +0.000 N 
ATOM     28  C   UNL     1      47.835   5.462  18.236  0.00  0.00    +0.000 A 
ATOM     29  O   UNL     1      47.674   4.722  17.271  0.00  0.00    +0.000 OA
ATOM     30  C   UNL     1      48.261   6.843  18.148  0.00  0.00    +0.000 A 
ATOM     31  H   UNL     1      47.259   4.064  19.586  0.00  0.00    +0.000 HD
ENDBRANCH  18  21
ENDBRANCH   2  17
TORSDOF 6
ENDMDL
MODEL 3
REMARK VINA RESULT:    -7.622      2.744      3.951
REMARK INTER + INTRA:         -11.362
REMARK INTER:                 -10.197
REMARK INTRA:                  -1.165
REMARK UNBOUND:                -1.066
REMARK  Name = 
REMARK  7 active torsions:
REMARK  status: ('A' for Active; 'I' for Inactive)
REMARK    1  A    between atoms: C_1  and  C_2
REMARK    2  A    between atoms: C_2  and  N_3
REMARK    3  A    between atoms: C_2  and  C_16
REMARK    4  A    between atoms: C_4  and  C_6
REMARK    5  A    between atoms: C_19  and  O_20
REMARK    6  A    between atoms: O_20  and  C_21
REMARK    7  A    between atoms: C_21  and  C_22
REMARK                            x       y       z     vdW  Elec       q    Type
REMARK                         _______ _______ _______ _____ _____    ______ ____
ROOT
ATOM      1  C   UNL     1      47.156   4.755  15.040  0.00  0.00    +0.000 C 
ATOM      2  C   UNL     1      46.808   5.786  13.963  0.00  0.00    +0.000 C 
ENDROOT
BRANCH   2   3
ATOM      3  C   UNL     1      46.131   5.103  12.781  0.00  0.00    +0.000 A 
ATOM      4  C   UNL     1      45.998   5.831  11.589  0.00  0.00    +0.000 A 
ATOM      5  C   UNL     1      45.324   5.304  10.482  0.00  0.00    +0.000 A 
ATOM      6  C   UNL     1      44.784   4.021  10.537  0.00  0.00    +0.000 A 
ATOM      7  C   UNL     1      44.914   3.280  11.712  0.00  0.00    +0.000 A 
ATOM      8  C   UNL     1      45.570   3.817  12.828  0.00  0.00    +0.000 A 
BRANCH   6   9
ATOM      9  O   UNL     1      44.063   3.430   9.539  0.00  0.00    +0.000 OA
BRANCH   9  10
ATOM     10  C   UNL     1      44.494   2.119   9.151  0.00  0.00    +0.000 C 
BRANCH  10  11
ATOM     11  C   UNL     1      45.647   2.186   8.168  0.00  0.00    +0.000 A 
ATOM     12  C   UNL     1      45.824   3.294   7.340  0.00  0.00    +0.000 A 
ATOM     13  C   UNL     1      46.862   3.287   6.413  0.00  0.00    +0.000 A 
ATOM     14  C   UNL     1      47.692   2.177   6.327  0.00  0.00    +0.000 A 
ATOM     15  C   UNL     1      47.451   1.114   7.180  0.00  0.00    +0.000 A 
ATOM     16  N   UNL     1      46.450   1.091   8.089  0.00  0.00    +0.000 NA
ENDBRANCH  10  11
ENDBRANCH   9  10
ENDBRANCH   6   9
ENDBRANCH   2   3
BRANCH   2  17
ATOM     17  N   UNL     1      47.976   6.554  13.587  0.00  0.00    +0.000 N 
ATOM     18  C   UNL     1      48.009   7.930  13.639  0.00  0.00    +0.000 C 
ATOM     19  O   UNL     1      47.043   8.601  13.979  0.00  0.00    +0.000 OA
ATOM     20  H   UNL     1      48.733   6.065  13.131  0.00  0.00    +0.000 HD
BRANCH  18  21
ATOM     21  C   UNL     1      49.295   8.551  13.304  0.00  0.00    +0.000 A 
ATOM     22  C   UNL     1      49.366   9.518  12.310  0.00  0.00    +0.000 A 
ATOM     23  S   UNL     1      50.940  10.127  12.057  0.00  0.00    +0.000 S 
ATOM     24  C   UNL     1      51.588   9.097  13.247  0.00  0.00    +0.000 A 
ATOM     25  N   UNL     1      52.922   9.085  13.519  0.00  0.00    +0.000 NA
ATOM     26  C   UNL     1      53.275   8.246  14.434  0.00  0.00    +0.000 A 
ATOM     27  N   UNL     1      52.415   7.421  15.110  0.00  0.00    +0.000 N 
ATOM     28  C   UNL     1      51.061   7.427  14.894  0.00  0.00    +0.000 A 
ATOM     29  O   UNL     1      50.316   6.737  15.583  0.00  0.00    +0.000 OA
ATOM     30  C   UNL     1      50.614   8.327  13.852  0.00  0.00    +0.000 A 
ATOM     31  H   UNL     1      52.744   6.807  15.840  0.00  0.00    +0.000 HD
ENDBRANCH  18  21
ENDBRANCH   2  17
TORSDOF 6
ENDMDL
MODEL 4
REMARK VINA RESULT:    -7.612      2.475      3.340
REMARK INTER + INTRA:         -11.349
REMARK INTER:                 -10.154
REMARK INTRA:                  -1.195
REMARK UNBOUND:                -1.066
REMARK  Name = 
REMARK  7 active torsions:
REMARK  status: ('A' for Active; 'I' for Inactive)
REMARK    1  A    between atoms: C_1  and  C_2
REMARK    2  A    between atoms: C_2  and  N_3
REMARK    3  A    between atoms: C_2  and  C_16
REMARK    4  A    between atoms: C_4  and  C_6
REMARK    5  A    between atoms: C_19  and  O_20
REMARK    6  A    between atoms: O_20  and  C_21
REMARK    7  A    between atoms: C_21  and  C_22
REMARK                            x       y       z     vdW  Elec       q    Type
REMARK                         _______ _______ _______ _____ _____    ______ ____
ROOT
ATOM      1  C   UNL     1      49.335   7.709  13.648  0.00  0.00    +0.000 C 
ATOM      2  C   UNL     1      48.628   6.457  14.175  0.00  0.00    +0.000 C 
ENDROOT
BRANCH   2   3
ATOM      3  C   UNL     1      47.475   6.078  13.255  0.00  0.00    +0.000 A 
ATOM      4  C   UNL     1      46.752   4.912  13.550  0.00  0.00    +0.000 A 
ATOM      5  C   UNL     1      45.727   4.456  12.715  0.00  0.00    +0.000 A 
ATOM      6  C   UNL     1      45.387   5.172  11.570  0.00  0.00    +0.000 A 
ATOM      7  C   UNL     1      46.089   6.337  11.264  0.00  0.00    +0.000 A 
ATOM      8  C   UNL     1      47.131   6.783  12.090  0.00  0.00    +0.000 A 
BRANCH   6   9
ATOM      9  O   UNL     1      44.442   4.791  10.658  0.00  0.00    +0.000 OA
BRANCH   9  10
ATOM     10  C   UNL     1      44.374   3.386  10.382  0.00  0.00    +0.000 C 
BRANCH  10  11
ATOM     11  C   UNL     1      45.257   3.013   9.206  0.00  0.00    +0.000 A 
ATOM     12  C   UNL     1      45.623   3.960   8.251  0.00  0.00    +0.000 A 
ATOM     13  C   UNL     1      46.386   3.559   7.159  0.00  0.00    +0.000 A 
ATOM     14  C   UNL     1      46.759   2.227   7.039  0.00  0.00    +0.000 A 
ATOM     15  C   UNL     1      46.354   1.345   8.025  0.00  0.00    +0.000 A 
ATOM     16  N   UNL     1      45.611   1.704   9.097  0.00  0.00    +0.000 NA
ENDBRANCH  10  11
ENDBRANCH   9  10
ENDBRANCH   6   9
ENDBRANCH   2   3
BRANCH   2  17
ATOM     17  N   UNL     1      48.225   6.633  15.554  0.00  0.00    +0.000 N 
ATOM     18  C   UNL     1      48.897   6.050  16.606  0.00  0.00    +0.000 C 
ATOM     19  O   UNL     1      49.866   5.320  16.445  0.00  0.00    +0.000 OA
ATOM     20  H   UNL     1      47.334   7.074  15.730  0.00  0.00    +0.000 HD
BRANCH  18  21
ATOM     21  C   UNL     1      48.411   6.396  17.945  0.00  0.00    +0.000 A 
ATOM     22  C   UNL     1      48.140   5.395  18.870  0.00  0.00    +0.000 A 
ATOM     23  S   UNL     1      47.582   5.982  20.372  0.00  0.00    +0.000 S 
ATOM     24  C   UNL     1      47.652   7.594  19.829  0.00  0.00    +0.000 A 
ATOM     25  N   UNL     1      47.269   8.625  20.630  0.00  0.00    +0.000 NA
ATOM     26  C   UNL     1      47.361   9.792  20.085  0.00  0.00    +0.000 A 
ATOM     27  N   UNL     1      47.812  10.024  18.811  0.00  0.00    +0.000 N 
ATOM     28  C   UNL     1      48.243   9.019  17.985  0.00  0.00    +0.000 A 
ATOM     29  O   UNL     1      48.722   9.278  16.886  0.00  0.00    +0.000 OA
ATOM     30  C   UNL     1      48.128   7.685  18.536  0.00  0.00    +0.000 A 
ATOM     31  H   UNL     1      47.893  10.962  18.448  0.00  0.00    +0.000 HD
ENDBRANCH  18  21
ENDBRANCH   2  17
TORSDOF 6
ENDMDL
MODEL 5
REMARK VINA RESULT:    -7.475      2.753      4.410
REMARK INTER + INTRA:         -11.164
REMARK INTER:                  -9.890
REMARK INTRA:                  -1.273
REMARK UNBOUND:                -1.066
REMARK  Name = 
REMARK  7 active torsions:
REMARK  status: ('A' for Active; 'I' for Inactive)
REMARK    1  A    between atoms: C_1  and  C_2
REMARK    2  A    between atoms: C_2  and  N_3
REMARK    3  A    between atoms: C_2  and  C_16
REMARK    4  A    between atoms: C_4  and  C_6
REMARK    5  A    between atoms: C_19  and  O_20
REMARK    6  A    between atoms: O_20  and  C_21
REMARK    7  A    between atoms: C_21  and  C_22
REMARK                            x       y       z     vdW  Elec       q    Type
REMARK                         _______ _______ _______ _____ _____    ______ ____
ROOT
ATOM      1  C   UNL     1      47.398   4.592  15.320  0.00  0.00    +0.000 C 
ATOM      2  C   UNL     1      47.273   5.808  14.398  0.00  0.00    +0.000 C 
ENDROOT
BRANCH   2   3
ATOM      3  C   UNL     1      46.461   5.448  13.160  0.00  0.00    +0.000 A 
ATOM      4  C   UNL     1      45.907   4.161  13.088  0.00  0.00    +0.000 A 
ATOM      5  C   UNL     1      45.211   3.727  11.955  0.00  0.00    +0.000 A 
ATOM      6  C   UNL     1      45.035   4.583  10.871  0.00  0.00    +0.000 A 
ATOM      7  C   UNL     1      45.573   5.869  10.928  0.00  0.00    +0.000 A 
ATOM      8  C   UNL     1      46.289   6.296  12.054  0.00  0.00    +0.000 A 
BRANCH   6   9
ATOM      9  O   UNL     1      44.421   4.247   9.698  0.00  0.00    +0.000 OA
BRANCH   9  10
ATOM     10  C   UNL     1      44.413   2.850   9.376  0.00  0.00    +0.000 C 
BRANCH  10  11
ATOM     11  C   UNL     1      45.511   2.506   8.388  0.00  0.00    +0.000 A 
ATOM     12  C   UNL     1      45.944   3.432   7.440  0.00  0.00    +0.000 A 
ATOM     13  C   UNL     1      46.913   3.053   6.517  0.00  0.00    +0.000 A 
ATOM     14  C   UNL     1      47.421   1.762   6.552  0.00  0.00    +0.000 A 
ATOM     15  C   UNL     1      46.940   0.898   7.521  0.00  0.00    +0.000 A 
ATOM     16  N   UNL     1      45.998   1.237   8.430  0.00  0.00    +0.000 NA
ENDBRANCH  10  11
ENDBRANCH   9  10
ENDBRANCH   6   9
ENDBRANCH   2   3
BRANCH   2  17
ATOM     17  N   UNL     1      48.575   6.357  14.087  0.00  0.00    +0.000 N 
ATOM     18  C   UNL     1      49.095   7.454  14.738  0.00  0.00    +0.000 C 
ATOM     19  O   UNL     1      48.479   8.059  15.606  0.00  0.00    +0.000 OA
ATOM     20  H   UNL     1      49.046   6.012  13.264  0.00  0.00    +0.000 HD
BRANCH  18  21
ATOM     21  C   UNL     1      50.461   7.833  14.363  0.00  0.00    +0.000 A 
ATOM     22  C   UNL     1      51.478   7.806  15.308  0.00  0.00    +0.000 A 
ATOM     23  S   UNL     1      52.998   8.279  14.692  0.00  0.00    +0.000 S 
ATOM     24  C   UNL     1      52.343   8.567  13.147  0.00  0.00    +0.000 A 
ATOM     25  N   UNL     1      53.117   9.033  12.130  0.00  0.00    +0.000 NA
ATOM     26  C   UNL     1      52.487   9.219  11.018  0.00  0.00    +0.000 A 
ATOM     27  N   UNL     1      51.153   8.972  10.827  0.00  0.00    +0.000 N 
ATOM     28  C   UNL     1      50.346   8.468  11.814  0.00  0.00    +0.000 A 
ATOM     29  O   UNL     1      49.178   8.177  11.576  0.00  0.00    +0.000 OA
ATOM     30  C   UNL     1      50.995   8.273  13.093  0.00  0.00    +0.000 A 
ATOM     31  H   UNL     1      50.720   9.105   9.926  0.00  0.00    +0.000 HD
ENDBRANCH  18  21
ENDBRANCH   2  17
TORSDOF 6
ENDMDL
MODEL 6
REMARK VINA RESULT:    -7.177      3.261      4.582
REMARK INTER + INTRA:         -10.760
REMARK INTER:                  -9.674
REMARK INTRA:                  -1.086
REMARK UNBOUND:                -1.066
REMARK  Name = 
REMARK  7 active torsions:
REMARK  status: ('A' for Active; 'I' for Inactive)
REMARK    1  A    between atoms: C_1  and  C_2
REMARK    2  A    between atoms: C_2  and  N_3
REMARK    3  A    between atoms: C_2  and  C_16
REMARK    4  A    between atoms: C_4  and  C_6
REMARK    5  A    between atoms: C_19  and  O_20
REMARK    6  A    between atoms: O_20  and  C_21
REMARK    7  A    between atoms: C_21  and  C_22
REMARK                            x       y       z     vdW  Elec       q    Type
REMARK                         _______ _______ _______ _____ _____    ______ ____
ROOT
ATOM      1  C   UNL     1      47.174   3.602  17.279  0.00  0.00    +0.000 C 
ATOM      2  C   UNL     1      48.059   4.783  16.871  0.00  0.00    +0.000 C 
ENDROOT
BRANCH   2   3
ATOM      3  C   UNL     1      47.702   5.245  15.464  0.00  0.00    +0.000 A 
ATOM      4  C   UNL     1      46.791   4.472  14.728  0.00  0.00    +0.000 A 
ATOM      5  C   UNL     1      46.467   4.787  13.405  0.00  0.00    +0.000 A 
ATOM      6  C   UNL     1      47.035   5.900  12.791  0.00  0.00    +0.000 A 
ATOM      7  C   UNL     1      47.937   6.684  13.509  0.00  0.00    +0.000 A 
ATOM      8  C   UNL     1      48.279   6.357  14.828  0.00  0.00    +0.000 A 
BRANCH   6   9
ATOM      9  O   UNL     1      46.832   6.268  11.490  0.00  0.00    +0.000 OA
BRANCH   9  10
ATOM     10  C   UNL     1      45.482   6.170  11.019  0.00  0.00    +0.000 C 
BRANCH  10  11
ATOM     11  C   UNL     1      45.340   5.077   9.977  0.00  0.00    +0.000 A 
ATOM     12  C   UNL     1      44.574   3.939  10.226  0.00  0.00    +0.000 A 
ATOM     13  C   UNL     1      44.519   2.936   9.264  0.00  0.00    +0.000 A 
ATOM     14  C   UNL     1      45.234   3.083   8.083  0.00  0.00    +0.000 A 
ATOM     15  C   UNL     1      45.975   4.239   7.909  0.00  0.00    +0.000 A 
ATOM     16  N   UNL     1      46.049   5.231   8.827  0.00  0.00    +0.000 NA
ENDBRANCH  10  11
ENDBRANCH   9  10
ENDBRANCH   6   9
ENDBRANCH   2   3
BRANCH   2  17
ATOM     17  N   UNL     1      49.460   4.457  17.027  0.00  0.00    +0.000 N 
ATOM     18  C   UNL     1      50.106   4.515  18.243  0.00  0.00    +0.000 C 
ATOM     19  O   UNL     1      49.546   4.874  19.271  0.00  0.00    +0.000 OA
ATOM     20  H   UNL     1      50.009   4.330  16.190  0.00  0.00    +0.000 HD
BRANCH  18  21
ATOM     21  C   UNL     1      51.504   4.073  18.245  0.00  0.00    +0.000 A 
ATOM     22  C   UNL     1      52.512   4.945  18.637  0.00  0.00    +0.000 A 
ATOM     23  S   UNL     1      54.074   4.259  18.575  0.00  0.00    +0.000 S 
ATOM     24  C   UNL     1      53.461   2.782  17.992  0.00  0.00    +0.000 A 
ATOM     25  N   UNL     1      54.290   1.745  17.691  0.00  0.00    +0.000 NA
ATOM     26  C   UNL     1      53.690   0.691  17.246  0.00  0.00    +0.000 A 
ATOM     27  N   UNL     1      52.335   0.575  17.083  0.00  0.00    +0.000 N 
ATOM     28  C   UNL     1      51.462   1.580  17.409  0.00  0.00    +0.000 A 
ATOM     29  O   UNL     1      50.251   1.404  17.332  0.00  0.00    +0.000 OA
ATOM     30  C   UNL     1      52.085   2.799  17.881  0.00  0.00    +0.000 A 
ATOM     31  H   UNL     1      51.918  -0.285  16.761  0.00  0.00    +0.000 HD
ENDBRANCH  18  21
ENDBRANCH   2  17
TORSDOF 6
ENDMDL
MODEL 7
REMARK VINA RESULT:    -7.158      3.404      8.105
REMARK INTER + INTRA:         -10.736
REMARK INTER:                  -9.581
REMARK INTRA:                  -1.154
REMARK UNBOUND:                -1.066
REMARK  Name = 
REMARK  7 active torsions:
REMARK  status: ('A' for Active; 'I' for Inactive)
REMARK    1  A    between atoms: C_1  and  C_2
REMARK    2  A    between atoms: C_2  and  N_3
REMARK    3  A    between atoms: C_2  and  C_16
REMARK    4  A    between atoms: C_4  and  C_6
REMARK    5  A    between atoms: C_19  and  O_20
REMARK    6  A    between atoms: O_20  and  C_21
REMARK    7  A    between atoms: C_21  and  C_22
REMARK                            x       y       z     vdW  Elec       q    Type
REMARK                         _______ _______ _______ _____ _____    ______ ____
ROOT
ATOM      1  C   UNL     1      49.838   7.944  11.742  0.00  0.00    +0.000 C 
ATOM      2  C   UNL     1      48.614   7.629  12.607  0.00  0.00    +0.000 C 
ENDROOT
BRANCH   2   3
ATOM      3  C   UNL     1      49.049   7.263  14.020  0.00  0.00    +0.000 A 
ATOM      4  C   UNL     1      50.327   7.663  14.440  0.00  0.00    +0.000 A 
ATOM      5  C   UNL     1      50.830   7.304  15.694  0.00  0.00    +0.000 A 
ATOM      6  C   UNL     1      50.053   6.550  16.570  0.00  0.00    +0.000 A 
ATOM      7  C   UNL     1      48.777   6.149  16.173  0.00  0.00    +0.000 A 
ATOM      8  C   UNL     1      48.282   6.491  14.907  0.00  0.00    +0.000 A 
BRANCH   6   9
ATOM      9  O   UNL     1      50.463   6.099  17.793  0.00  0.00    +0.000 OA
BRANCH   9  10
ATOM     10  C   UNL     1      49.872   4.870  18.234  0.00  0.00    +0.000 C 
BRANCH  10  11
ATOM     11  C   UNL     1      50.810   3.698  18.017  0.00  0.00    +0.000 A 
ATOM     12  C   UNL     1      50.370   2.527  17.404  0.00  0.00    +0.000 A 
ATOM     13  C   UNL     1      51.250   1.456  17.278  0.00  0.00    +0.000 A 
ATOM     14  C   UNL     1      52.542   1.574  17.771  0.00  0.00    +0.000 A 
ATOM     15  C   UNL     1      52.905   2.768  18.370  0.00  0.00    +0.000 A 
ATOM     16  N   UNL     1      52.072   3.824  18.509  0.00  0.00    +0.000 NA
ENDBRANCH  10  11
ENDBRANCH   9  10
ENDBRANCH   6   9
ENDBRANCH   2   3
BRANCH   2  17
ATOM     17  N   UNL     1      47.787   6.618  11.984  0.00  0.00    +0.000 N 
ATOM     18  C   UNL     1      46.482   6.852  11.609  0.00  0.00    +0.000 C 
ATOM     19  O   UNL     1      45.922   7.923  11.803  0.00  0.00    +0.000 OA
ATOM     20  H   UNL     1      48.137   5.672  11.964  0.00  0.00    +0.000 HD
BRANCH  18  21
ATOM     21  C   UNL     1      45.809   5.749  10.914  0.00  0.00    +0.000 A 
ATOM     22  C   UNL     1      45.886   5.644   9.532  0.00  0.00    +0.000 A 
ATOM     23  S   UNL     1      45.043   4.302   8.899  0.00  0.00    +0.000 S 
ATOM     24  C   UNL     1      44.518   3.832  10.448  0.00  0.00    +0.000 A 
ATOM     25  N   UNL     1      43.710   2.751  10.621  0.00  0.00    +0.000 NA
ATOM     26  C   UNL     1      43.379   2.519  11.848  0.00  0.00    +0.000 A 
ATOM     27  N   UNL     1      43.790   3.265  12.921  0.00  0.00    +0.000 N 
ATOM     28  C   UNL     1      44.632   4.339  12.796  0.00  0.00    +0.000 A 
ATOM     29  O   UNL     1      45.048   4.926  13.790  0.00  0.00    +0.000 OA
ATOM     30  C   UNL     1      45.008   4.664  11.436  0.00  0.00    +0.000 A 
ATOM     31  H   UNL     1      43.525   3.018  13.862  0.00  0.00    +0.000 HD
ENDBRANCH  18  21
ENDBRANCH   2  17
TORSDOF 6
ENDMDL
MODEL 8
REMARK VINA RESULT:    -7.125      3.064      8.453
REMARK INTER + INTRA:         -10.691
REMARK INTER:                  -9.489
REMARK INTRA:                  -1.202
REMARK UNBOUND:                -1.066
REMARK  Name = 
REMARK  7 active torsions:
REMARK  status: ('A' for Active; 'I' for Inactive)
REMARK    1  A    between atoms: C_1  and  C_2
REMARK    2  A    between atoms: C_2  and  N_3
REMARK    3  A    between atoms: C_2  and  C_16
REMARK    4  A    between atoms: C_4  and  C_6
REMARK    5  A    between atoms: C_19  and  O_20
REMARK    6  A    between atoms: O_20  and  C_21
REMARK    7  A    between atoms: C_21  and  C_22
REMARK                            x       y       z     vdW  Elec       q    Type
REMARK                         _______ _______ _______ _____ _____    ______ ____
ROOT
ATOM      1  C   UNL     1      48.735   7.736  11.592  0.00  0.00    +0.000 C 
ATOM      2  C   UNL     1      47.782   7.303  12.710  0.00  0.00    +0.000 C 
ENDROOT
BRANCH   2   3
ATOM      3  C   UNL     1      48.560   7.054  13.996  0.00  0.00    +0.000 A 
ATOM      4  C   UNL     1      49.851   7.593  14.100  0.00  0.00    +0.000 A 
ATOM      5  C   UNL     1      50.658   7.349  15.215  0.00  0.00    +0.000 A 
ATOM      6  C   UNL     1      50.180   6.572  16.268  0.00  0.00    +0.000 A 
ATOM      7  C   UNL     1      48.897   6.034  16.185  0.00  0.00    +0.000 A 
ATOM      8  C   UNL     1      48.096   6.261  15.057  0.00  0.00    +0.000 A 
BRANCH   6   9
ATOM      9  O   UNL     1      50.899   6.227  17.377  0.00  0.00    +0.000 OA
BRANCH   9  10
ATOM     10  C   UNL     1      50.340   5.180  18.181  0.00  0.00    +0.000 C 
BRANCH  10  11
ATOM     11  C   UNL     1      51.095   3.879  17.996  0.00  0.00    +0.000 A 
ATOM     12  C   UNL     1      50.482   2.764  17.426  0.00  0.00    +0.000 A 
ATOM     13  C   UNL     1      51.196   1.574  17.329  0.00  0.00    +0.000 A 
ATOM     14  C   UNL     1      52.498   1.519  17.808  0.00  0.00    +0.000 A 
ATOM     15  C   UNL     1      53.038   2.665  18.364  0.00  0.00    +0.000 A 
ATOM     16  N   UNL     1      52.368   3.835  18.474  0.00  0.00    +0.000 NA
ENDBRANCH  10  11
ENDBRANCH   9  10
ENDBRANCH   6   9
ENDBRANCH   2   3
BRANCH   2  17
ATOM     17  N   UNL     1      46.982   6.171  12.298  0.00  0.00    +0.000 N 
ATOM     18  C   UNL     1      45.604   6.189  12.312  0.00  0.00    +0.000 C 
ATOM     19  O   UNL     1      44.961   7.155  12.702  0.00  0.00    +0.000 OA
ATOM     20  H   UNL     1      47.455   5.294  12.139  0.00  0.00    +0.000 HD
BRANCH  18  21
ATOM     21  C   UNL     1      44.944   4.991  11.784  0.00  0.00    +0.000 A 
ATOM     22  C   UNL     1      44.140   4.215  12.610  0.00  0.00    +0.000 A 
ATOM     23  S   UNL     1      43.456   2.862  11.826  0.00  0.00    +0.000 S 
ATOM     24  C   UNL     1      44.236   3.247  10.363  0.00  0.00    +0.000 A 
ATOM     25  N   UNL     1      44.101   2.457   9.263  0.00  0.00    +0.000 NA
ATOM     26  C   UNL     1      44.759   2.862   8.228  0.00  0.00    +0.000 A 
ATOM     27  N   UNL     1      45.534   3.992   8.189  0.00  0.00    +0.000 N 
ATOM     28  C   UNL     1      45.667   4.834   9.261  0.00  0.00    +0.000 A 
ATOM     29  O   UNL     1      46.297   5.882   9.157  0.00  0.00    +0.000 OA
ATOM     30  C   UNL     1      44.977   4.409  10.460  0.00  0.00    +0.000 A 
ATOM     31  H   UNL     1      46.000   4.277   7.341  0.00  0.00    +0.000 HD
ENDBRANCH  18  21
ENDBRANCH   2  17
TORSDOF 6
ENDMDL
MODEL 9
REMARK VINA RESULT:    -7.089      2.468      3.675
REMARK INTER + INTRA:         -10.641
REMARK INTER:                  -9.480
REMARK INTRA:                  -1.161
REMARK UNBOUND:                -1.066
REMARK  Name = 
REMARK  7 active torsions:
REMARK  status: ('A' for Active; 'I' for Inactive)
REMARK    1  A    between atoms: C_1  and  C_2
REMARK    2  A    between atoms: C_2  and  N_3
REMARK    3  A    between atoms: C_2  and  C_16
REMARK    4  A    between atoms: C_4  and  C_6
REMARK    5  A    between atoms: C_19  and  O_20
REMARK    6  A    between atoms: O_20  and  C_21
REMARK    7  A    between atoms: C_21  and  C_22
REMARK                            x       y       z     vdW  Elec       q    Type
REMARK                         _______ _______ _______ _____ _____    ______ ____
ROOT
ATOM      1  C   UNL     1      47.910   3.046  15.767  0.00  0.00    +0.000 C 
ATOM      2  C   UNL     1      47.176   4.389  15.721  0.00  0.00    +0.000 C 
ENDROOT
BRANCH   2   3
ATOM      3  C   UNL     1      46.705   4.683  14.303  0.00  0.00    +0.000 A 
ATOM      4  C   UNL     1      47.309   5.746  13.615  0.00  0.00    +0.000 A 
ATOM      5  C   UNL     1      46.884   6.126  12.338  0.00  0.00    +0.000 A 
ATOM      6  C   UNL     1      45.853   5.434  11.709  0.00  0.00    +0.000 A 
ATOM      7  C   UNL     1      45.246   4.369  12.374  0.00  0.00    +0.000 A 
ATOM      8  C   UNL     1      45.657   4.001  13.662  0.00  0.00    +0.000 A 
BRANCH   6   9
ATOM      9  O   UNL     1      45.324   5.752  10.489  0.00  0.00    +0.000 OA
BRANCH   9  10
ATOM     10  C   UNL     1      44.467   4.762   9.905  0.00  0.00    +0.000 C 
BRANCH  10  11
ATOM     11  C   UNL     1      45.236   3.855   8.964  0.00  0.00    +0.000 A 
ATOM     12  C   UNL     1      45.242   2.472   9.140  0.00  0.00    +0.000 A 
ATOM     13  C   UNL     1      46.008   1.684   8.287  0.00  0.00    +0.000 A 
ATOM     14  C   UNL     1      46.754   2.290   7.285  0.00  0.00    +0.000 A 
ATOM     15  C   UNL     1      46.700   3.668   7.174  0.00  0.00    +0.000 A 
ATOM     16  N   UNL     1      45.966   4.460   7.989  0.00  0.00    +0.000 NA
ENDBRANCH  10  11
ENDBRANCH   9  10
ENDBRANCH   6   9
ENDBRANCH   2   3
BRANCH   2  17
ATOM     17  N   UNL     1      47.994   5.444  16.281  0.00  0.00    +0.000 N 
ATOM     18  C   UNL     1      47.967   5.775  17.618  0.00  0.00    +0.000 C 
ATOM     19  O   UNL     1      47.228   5.219  18.421  0.00  0.00    +0.000 OA
ATOM     20  H   UNL     1      48.484   6.049  15.639  0.00  0.00    +0.000 HD
BRANCH  18  21
ATOM     21  C   UNL     1      48.917   6.810  18.039  0.00  0.00    +0.000 A 
ATOM     22  C   UNL     1      48.460   7.973  18.646  0.00  0.00    +0.000 A 
ATOM     23  S   UNL     1      49.705   9.062  19.066  0.00  0.00    +0.000 S 
ATOM     24  C   UNL     1      50.897   8.031  18.423  0.00  0.00    +0.000 A 
ATOM     25  N   UNL     1      52.212   8.384  18.429  0.00  0.00    +0.000 NA
ATOM     26  C   UNL     1      53.003   7.513  17.897  0.00  0.00    +0.000 A 
ATOM     27  N   UNL     1      52.602   6.315  17.367  0.00  0.00    +0.000 N 
ATOM     28  C   UNL     1      51.294   5.904  17.375  0.00  0.00    +0.000 A 
ATOM     29  O   UNL     1      50.989   4.787  16.972  0.00  0.00    +0.000 OA
ATOM     30  C   UNL     1      50.358   6.860  17.929  0.00  0.00    +0.000 A 
ATOM     31  H   UNL     1      53.270   5.658  16.994  0.00  0.00    +0.000 HD
ENDBRANCH  18  21
ENDBRANCH   2  17
TORSDOF 6
ENDMDL
