MODEL 1
REMARK VINA RESULT:    -8.787      0.000      0.000
REMARK INTER + INTRA:         -12.095
REMARK INTER:                 -11.869
REMARK INTRA:                  -0.226
REMARK UNBOUND:                -0.226
REMARK  Name = 
REMARK  7 active torsions:
REMARK  status: ('A' for Active; 'I' for Inactive)
REMARK    1  A    between atoms: C_1  and  O_2
REMARK    2  A    between atoms: O_2  and  C_3
REMARK    3  A    between atoms: C_6  and  C_7
REMARK    4  A    between atoms: C_7  and  N_8
REMARK    5  A    between atoms: C_11  and  C_12
REMARK    6  A    between atoms: C_12  and  N_13
REMARK    7  A    between atoms: C_14  and  C_16
REMARK                            x       y       z     vdW  Elec       q    Type
REMARK                         _______ _______ _______ _____ _____    ______ ____
ROOT
ATOM      1  C   UNL     1      46.078   4.755  14.021  0.00  0.00    +0.000 C 
ENDROOT
BRANCH   1   5
ATOM      2  N   UNL     1      44.321   5.050  10.731  0.00  0.00    +0.000 NA
ATOM      3  C   UNL     1      43.627   5.173  12.023  0.00  0.00    +0.000 C 
ATOM      4  C   UNL     1      44.245   6.222  12.948  0.00  0.00    +0.000 C 
ATOM      5  C   UNL     1      45.744   6.004  13.182  0.00  0.00    +0.000 C 
ATOM      6  C   UNL     1      46.421   5.948  11.806  0.00  0.00    +0.000 C 
ATOM      7  C   UNL     1      45.782   4.920  10.867  0.00  0.00    +0.000 C 
BRANCH   2   8
ATOM      8  C   UNL     1      43.795   3.905   9.951  0.00  0.00    +0.000 C 
BRANCH   8  12
ATOM      9  C   UNL     1      46.666   2.003   7.450  0.00  0.00    +0.000 A 
ATOM     10  C   UNL     1      46.397   3.345   7.219  0.00  0.00    +0.000 A 
ATOM     11  C   UNL     1      45.450   3.979   8.027  0.00  0.00    +0.000 A 
ATOM     12  C   UNL     1      44.799   3.257   9.030  0.00  0.00    +0.000 A 
ATOM     13  C   UNL     1      45.150   1.917   9.177  0.00  0.00    +0.000 A 
ATOM     14  N   UNL     1      46.064   1.275   8.411  0.00  0.00    +0.000 NA
BRANCH   9  16
ATOM     15  C   UNL     1      47.953   2.233   5.513  0.00  0.00    +0.000 C 
ATOM     16  O   UNL     1      47.615   1.420   6.634  0.00  0.00    +0.000 OA
ENDBRANCH   9  16
ENDBRANCH   8  12
ENDBRANCH   2   8
ENDBRANCH   1   5
BRANCH   1  17
ATOM     17  N   UNL     1      47.234   4.932  14.879  0.00  0.00    +0.000 N 
ATOM     18  C   UNL     1      47.333   4.354  16.123  0.00  0.00    +0.000 C 
ATOM     19  O   UNL     1      46.469   3.606  16.569  0.00  0.00    +0.000 OA
ATOM     20  H   UNL     1      47.883   5.671  14.632  0.00  0.00    +0.000 HD
BRANCH  18  21
ATOM     21  C   UNL     1      48.567   4.629  16.873  0.00  0.00    +0.000 A 
ATOM     22  C   UNL     1      48.780   5.892  17.409  0.00  0.00    +0.000 A 
ATOM     23  S   UNL     1      50.237   6.027  18.286  0.00  0.00    +0.000 S 
ATOM     24  C   UNL     1      50.662   4.417  17.932  0.00  0.00    +0.000 A 
ATOM     25  N   UNL     1      51.834   3.890  18.376  0.00  0.00    +0.000 NA
ATOM     26  C   UNL     1      52.052   2.676  17.996  0.00  0.00    +0.000 A 
ATOM     27  N   UNL     1      51.199   1.939  17.216  0.00  0.00    +0.000 N 
ATOM     28  C   UNL     1      49.981   2.412  16.784  0.00  0.00    +0.000 A 
ATOM     29  O   UNL     1      49.206   1.699  16.154  0.00  0.00    +0.000 OA
ATOM     30  C   UNL     1      49.699   3.782  17.167  0.00  0.00    +0.000 A 
ATOM     31  H   UNL     1      51.425   0.988  16.963  0.00  0.00    +0.000 HD
ENDBRANCH  18  21
ENDBRANCH   1  17
TORSDOF 6
ENDMDL
MODEL 2
REMARK VINA RESULT:    -8.372      1.794      2.191
REMARK INTER + INTRA:         -11.535
REMARK INTER:                 -11.403
REMARK INTRA:                  -0.132
REMARK UNBOUND:                -0.226
REMARK  Name = 
REMARK  7 active torsions:
REMARK  status: ('A' for Active; 'I' for Inactive)
REMARK    1  A    between atoms: C_1  and  O_2
REMARK    2  A    between atoms: O_2  and  C_3
REMARK    3  A    between atoms: C_6  and  C_7
REMARK    4  A    between atoms: C_7  and  N_8
REMARK    5  A    between atoms: C_11  and  C_12
REMARK    6  A    between atoms: C_12  and  N_13
REMARK    7  A    between atoms: C_14  and  C_16
REMARK                            x       y       z     vdW  Elec       q    Type
REMARK                         _______ _______ _______ _____ _____    ______ ____
ROOT
ATOM      1  C   UNL     1      46.534   5.007  13.553  0.00  0.00    +0.000 C 
ENDROOT
BRANCH   1   5
ATOM      2  N   UNL     1      44.257   5.093  10.585  0.00  0.00    +0.000 NA
ATOM      3  C   UNL     1      43.763   5.055  11.971  0.00  0.00    +0.000 C 
ATOM      4  C   UNL     1      44.337   6.167  12.851  0.00  0.00    +0.000 C 
ATOM      5  C   UNL     1      45.869   6.204  12.845  0.00  0.00    +0.000 C 
ATOM      6  C   UNL     1      46.321   6.308  11.383  0.00  0.00    +0.000 C 
ATOM      7  C   UNL     1      45.721   5.213  10.493  0.00  0.00    +0.000 C 
BRANCH   2   8
ATOM      8  C   UNL     1      43.812   3.898   9.830  0.00  0.00    +0.000 C 
BRANCH   8  12
ATOM      9  C   UNL     1      46.836   2.082   7.448  0.00  0.00    +0.000 A 
ATOM     10  C   UNL     1      46.538   3.415   7.206  0.00  0.00    +0.000 A 
ATOM     11  C   UNL     1      45.542   4.021   7.974  0.00  0.00    +0.000 A 
ATOM     12  C   UNL     1      44.871   3.280   8.950  0.00  0.00    +0.000 A 
ATOM     13  C   UNL     1      45.254   1.951   9.113  0.00  0.00    +0.000 A 
ATOM     14  N   UNL     1      46.216   1.336   8.384  0.00  0.00    +0.000 NA
BRANCH   9  16
ATOM     15  C   UNL     1      48.044   2.236   5.454  0.00  0.00    +0.000 C 
ATOM     16  O   UNL     1      47.834   1.526   6.671  0.00  0.00    +0.000 OA
ENDBRANCH   9  16
ENDBRANCH   8  12
ENDBRANCH   2   8
ENDBRANCH   1   5
BRANCH   1  17
ATOM     17  N   UNL     1      47.131   5.353  14.828  0.00  0.00    +0.000 N 
ATOM     18  C   UNL     1      47.592   4.408  15.715  0.00  0.00    +0.000 C 
ATOM     19  O   UNL     1      47.575   3.207  15.462  0.00  0.00    +0.000 OA
ATOM     20  H   UNL     1      47.008   6.306  15.152  0.00  0.00    +0.000 HD
BRANCH  18  21
ATOM     21  C   UNL     1      48.170   4.917  16.967  0.00  0.00    +0.000 A 
ATOM     22  C   UNL     1      47.709   4.436  18.185  0.00  0.00    +0.000 A 
ATOM     23  S   UNL     1      48.517   5.097  19.533  0.00  0.00    +0.000 S 
ATOM     24  C   UNL     1      49.475   6.092  18.539  0.00  0.00    +0.000 A 
ATOM     25  N   UNL     1      50.387   6.947  19.076  0.00  0.00    +0.000 NA
ATOM     26  C   UNL     1      51.010   7.675  18.212  0.00  0.00    +0.000 A 
ATOM     27  N   UNL     1      50.809   7.621  16.857  0.00  0.00    +0.000 N 
ATOM     28  C   UNL     1      49.935   6.739  16.265  0.00  0.00    +0.000 A 
ATOM     29  O   UNL     1      49.836   6.660  15.043  0.00  0.00    +0.000 OA
ATOM     30  C   UNL     1      49.192   5.912  17.196  0.00  0.00    +0.000 A 
ATOM     31  H   UNL     1      51.340   8.212  16.234  0.00  0.00    +0.000 HD
ENDBRANCH  18  21
ENDBRANCH   1  17
TORSDOF 6
ENDMDL
MODEL 3
REMARK VINA RESULT:    -7.829      2.012      2.590
REMARK INTER + INTRA:         -10.801
REMARK INTER:                 -10.416
REMARK INTRA:                  -0.385
REMARK UNBOUND:                -0.226
REMARK  Name = 
REMARK  7 active torsions:
REMARK  status: ('A' for Active; 'I' for Inactive)
REMARK    1  A    between atoms: C_1  and  O_2
REMARK    2  A    between atoms: O_2  and  C_3
REMARK    3  A    between atoms: C_6  and  C_7
REMARK    4  A    between atoms: C_7  and  N_8
REMARK    5  A    between atoms: C_11  and  C_12
REMARK    6  A    between atoms: C_12  and  N_13
REMARK    7  A    between atoms: C_14  and  C_16
REMARK                            x       y       z     vdW  Elec       q    Type
REMARK                         _______ _______ _______ _____ _____    ______ ____
ROOT
ATOM      1  C   UNL     1      46.161   6.291  13.040  0.00  0.00    +0.000 C 
ENDROOT
BRANCH   1   5
ATOM      2  N   UNL     1      43.980   3.988  11.055  0.00  0.00    +0.000 NA
ATOM      3  C   UNL     1      45.375   3.670  11.401  0.00  0.00    +0.000 C 
ATOM      4  C   UNL     1      45.667   3.761  12.900  0.00  0.00    +0.000 C 
ATOM      5  C   UNL     1      45.277   5.115  13.502  0.00  0.00    +0.000 C 
ATOM      6  C   UNL     1      43.801   5.362  13.165  0.00  0.00    +0.000 C 
ATOM      7  C   UNL     1      43.501   5.239  11.667  0.00  0.00    +0.000 C 
BRANCH   2   8
ATOM      8  C   UNL     1      43.799   4.057   9.586  0.00  0.00    +0.000 C 
BRANCH   8  12
ATOM      9  C   UNL     1      46.804   1.945   7.436  0.00  0.00    +0.000 A 
ATOM     10  C   UNL     1      46.637   3.293   7.155  0.00  0.00    +0.000 A 
ATOM     11  C   UNL     1      45.648   3.996   7.847  0.00  0.00    +0.000 A 
ATOM     12  C   UNL     1      44.856   3.334   8.788  0.00  0.00    +0.000 A 
ATOM     13  C   UNL     1      45.114   1.981   8.995  0.00  0.00    +0.000 A 
ATOM     14  N   UNL     1      46.065   1.273   8.341  0.00  0.00    +0.000 NA
BRANCH   9  16
ATOM     15  C   UNL     1      48.308   2.064   5.652  0.00  0.00    +0.000 C 
ATOM     16  O   UNL     1      47.799   1.291   6.735  0.00  0.00    +0.000 OA
ENDBRANCH   9  16
ENDBRANCH   8  12
ENDBRANCH   2   8
ENDBRANCH   1   5
BRANCH   1  17
ATOM     17  N   UNL     1      47.102   6.734  14.051  0.00  0.00    +0.000 N 
ATOM     18  C   UNL     1      48.465   6.688  13.869  0.00  0.00    +0.000 C 
ATOM     19  O   UNL     1      48.975   6.316  12.817  0.00  0.00    +0.000 OA
ATOM     20  H   UNL     1      46.740   6.880  14.986  0.00  0.00    +0.000 HD
BRANCH  18  21
ATOM     21  C   UNL     1      49.287   7.171  14.988  0.00  0.00    +0.000 A 
ATOM     22  C   UNL     1      50.024   8.339  14.847  0.00  0.00    +0.000 A 
ATOM     23  S   UNL     1      50.883   8.781  16.252  0.00  0.00    +0.000 S 
ATOM     24  C   UNL     1      50.345   7.397  17.082  0.00  0.00    +0.000 A 
ATOM     25  N   UNL     1      50.741   7.149  18.359  0.00  0.00    +0.000 NA
ATOM     26  C   UNL     1      50.297   6.042  18.851  0.00  0.00    +0.000 A 
ATOM     27  N   UNL     1      49.486   5.161  18.182  0.00  0.00    +0.000 N 
ATOM     28  C   UNL     1      49.021   5.392  16.908  0.00  0.00    +0.000 A 
ATOM     29  O   UNL     1      48.233   4.622  16.367  0.00  0.00    +0.000 OA
ATOM     30  C   UNL     1      49.511   6.615  16.302  0.00  0.00    +0.000 A 
ATOM     31  H   UNL     1      49.164   4.316  18.630  0.00  0.00    +0.000 HD
ENDBRANCH  18  21
ENDBRANCH   1  17
TORSDOF 6
ENDMDL
MODEL 4
REMARK VINA RESULT:    -7.514      2.156      3.229
REMARK INTER + INTRA:         -10.375
REMARK INTER:                  -9.746
REMARK INTRA:                  -0.629
REMARK UNBOUND:                -0.226
REMARK  Name = 
REMARK  7 active torsions:
REMARK  status: ('A' for Active; 'I' for Inactive)
REMARK    1  A    between atoms: C_1  and  O_2
REMARK    2  A    between atoms: O_2  and  C_3
REMARK    3  A    between atoms: C_6  and  C_7
REMARK    4  A    between atoms: C_7  and  N_8
REMARK    5  A    between atoms: C_11  and  C_12
REMARK    6  A    between atoms: C_12  and  N_13
REMARK    7  A    between atoms: C_14  and  C_16
REMARK                            x       y       z     vdW  Elec       q    Type
REMARK                         _______ _______ _______ _____ _____    ______ ____
ROOT
ATOM      1  C   UNL     1      48.706   7.134  15.653  0.00  0.00    +0.000 C 
ENDROOT
BRANCH   1   5
ATOM      2  N   UNL     1      46.552   7.310  12.599  0.00  0.00    +0.000 NA
ATOM      3  C   UNL     1      46.693   8.430  13.545  0.00  0.00    +0.000 C 
ATOM      4  C   UNL     1      48.147   8.835  13.794  0.00  0.00    +0.000 C 
ATOM      5  C   UNL     1      49.027   7.662  14.241  0.00  0.00    +0.000 C 
ATOM      6  C   UNL     1      48.888   6.556  13.188  0.00  0.00    +0.000 C 
ATOM      7  C   UNL     1      47.430   6.171  12.913  0.00  0.00    +0.000 C 
BRANCH   2   8
ATOM      8  C   UNL     1      45.147   6.846  12.532  0.00  0.00    +0.000 C 
BRANCH   8  12
ATOM      9  C   UNL     1      44.545   3.356  10.170  0.00  0.00    +0.000 A 
ATOM     10  C   UNL     1      45.131   4.455   9.559  0.00  0.00    +0.000 A 
ATOM     11  C   UNL     1      45.326   5.610  10.320  0.00  0.00    +0.000 A 
ATOM     12  C   UNL     1      44.926   5.635  11.658  0.00  0.00    +0.000 A 
ATOM     13  C   UNL     1      44.354   4.473  12.171  0.00  0.00    +0.000 A 
ATOM     14  N   UNL     1      44.152   3.339  11.459  0.00  0.00    +0.000 NA
BRANCH   9  16
ATOM     15  C   UNL     1      45.567   1.873   8.680  0.00  0.00    +0.000 C 
ATOM     16  O   UNL     1      44.380   2.233   9.382  0.00  0.00    +0.000 OA
ENDBRANCH   9  16
ENDBRANCH   8  12
ENDBRANCH   2   8
ENDBRANCH   1   5
BRANCH   1  17
ATOM     17  N   UNL     1      49.789   6.366  16.238  0.00  0.00    +0.000 N 
ATOM     18  C   UNL     1      49.583   5.399  17.194  0.00  0.00    +0.000 C 
ATOM     19  O   UNL     1      48.460   5.086  17.580  0.00  0.00    +0.000 OA
ATOM     20  H   UNL     1      50.731   6.704  16.083  0.00  0.00    +0.000 HD
BRANCH  18  21
ATOM     21  C   UNL     1      50.781   4.708  17.690  0.00  0.00    +0.000 A 
ATOM     22  C   UNL     1      51.784   5.433  18.321  0.00  0.00    +0.000 A 
ATOM     23  S   UNL     1      53.079   4.472  18.874  0.00  0.00    +0.000 S 
ATOM     24  C   UNL     1      52.373   3.059  18.241  0.00  0.00    +0.000 A 
ATOM     25  N   UNL     1      52.995   1.855  18.355  0.00  0.00    +0.000 NA
ATOM     26  C   UNL     1      52.373   0.877  17.789  0.00  0.00    +0.000 A 
ATOM     27  N   UNL     1      51.179   0.992  17.125  0.00  0.00    +0.000 N 
ATOM     28  C   UNL     1      50.489   2.179  17.026  0.00  0.00    +0.000 A 
ATOM     29  O   UNL     1      49.384   2.233  16.493  0.00  0.00    +0.000 OA
ATOM     30  C   UNL     1      51.159   3.315  17.628  0.00  0.00    +0.000 A 
ATOM     31  H   UNL     1      50.738   0.182  16.713  0.00  0.00    +0.000 HD
ENDBRANCH  18  21
ENDBRANCH   1  17
TORSDOF 6
ENDMDL
MODEL 5
REMARK VINA RESULT:    -7.365      3.628      4.333
REMARK INTER + INTRA:         -10.174
REMARK INTER:                  -9.451
REMARK INTRA:                  -0.724
REMARK UNBOUND:                -0.226
REMARK  Name = 
REMARK  7 active torsions:
REMARK  status: ('A' for Active; 'I' for Inactive)
REMARK    1  A    between atoms: C_1  and  O_2
REMARK    2  A    between atoms: O_2  and  C_3
REMARK    3  A    between atoms: C_6  and  C_7
REMARK    4  A    between atoms: C_7  and  N_8
REMARK    5  A    between atoms: C_11  and  C_12
REMARK    6  A    between atoms: C_12  and  N_13
REMARK    7  A    between atoms: C_14  and  C_16
REMARK                            x       y       z     vdW  Elec       q    Type
REMARK                         _______ _______ _______ _____ _____    ______ ____
ROOT
ATOM      1  C   UNL     1      46.858   6.613  11.823  0.00  0.00    +0.000 C 
ENDROOT
BRANCH   1   5
ATOM      2  N   UNL     1      43.983   4.252  12.224  0.00  0.00    +0.000 NA
ATOM      3  C   UNL     1      45.380   3.862  12.475  0.00  0.00    +0.000 C 
ATOM      4  C   UNL     1      46.097   4.777  13.470  0.00  0.00    +0.000 C 
ATOM      5  C   UNL     1      46.033   6.256  13.075  0.00  0.00    +0.000 C 
ATOM      6  C   UNL     1      44.554   6.620  12.890  0.00  0.00    +0.000 C 
ATOM      7  C   UNL     1      43.826   5.684  11.918  0.00  0.00    +0.000 C 
BRANCH   2   8
ATOM      8  C   UNL     1      43.395   3.447  11.128  0.00  0.00    +0.000 C 
BRANCH   8  12
ATOM      9  C   UNL     1      45.830   3.102   7.654  0.00  0.00    +0.000 A 
ATOM     10  C   UNL     1      45.574   1.947   8.379  0.00  0.00    +0.000 A 
ATOM     11  C   UNL     1      44.783   2.048   9.526  0.00  0.00    +0.000 A 
ATOM     12  C   UNL     1      44.282   3.292   9.917  0.00  0.00    +0.000 A 
ATOM     13  C   UNL     1      44.597   4.384   9.111  0.00  0.00    +0.000 A 
ATOM     14  N   UNL     1      45.359   4.318   7.994  0.00  0.00    +0.000 NA
BRANCH   9  16
ATOM     15  C   UNL     1      47.920   2.481   6.813  0.00  0.00    +0.000 C 
ATOM     16  O   UNL     1      46.608   2.954   6.522  0.00  0.00    +0.000 OA
ENDBRANCH   9  16
ENDBRANCH   8  12
ENDBRANCH   2   8
ENDBRANCH   1   5
BRANCH   1  17
ATOM     17  N   UNL     1      48.212   7.035  12.129  0.00  0.00    +0.000 N 
ATOM     18  C   UNL     1      48.588   8.358  12.166  0.00  0.00    +0.000 C 
ATOM     19  O   UNL     1      47.789   9.273  11.993  0.00  0.00    +0.000 OA
ATOM     20  H   UNL     1      48.934   6.324  12.104  0.00  0.00    +0.000 HD
BRANCH  18  21
ATOM     21  C   UNL     1      49.997   8.625  12.489  0.00  0.00    +0.000 A 
ATOM     22  C   UNL     1      50.776   9.368  11.613  0.00  0.00    +0.000 A 
ATOM     23  S   UNL     1      52.370   9.623  12.161  0.00  0.00    +0.000 S 
ATOM     24  C   UNL     1      52.093   8.701  13.565  0.00  0.00    +0.000 A 
ATOM     25  N   UNL     1      53.082   8.499  14.476  0.00  0.00    +0.000 NA
ATOM     26  C   UNL     1      52.749   7.743  15.467  0.00  0.00    +0.000 A 
ATOM     27  N   UNL     1      51.512   7.176  15.634  0.00  0.00    +0.000 N 
ATOM     28  C   UNL     1      50.467   7.391  14.765  0.00  0.00    +0.000 A 
ATOM     29  O   UNL     1      49.349   6.932  14.985  0.00  0.00    +0.000 OA
ATOM     30  C   UNL     1      50.797   8.217  13.620  0.00  0.00    +0.000 A 
ATOM     31  H   UNL     1      51.314   6.602  16.440  0.00  0.00    +0.000 HD
ENDBRANCH  18  21
ENDBRANCH   1  17
TORSDOF 6
ENDMDL
MODEL 6
REMARK VINA RESULT:    -7.317      3.426      9.451
REMARK INTER + INTRA:         -10.109
REMARK INTER:                 -10.013
REMARK INTRA:                  -0.096
REMARK UNBOUND:                -0.226
REMARK  Name = 
REMARK  7 active torsions:
REMARK  status: ('A' for Active; 'I' for Inactive)
REMARK    1  A    between atoms: C_1  and  O_2
REMARK    2  A    between atoms: O_2  and  C_3
REMARK    3  A    between atoms: C_6  and  C_7
REMARK    4  A    between atoms: C_7  and  N_8
REMARK    5  A    between atoms: C_11  and  C_12
REMARK    6  A    between atoms: C_12  and  N_13
REMARK    7  A    between atoms: C_14  and  C_16
REMARK                            x       y       z     vdW  Elec       q    Type
REMARK                         _______ _______ _______ _____ _____    ______ ____
ROOT
ATOM      1  C   UNL     1      48.497   5.760  16.085  0.00  0.00    +0.000 C 
ENDROOT
BRANCH   1   5
ATOM      2  N   UNL     1      49.789   2.586  17.587  0.00  0.00    +0.000 NA
ATOM      3  C   UNL     1      50.365   3.908  17.889  0.00  0.00    +0.000 C 
ATOM      4  C   UNL     1      49.331   4.923  18.380  0.00  0.00    +0.000 C 
ATOM      5  C   UNL     1      48.145   5.079  17.422  0.00  0.00    +0.000 C 
ATOM      6  C   UNL     1      47.549   3.683  17.196  0.00  0.00    +0.000 C 
ATOM      7  C   UNL     1      48.590   2.657  16.736  0.00  0.00    +0.000 C 
BRANCH   2   8
ATOM      8  C   UNL     1      50.794   1.702  16.952  0.00  0.00    +0.000 C 
BRANCH   8  12
ATOM      9  C   UNL     1      54.484   1.400  19.053  0.00  0.00    +0.000 A 
ATOM     10  C   UNL     1      54.010   2.671  18.760  0.00  0.00    +0.000 A 
ATOM     11  C   UNL     1      52.805   2.784  18.063  0.00  0.00    +0.000 A 
ATOM     12  C   UNL     1      52.117   1.632  17.676  0.00  0.00    +0.000 A 
ATOM     13  C   UNL     1      52.681   0.408  18.027  0.00  0.00    +0.000 A 
ATOM     14  N   UNL     1      53.846   0.266  18.702  0.00  0.00    +0.000 NA
BRANCH   9  16
ATOM     15  C   UNL     1      55.666   2.138  20.929  0.00  0.00    +0.000 C 
ATOM     16  O   UNL     1      55.674   1.336  19.751  0.00  0.00    +0.000 OA
ENDBRANCH   9  16
ENDBRANCH   8  12
ENDBRANCH   2   8
ENDBRANCH   1   5
BRANCH   1  17
ATOM     17  N   UNL     1      47.411   5.733  15.124  0.00  0.00    +0.000 N 
ATOM     18  C   UNL     1      47.586   6.041  13.795  0.00  0.00    +0.000 C 
ATOM     19  O   UNL     1      48.687   6.309  13.323  0.00  0.00    +0.000 OA
ATOM     20  H   UNL     1      46.468   5.690  15.493  0.00  0.00    +0.000 HD
BRANCH  18  21
ATOM     21  C   UNL     1      46.388   5.969  12.947  0.00  0.00    +0.000 A 
ATOM     22  C   UNL     1      45.836   7.135  12.433  0.00  0.00    +0.000 A 
ATOM     23  S   UNL     1      44.480   6.869  11.434  0.00  0.00    +0.000 S 
ATOM     24  C   UNL     1      44.547   5.189  11.698  0.00  0.00    +0.000 A 
ATOM     25  N   UNL     1      43.632   4.356  11.134  0.00  0.00    +0.000 NA
ATOM     26  C   UNL     1      43.772   3.114  11.455  0.00  0.00    +0.000 A 
ATOM     27  N   UNL     1      44.749   2.628  12.285  0.00  0.00    +0.000 N 
ATOM     28  C   UNL     1      45.725   3.425  12.838  0.00  0.00    +0.000 A 
ATOM     29  O   UNL     1      46.632   2.948  13.513  0.00  0.00    +0.000 OA
ATOM     30  C   UNL     1      45.598   4.835  12.525  0.00  0.00    +0.000 A 
ATOM     31  H   UNL     1      44.809   1.641  12.487  0.00  0.00    +0.000 HD
ENDBRANCH  18  21
ENDBRANCH   1  17
TORSDOF 6
ENDMDL
MODEL 7
REMARK VINA RESULT:    -7.201      4.196      4.918
REMARK INTER + INTRA:          -9.952
REMARK INTER:                  -9.489
REMARK INTRA:                  -0.463
REMARK UNBOUND:                -0.226
REMARK  Name = 
REMARK  7 active torsions:
REMARK  status: ('A' for Active; 'I' for Inactive)
REMARK    1  A    between atoms: C_1  and  O_2
REMARK    2  A    between atoms: O_2  and  C_3
REMARK    3  A    between atoms: C_6  and  C_7
REMARK    4  A    between atoms: C_7  and  N_8
REMARK    5  A    between atoms: C_11  and  C_12
REMARK    6  A    between atoms: C_12  and  N_13
REMARK    7  A    between atoms: C_14  and  C_16
REMARK                            x       y       z     vdW  Elec       q    Type
REMARK                         _______ _______ _______ _____ _____    ______ ____
ROOT
ATOM      1  C   UNL     1      47.116   6.485  11.971  0.00  0.00    +0.000 C 
ENDROOT
BRANCH   1   5
ATOM      2  N   UNL     1      43.957   4.483  12.048  0.00  0.00    +0.000 NA
ATOM      3  C   UNL     1      45.236   3.981  12.577  0.00  0.00    +0.000 C 
ATOM      4  C   UNL     1      45.878   4.915  13.603  0.00  0.00    +0.000 C 
ATOM      5  C   UNL     1      46.056   6.345  13.081  0.00  0.00    +0.000 C 
ATOM      6  C   UNL     1      44.683   6.836  12.605  0.00  0.00    +0.000 C 
ATOM      7  C   UNL     1      44.024   5.884  11.601  0.00  0.00    +0.000 C 
BRANCH   2   8
ATOM      8  C   UNL     1      43.471   3.633  10.936  0.00  0.00    +0.000 C 
BRANCH   8  12
ATOM      9  C   UNL     1      46.190   3.209   7.690  0.00  0.00    +0.000 A 
ATOM     10  C   UNL     1      45.854   2.067   8.403  0.00  0.00    +0.000 A 
ATOM     11  C   UNL     1      44.970   2.194   9.476  0.00  0.00    +0.000 A 
ATOM     12  C   UNL     1      44.456   3.450   9.808  0.00  0.00    +0.000 A 
ATOM     13  C   UNL     1      44.857   4.527   9.021  0.00  0.00    +0.000 A 
ATOM     14  N   UNL     1      45.711   4.436   7.975  0.00  0.00    +0.000 NA
BRANCH   9  16
ATOM     15  C   UNL     1      47.641   1.734   6.602  0.00  0.00    +0.000 C 
ATOM     16  O   UNL     1      47.061   3.036   6.631  0.00  0.00    +0.000 OA
ENDBRANCH   9  16
ENDBRANCH   8  12
ENDBRANCH   2   8
ENDBRANCH   1   5
BRANCH   1  17
ATOM     17  N   UNL     1      48.145   7.460  12.279  0.00  0.00    +0.000 N 
ATOM     18  C   UNL     1      49.035   7.300  13.315  0.00  0.00    +0.000 C 
ATOM     19  O   UNL     1      49.051   6.294  14.017  0.00  0.00    +0.000 OA
ATOM     20  H   UNL     1      48.060   8.373  11.847  0.00  0.00    +0.000 HD
BRANCH  18  21
ATOM     21  C   UNL     1      50.018   8.377  13.501  0.00  0.00    +0.000 A 
ATOM     22  C   UNL     1      49.975   9.160  14.648  0.00  0.00    +0.000 A 
ATOM     23  S   UNL     1      51.213  10.330  14.725  0.00  0.00    +0.000 S 
ATOM     24  C   UNL     1      51.817   9.871  13.202  0.00  0.00    +0.000 A 
ATOM     25  N   UNL     1      52.887  10.507  12.653  0.00  0.00    +0.000 NA
ATOM     26  C   UNL     1      53.209  10.090  11.476  0.00  0.00    +0.000 A 
ATOM     27  N   UNL     1      52.563   9.088  10.799  0.00  0.00    +0.000 N 
ATOM     28  C   UNL     1      51.510   8.383  11.333  0.00  0.00    +0.000 A 
ATOM     29  O   UNL     1      51.004   7.438  10.734  0.00  0.00    +0.000 OA
ATOM     30  C   UNL     1      51.093   8.829  12.649  0.00  0.00    +0.000 A 
ATOM     31  H   UNL     1      52.876   8.801   9.883  0.00  0.00    +0.000 HD
ENDBRANCH  18  21
ENDBRANCH   1  17
TORSDOF 6
ENDMDL
MODEL 8
REMARK VINA RESULT:    -7.151      2.215      2.970
REMARK INTER + INTRA:          -9.885
REMARK INTER:                  -8.884
REMARK INTRA:                  -1.001
REMARK UNBOUND:                -0.226
REMARK  Name = 
REMARK  7 active torsions:
REMARK  status: ('A' for Active; 'I' for Inactive)
REMARK    1  A    between atoms: C_1  and  O_2
REMARK    2  A    between atoms: O_2  and  C_3
REMARK    3  A    between atoms: C_6  and  C_7
REMARK    4  A    between atoms: C_7  and  N_8
REMARK    5  A    between atoms: C_11  and  C_12
REMARK    6  A    between atoms: C_12  and  N_13
REMARK    7  A    between atoms: C_14  and  C_16
REMARK                            x       y       z     vdW  Elec       q    Type
REMARK                         _______ _______ _______ _____ _____    ______ ____
ROOT
ATOM      1  C   UNL     1      47.547   8.596  14.446  0.00  0.00    +0.000 C 
ENDROOT
BRANCH   1   5
ATOM      2  N   UNL     1      45.742   7.195  11.482  0.00  0.00    +0.000 NA
ATOM      3  C   UNL     1      45.457   8.529  12.036  0.00  0.00    +0.000 C 
ATOM      4  C   UNL     1      46.697   9.418  12.151  0.00  0.00    +0.000 C 
ATOM      5  C   UNL     1      47.834   8.759  12.940  0.00  0.00    +0.000 C 
ATOM      6  C   UNL     1      48.128   7.405  12.280  0.00  0.00    +0.000 C 
ATOM      7  C   UNL     1      46.880   6.527  12.135  0.00  0.00    +0.000 C 
BRANCH   2   8
ATOM      8  C   UNL     1      44.548   6.322  11.559  0.00  0.00    +0.000 C 
BRANCH   8  12
ATOM      9  C   UNL     1      44.876   2.631   9.465  0.00  0.00    +0.000 A 
ATOM     10  C   UNL     1      45.376   3.769   8.849  0.00  0.00    +0.000 A 
ATOM     11  C   UNL     1      45.266   4.988   9.522  0.00  0.00    +0.000 A 
ATOM     12  C   UNL     1      44.658   5.035  10.778  0.00  0.00    +0.000 A 
ATOM     13  C   UNL     1      44.196   3.832  11.305  0.00  0.00    +0.000 A 
ATOM     14  N   UNL     1      44.288   2.635  10.678  0.00  0.00    +0.000 NA
BRANCH   9  16
ATOM     15  C   UNL     1      46.240   1.370   8.047  0.00  0.00    +0.000 C 
ATOM     16  O   UNL     1      45.013   1.446   8.769  0.00  0.00    +0.000 OA
ENDBRANCH   9  16
ENDBRANCH   8  12
ENDBRANCH   2   8
ENDBRANCH   1   5
BRANCH   1  17
ATOM     17  N   UNL     1      48.315   7.533  15.065  0.00  0.00    +0.000 N 
ATOM     18  C   UNL     1      48.652   7.539  16.398  0.00  0.00    +0.000 C 
ATOM     19  O   UNL     1      48.280   8.421  17.166  0.00  0.00    +0.000 OA
ATOM     20  H   UNL     1      48.788   6.884  14.446  0.00  0.00    +0.000 HD
BRANCH  18  21
ATOM     21  C   UNL     1      49.436   6.390  16.876  0.00  0.00    +0.000 A 
ATOM     22  C   UNL     1      50.688   6.597  17.439  0.00  0.00    +0.000 A 
ATOM     23  S   UNL     1      51.439   5.165  17.983  0.00  0.00    +0.000 S 
ATOM     24  C   UNL     1      50.141   4.211  17.434  0.00  0.00    +0.000 A 
ATOM     25  N   UNL     1      50.160   2.858  17.573  0.00  0.00    +0.000 NA
ATOM     26  C   UNL     1      49.135   2.256  17.071  0.00  0.00    +0.000 A 
ATOM     27  N   UNL     1      48.088   2.885  16.447  0.00  0.00    +0.000 N 
ATOM     28  C   UNL     1      48.002   4.253  16.327  0.00  0.00    +0.000 A 
ATOM     29  O   UNL     1      47.014   4.790  15.834  0.00  0.00    +0.000 OA
ATOM     30  C   UNL     1      49.142   4.976  16.857  0.00  0.00    +0.000 A 
ATOM     31  H   UNL     1      47.310   2.353  16.086  0.00  0.00    +0.000 HD
ENDBRANCH  18  21
ENDBRANCH   1  17
TORSDOF 6
ENDMDL
MODEL 9
REMARK VINA RESULT:    -7.046      3.449      8.740
REMARK INTER + INTRA:          -9.744
REMARK INTER:                  -9.160
REMARK INTRA:                  -0.584
REMARK UNBOUND:                -0.226
REMARK  Name = 
REMARK  7 active torsions:
REMARK  status: ('A' for Active; 'I' for Inactive)
REMARK    1  A    between atoms: C_1  and  O_2
REMARK    2  A    between atoms: O_2  and  C_3
REMARK    3  A    between atoms: C_6  and  C_7
REMARK    4  A    between atoms: C_7  and  N_8
REMARK    5  A    between atoms: C_11  and  C_12
REMARK    6  A    between atoms: C_12  and  N_13
REMARK    7  A    between atoms: C_14  and  C_16
REMARK                            x       y       z     vdW  Elec       q    Type
REMARK                         _______ _______ _______ _____ _____    ______ ____
ROOT
ATOM      1  C   UNL     1      46.501   8.035  13.050  0.00  0.00    +0.000 C 
ENDROOT
BRANCH   1   5
ATOM      2  N   UNL     1      50.039   8.725  14.054  0.00  0.00    +0.000 NA
ATOM      3  C   UNL     1      49.599   7.429  13.511  0.00  0.00    +0.000 C 
ATOM      4  C   UNL     1      48.877   7.546  12.168  0.00  0.00    +0.000 C 
ATOM      5  C   UNL     1      47.696   8.522  12.207  0.00  0.00    +0.000 C 
ATOM      6  C   UNL     1      48.227   9.867  12.718  0.00  0.00    +0.000 C 
ATOM      7  C   UNL     1      48.979   9.746  14.049  0.00  0.00    +0.000 C 
BRANCH   2   8
ATOM      8  C   UNL     1      50.569   8.572  15.429  0.00  0.00    +0.000 C 
BRANCH   8  12
ATOM      9  C   UNL     1      49.601   4.864  17.281  0.00  0.00    +0.000 A 
ATOM     10  C   UNL     1      48.559   5.739  17.005  0.00  0.00    +0.000 A 
ATOM     11  C   UNL     1      48.865   6.963  16.405  0.00  0.00    +0.000 A 
ATOM     12  C   UNL     1      50.192   7.278  16.108  0.00  0.00    +0.000 A 
ATOM     13  C   UNL     1      51.157   6.324  16.424  0.00  0.00    +0.000 A 
ATOM     14  N   UNL     1      50.892   5.129  17.004  0.00  0.00    +0.000 NA
BRANCH   9  16
ATOM     15  C   UNL     1      50.012   2.565  17.365  0.00  0.00    +0.000 C 
ATOM     16  O   UNL     1      49.252   3.662  17.866  0.00  0.00    +0.000 OA
ENDBRANCH   9  16
ENDBRANCH   8  12
ENDBRANCH   2   8
ENDBRANCH   1   5
BRANCH   1  17
ATOM     17  N   UNL     1      46.012   6.729  12.652  0.00  0.00    +0.000 N 
ATOM     18  C   UNL     1      44.954   6.563  11.788  0.00  0.00    +0.000 C 
ATOM     19  O   UNL     1      44.386   7.511  11.256  0.00  0.00    +0.000 OA
ATOM     20  H   UNL     1      46.328   5.932  13.193  0.00  0.00    +0.000 HD
BRANCH  18  21
ATOM     21  C   UNL     1      44.575   5.176  11.482  0.00  0.00    +0.000 A 
ATOM     22  C   UNL     1      43.845   4.441  12.406  0.00  0.00    +0.000 A 
ATOM     23  S   UNL     1      43.451   2.870  11.874  0.00  0.00    +0.000 S 
ATOM     24  C   UNL     1      44.291   3.095  10.411  0.00  0.00    +0.000 A 
ATOM     25  N   UNL     1      44.366   2.100   9.487  0.00  0.00    +0.000 NA
ATOM     26  C   UNL     1      45.073   2.390   8.447  0.00  0.00    +0.000 A 
ATOM     27  N   UNL     1      45.707   3.588   8.244  0.00  0.00    +0.000 N 
ATOM     28  C   UNL     1      45.619   4.640   9.126  0.00  0.00    +0.000 A 
ATOM     29  O   UNL     1      46.132   5.727   8.878  0.00  0.00    +0.000 OA
ATOM     30  C   UNL     1      44.852   4.357  10.325  0.00  0.00    +0.000 A 
ATOM     31  H   UNL     1      46.236   3.754   7.400  0.00  0.00    +0.000 HD
ENDBRANCH  18  21
ENDBRANCH   1  17
TORSDOF 6
ENDMDL
