MODEL 1
REMARK VINA RESULT:    -7.312      0.000      0.000
REMARK INTER + INTRA:         -11.954
REMARK INTER:                 -10.304
REMARK INTRA:                  -1.651
REMARK UNBOUND:                -1.651
REMARK  Name = 
REMARK  8 active torsions:
REMARK  status: ('A' for Active; 'I' for Inactive)
REMARK    1  A    between atoms: C_1  and  O_2
REMARK    2  A    between atoms: O_2  and  C_3
REMARK    3  A    between atoms: C_10  and  C_11
REMARK    4  A    between atoms: N_13  and  C_14
REMARK    5  A    between atoms: C_14  and  C_15
REMARK    6  A    between atoms: C_18  and  N_19
REMARK    7  A    between atoms: N_19  and  C_20
REMARK    8  A    between atoms: C_20  and  C_21
REMARK                            x       y       z     vdW  Elec       q    Type
REMARK                         _______ _______ _______ _____ _____    ______ ____
ROOT
ATOM      1  C   UNL     1      47.128   8.170  13.284  0.00  0.00    +0.000 C 
ENDROOT
BRANCH   1   2
ATOM      2  C   UNL     1      46.270   7.258  12.445  0.00  0.00    +0.000 A 
ATOM      3  C   UNL     1      45.006   6.867  12.897  0.00  0.00    +0.000 A 
ATOM      4  C   UNL     1      44.247   5.933  12.180  0.00  0.00    +0.000 A 
ATOM      5  C   UNL     1      44.718   5.365  10.991  0.00  0.00    +0.000 A 
ATOM      6  C   UNL     1      45.988   5.759  10.550  0.00  0.00    +0.000 A 
ATOM      7  C   UNL     1      46.752   6.699  11.256  0.00  0.00    +0.000 A 
BRANCH   5   8
ATOM      8  N   UNL     1      44.064   4.318  10.334  0.00  0.00    +0.000 N 
ATOM      9  H   UNL     1      43.111   4.167  10.668  0.00  0.00    +0.000 HD
BRANCH   8  10
ATOM     10  C   UNL     1      44.767   3.048  10.134  0.00  0.00    +0.000 C 
BRANCH  10  11
ATOM     11  C   UNL     1      44.492   2.494   8.717  0.00  0.00    +0.000 C 
ATOM     12  C   UNL     1      44.631   3.589   7.637  0.00  0.00    +0.000 C 
ATOM     13  N   UNL     1      46.024   4.018   7.410  0.00  0.00    +0.000 NA
ATOM     14  C   UNL     1      46.836   2.826   7.113  0.00  0.00    +0.000 C 
ATOM     15  C   UNL     1      46.693   1.718   8.169  0.00  0.00    +0.000 C 
ATOM     16  O   UNL     1      45.327   1.358   8.401  0.00  0.00    +0.000 OA
ATOM     17  H   UNL     1      46.388   4.467   8.249  0.00  0.00    +0.000 HD
ENDBRANCH  10  11
ENDBRANCH   8  10
ENDBRANCH   5   8
ENDBRANCH   1   2
BRANCH   1  20
ATOM     18  C   UNL     1      48.706   6.933  14.718  0.00  0.00    +0.000 C 
ATOM     19  O   UNL     1      49.567   6.946  13.838  0.00  0.00    +0.000 OA
ATOM     20  N   UNL     1      47.487   7.522  14.526  0.00  0.00    +0.000 N 
ATOM     21  H   UNL     1      46.818   7.558  15.280  0.00  0.00    +0.000 HD
BRANCH  18  29
ATOM     22  C   UNL     1      47.273   4.211  16.273  0.00  0.00    +0.000 A 
ATOM     23  N   UNL     1      46.967   3.150  17.047  0.00  0.00    +0.000 NA
ATOM     24  C   UNL     1      47.676   2.960  18.164  0.00  0.00    +0.000 A 
ATOM     25  N   UNL     1      48.662   3.722  18.626  0.00  0.00    +0.000 NA
ATOM     26  C   UNL     1      48.940   4.763  17.821  0.00  0.00    +0.000 A 
ATOM     27  S   UNL     1      50.163   5.855  18.263  0.00  0.00    +0.000 S 
ATOM     28  C   UNL     1      49.931   6.762  16.845  0.00  0.00    +0.000 A 
ATOM     29  C   UNL     1      48.941   6.258  16.011  0.00  0.00    +0.000 A 
ATOM     30  C   UNL     1      48.321   5.083  16.618  0.00  0.00    +0.000 A 
BRANCH  22  32
ATOM     31  C   UNL     1      46.974   3.755  13.984  0.00  0.00    +0.000 C 
ATOM     32  O   UNL     1      46.514   4.443  15.145  0.00  0.00    +0.000 OA
ENDBRANCH  22  32
ENDBRANCH  18  29
ENDBRANCH   1  20
TORSDOF 7
ENDMDL
MODEL 2
REMARK VINA RESULT:    -6.928      2.219      2.712
REMARK INTER + INTRA:         -11.414
REMARK INTER:                 -10.188
REMARK INTRA:                  -1.226
REMARK UNBOUND:                -1.651
REMARK  Name = 
REMARK  8 active torsions:
REMARK  status: ('A' for Active; 'I' for Inactive)
REMARK    1  A    between atoms: C_1  and  O_2
REMARK    2  A    between atoms: O_2  and  C_3
REMARK    3  A    between atoms: C_10  and  C_11
REMARK    4  A    between atoms: N_13  and  C_14
REMARK    5  A    between atoms: C_14  and  C_15
REMARK    6  A    between atoms: C_18  and  N_19
REMARK    7  A    between atoms: N_19  and  C_20
REMARK    8  A    between atoms: C_20  and  C_21
REMARK                            x       y       z     vdW  Elec       q    Type
REMARK                         _______ _______ _______ _____ _____    ______ ____
ROOT
ATOM      1  C   UNL     1      48.714   7.316  14.864  0.00  0.00    +0.000 C 
ENDROOT
BRANCH   1   2
ATOM      2  C   UNL     1      47.785   6.524  13.981  0.00  0.00    +0.000 A 
ATOM      3  C   UNL     1      47.277   7.088  12.807  0.00  0.00    +0.000 A 
ATOM      4  C   UNL     1      46.326   6.405  12.037  0.00  0.00    +0.000 A 
ATOM      5  C   UNL     1      45.857   5.140  12.407  0.00  0.00    +0.000 A 
ATOM      6  C   UNL     1      46.368   4.585  13.588  0.00  0.00    +0.000 A 
ATOM      7  C   UNL     1      47.325   5.258  14.361  0.00  0.00    +0.000 A 
BRANCH   5   8
ATOM      8  N   UNL     1      44.799   4.498  11.756  0.00  0.00    +0.000 N 
ATOM      9  H   UNL     1      43.921   4.543  12.276  0.00  0.00    +0.000 HD
BRANCH   8  10
ATOM     10  C   UNL     1      45.013   3.166  11.185  0.00  0.00    +0.000 C 
BRANCH  10  11
ATOM     11  C   UNL     1      44.232   3.013   9.859  0.00  0.00    +0.000 C 
ATOM     12  C   UNL     1      44.183   4.339   9.068  0.00  0.00    +0.000 C 
ATOM     13  N   UNL     1      45.482   4.724   8.484  0.00  0.00    +0.000 NA
ATOM     14  C   UNL     1      45.979   3.600   7.673  0.00  0.00    +0.000 C 
ATOM     15  C   UNL     1      46.015   2.268   8.441  0.00  0.00    +0.000 C 
ATOM     16  O   UNL     1      44.753   1.947   9.035  0.00  0.00    +0.000 OA
ATOM     17  H   UNL     1      46.150   4.917   9.228  0.00  0.00    +0.000 HD
ENDBRANCH  10  11
ENDBRANCH   8  10
ENDBRANCH   5   8
ENDBRANCH   1   2
BRANCH   1  20
ATOM     18  C   UNL     1      49.601   6.139  16.840  0.00  0.00    +0.000 C 
ATOM     19  O   UNL     1      48.707   6.595  17.554  0.00  0.00    +0.000 OA
ATOM     20  N   UNL     1      49.666   6.438  15.508  0.00  0.00    +0.000 N 
ATOM     21  H   UNL     1      50.367   6.004  14.926  0.00  0.00    +0.000 HD
BRANCH  18  29
ATOM     22  C   UNL     1      50.060   2.724  16.945  0.00  0.00    +0.000 A 
ATOM     23  N   UNL     1      50.529   1.464  17.042  0.00  0.00    +0.000 NA
ATOM     24  C   UNL     1      51.731   1.280  17.596  0.00  0.00    +0.000 A 
ATOM     25  N   UNL     1      52.536   2.214  18.092  0.00  0.00    +0.000 NA
ATOM     26  C   UNL     1      52.035   3.456  17.967  0.00  0.00    +0.000 A 
ATOM     27  S   UNL     1      52.922   4.776  18.564  0.00  0.00    +0.000 S 
ATOM     28  C   UNL     1      51.734   5.872  18.037  0.00  0.00    +0.000 A 
ATOM     29  C   UNL     1      50.658   5.270  17.398  0.00  0.00    +0.000 A 
ATOM     30  C   UNL     1      50.821   3.819  17.394  0.00  0.00    +0.000 A 
BRANCH  22  32
ATOM     31  C   UNL     1      47.759   2.925  17.394  0.00  0.00    +0.000 C 
ATOM     32  O   UNL     1      48.800   2.920  16.420  0.00  0.00    +0.000 OA
ENDBRANCH  22  32
ENDBRANCH  18  29
ENDBRANCH   1  20
TORSDOF 7
ENDMDL
MODEL 3
REMARK VINA RESULT:    -6.722      2.092      2.779
REMARK INTER + INTRA:         -11.123
REMARK INTER:                  -9.679
REMARK INTRA:                  -1.445
REMARK UNBOUND:                -1.651
REMARK  Name = 
REMARK  8 active torsions:
REMARK  status: ('A' for Active; 'I' for Inactive)
REMARK    1  A    between atoms: C_1  and  O_2
REMARK    2  A    between atoms: O_2  and  C_3
REMARK    3  A    between atoms: C_10  and  C_11
REMARK    4  A    between atoms: N_13  and  C_14
REMARK    5  A    between atoms: C_14  and  C_15
REMARK    6  A    between atoms: C_18  and  N_19
REMARK    7  A    between atoms: N_19  and  C_20
REMARK    8  A    between atoms: C_20  and  C_21
REMARK                            x       y       z     vdW  Elec       q    Type
REMARK                         _______ _______ _______ _____ _____    ______ ____
ROOT
ATOM      1  C   UNL     1      48.353   8.827  14.434  0.00  0.00    +0.000 C 
ENDROOT
BRANCH   1   2
ATOM      2  C   UNL     1      47.467   8.320  13.326  0.00  0.00    +0.000 A 
ATOM      3  C   UNL     1      46.144   8.759  13.224  0.00  0.00    +0.000 A 
ATOM      4  C   UNL     1      45.279   8.213  12.267  0.00  0.00    +0.000 A 
ATOM      5  C   UNL     1      45.705   7.218  11.380  0.00  0.00    +0.000 A 
ATOM      6  C   UNL     1      47.031   6.780  11.493  0.00  0.00    +0.000 A 
ATOM      7  C   UNL     1      47.906   7.328  12.442  0.00  0.00    +0.000 A 
BRANCH   5   8
ATOM      8  N   UNL     1      44.835   6.538  10.521  0.00  0.00    +0.000 N 
ATOM      9  H   UNL     1      43.857   6.799  10.652  0.00  0.00    +0.000 HD
BRANCH   8  10
ATOM     10  C   UNL     1      44.984   5.091  10.351  0.00  0.00    +0.000 C 
BRANCH  10  11
ATOM     11  C   UNL     1      43.622   4.381  10.526  0.00  0.00    +0.000 C 
ATOM     12  C   UNL     1      43.796   2.904  10.945  0.00  0.00    +0.000 C 
ATOM     13  N   UNL     1      44.281   2.738  12.329  0.00  0.00    +0.000 NA
ATOM     14  C   UNL     1      43.380   3.479  13.229  0.00  0.00    +0.000 C 
ATOM     15  C   UNL     1      43.181   4.945  12.813  0.00  0.00    +0.000 C 
ATOM     16  O   UNL     1      42.757   5.075  11.452  0.00  0.00    +0.000 OA
ATOM     17  H   UNL     1      45.221   3.120  12.412  0.00  0.00    +0.000 HD
ENDBRANCH  10  11
ENDBRANCH   8  10
ENDBRANCH   5   8
ENDBRANCH   1   2
BRANCH   1  20
ATOM     18  C   UNL     1      49.569   7.161  15.784  0.00  0.00    +0.000 C 
ATOM     19  O   UNL     1      50.603   7.346  15.142  0.00  0.00    +0.000 OA
ATOM     20  N   UNL     1      48.426   7.857  15.504  0.00  0.00    +0.000 N 
ATOM     21  H   UNL     1      47.607   7.739  16.082  0.00  0.00    +0.000 HD
BRANCH  18  29
ATOM     22  C   UNL     1      47.581   4.406  16.369  0.00  0.00    +0.000 A 
ATOM     23  N   UNL     1      47.027   3.250  16.789  0.00  0.00    +0.000 NA
ATOM     24  C   UNL     1      47.519   2.680  17.892  0.00  0.00    +0.000 A 
ATOM     25  N   UNL     1      48.505   3.136  18.658  0.00  0.00    +0.000 NA
ATOM     26  C   UNL     1      49.035   4.284  18.200  0.00  0.00    +0.000 A 
ATOM     27  S   UNL     1      50.297   5.023  19.064  0.00  0.00    +0.000 S 
ATOM     28  C   UNL     1      50.408   6.276  17.922  0.00  0.00    +0.000 A 
ATOM     29  C   UNL     1      49.509   6.159  16.869  0.00  0.00    +0.000 A 
ATOM     30  C   UNL     1      48.660   4.987  17.060  0.00  0.00    +0.000 A 
BRANCH  22  32
ATOM     31  C   UNL     1      46.979   4.196  14.103  0.00  0.00    +0.000 C 
ATOM     32  O   UNL     1      47.047   5.027  15.260  0.00  0.00    +0.000 OA
ENDBRANCH  22  32
ENDBRANCH  18  29
ENDBRANCH   1  20
TORSDOF 7
ENDMDL
MODEL 4
REMARK VINA RESULT:    -6.541      2.702      3.855
REMARK INTER + INTRA:         -10.868
REMARK INTER:                  -9.487
REMARK INTRA:                  -1.381
REMARK UNBOUND:                -1.651
REMARK  Name = 
REMARK  8 active torsions:
REMARK  status: ('A' for Active; 'I' for Inactive)
REMARK    1  A    between atoms: C_1  and  O_2
REMARK    2  A    between atoms: O_2  and  C_3
REMARK    3  A    between atoms: C_10  and  C_11
REMARK    4  A    between atoms: N_13  and  C_14
REMARK    5  A    between atoms: C_14  and  C_15
REMARK    6  A    between atoms: C_18  and  N_19
REMARK    7  A    between atoms: N_19  and  C_20
REMARK    8  A    between atoms: C_20  and  C_21
REMARK                            x       y       z     vdW  Elec       q    Type
REMARK                         _______ _______ _______ _____ _____    ______ ____
ROOT
ATOM      1  C   UNL     1      49.428   7.675  15.395  0.00  0.00    +0.000 C 
ENDROOT
BRANCH   1   2
ATOM      2  C   UNL     1      48.629   7.121  14.243  0.00  0.00    +0.000 A 
ATOM      3  C   UNL     1      48.626   7.775  13.008  0.00  0.00    +0.000 A 
ATOM      4  C   UNL     1      47.803   7.332  11.965  0.00  0.00    +0.000 A 
ATOM      5  C   UNL     1      46.962   6.223  12.117  0.00  0.00    +0.000 A 
ATOM      6  C   UNL     1      46.968   5.578  13.360  0.00  0.00    +0.000 A 
ATOM      7  C   UNL     1      47.795   6.009  14.407  0.00  0.00    +0.000 A 
BRANCH   5   8
ATOM      8  N   UNL     1      46.014   5.848  11.160  0.00  0.00    +0.000 N 
ATOM      9  H   UNL     1      46.357   5.930  10.201  0.00  0.00    +0.000 HD
BRANCH   8  10
ATOM     10  C   UNL     1      44.641   6.345  11.279  0.00  0.00    +0.000 C 
BRANCH  10  11
ATOM     11  C   UNL     1      43.633   5.275  10.800  0.00  0.00    +0.000 C 
ATOM     12  C   UNL     1      44.340   3.961  10.401  0.00  0.00    +0.000 C 
ATOM     13  N   UNL     1      44.885   3.213  11.550  0.00  0.00    +0.000 NA
ATOM     14  C   UNL     1      43.799   2.998  12.522  0.00  0.00    +0.000 C 
ATOM     15  C   UNL     1      43.072   4.295  12.914  0.00  0.00    +0.000 C 
ATOM     16  O   UNL     1      42.598   5.021  11.775  0.00  0.00    +0.000 OA
ATOM     17  H   UNL     1      45.624   3.754  11.994  0.00  0.00    +0.000 HD
ENDBRANCH  10  11
ENDBRANCH   8  10
ENDBRANCH   5   8
ENDBRANCH   1   2
BRANCH   1  20
ATOM     18  C   UNL     1      50.125   6.156  17.207  0.00  0.00    +0.000 C 
ATOM     19  O   UNL     1      49.207   6.544  17.930  0.00  0.00    +0.000 OA
ATOM     20  N   UNL     1      50.292   6.655  15.945  0.00  0.00    +0.000 N 
ATOM     21  H   UNL     1      51.010   6.279  15.343  0.00  0.00    +0.000 HD
BRANCH  18  29
ATOM     22  C   UNL     1      50.263   2.715  17.043  0.00  0.00    +0.000 A 
ATOM     23  N   UNL     1      50.613   1.413  17.037  0.00  0.00    +0.000 NA
ATOM     24  C   UNL     1      51.797   1.077  17.556  0.00  0.00    +0.000 A 
ATOM     25  N   UNL     1      52.690   1.891  18.109  0.00  0.00    +0.000 NA
ATOM     26  C   UNL     1      52.307   3.180  18.087  0.00  0.00    +0.000 A 
ATOM     27  S   UNL     1      53.319   4.362  18.767  0.00  0.00    +0.000 S 
ATOM     28  C   UNL     1      52.234   5.600  18.345  0.00  0.00    +0.000 A 
ATOM     29  C   UNL     1      51.101   5.152  17.679  0.00  0.00    +0.000 A 
ATOM     30  C   UNL     1      51.127   3.697  17.562  0.00  0.00    +0.000 A 
BRANCH  22  32
ATOM     31  C   UNL     1      47.984   3.037  17.532  0.00  0.00    +0.000 C 
ATOM     32  O   UNL     1      49.022   3.067  16.556  0.00  0.00    +0.000 OA
ENDBRANCH  22  32
ENDBRANCH  18  29
ENDBRANCH   1  20
TORSDOF 7
ENDMDL
MODEL 5
REMARK VINA RESULT:    -6.519      4.001      8.983
REMARK INTER + INTRA:         -10.838
REMARK INTER:                  -9.664
REMARK INTRA:                  -1.173
REMARK UNBOUND:                -1.651
REMARK  Name = 
REMARK  8 active torsions:
REMARK  status: ('A' for Active; 'I' for Inactive)
REMARK    1  A    between atoms: C_1  and  O_2
REMARK    2  A    between atoms: O_2  and  C_3
REMARK    3  A    between atoms: C_10  and  C_11
REMARK    4  A    between atoms: N_13  and  C_14
REMARK    5  A    between atoms: C_14  and  C_15
REMARK    6  A    between atoms: C_18  and  N_19
REMARK    7  A    between atoms: N_19  and  C_20
REMARK    8  A    between atoms: C_20  and  C_21
REMARK                            x       y       z     vdW  Elec       q    Type
REMARK                         _______ _______ _______ _____ _____    ______ ____
ROOT
ATOM      1  C   UNL     1      47.279   3.330  16.880  0.00  0.00    +0.000 C 
ENDROOT
BRANCH   1   2
ATOM      2  C   UNL     1      48.748   3.456  17.193  0.00  0.00    +0.000 A 
ATOM      3  C   UNL     1      49.606   2.371  16.995  0.00  0.00    +0.000 A 
ATOM      4  C   UNL     1      50.950   2.440  17.386  0.00  0.00    +0.000 A 
ATOM      5  C   UNL     1      51.481   3.591  17.978  0.00  0.00    +0.000 A 
ATOM      6  C   UNL     1      50.612   4.671  18.177  0.00  0.00    +0.000 A 
ATOM      7  C   UNL     1      49.268   4.614  17.782  0.00  0.00    +0.000 A 
BRANCH   5   8
ATOM      8  N   UNL     1      52.768   3.644  18.524  0.00  0.00    +0.000 N 
ATOM      9  H   UNL     1      52.845   4.294  19.307  0.00  0.00    +0.000 HD
BRANCH   8  10
ATOM     10  C   UNL     1      53.922   3.748  17.627  0.00  0.00    +0.000 C 
BRANCH  10  11
ATOM     11  C   UNL     1      55.110   2.923  18.173  0.00  0.00    +0.000 C 
ATOM     12  C   UNL     1      54.685   2.023  19.355  0.00  0.00    +0.000 C 
ATOM     13  N   UNL     1      53.830   0.889  18.954  0.00  0.00    +0.000 NA
ATOM     14  C   UNL     1      54.521   0.139  17.892  0.00  0.00    +0.000 C 
ATOM     15  C   UNL     1      54.967   1.025  16.717  0.00  0.00    +0.000 C 
ATOM     16  O   UNL     1      55.754   2.142  17.144  0.00  0.00    +0.000 OA
ATOM     17  H   UNL     1      52.944   1.238  18.592  0.00  0.00    +0.000 HD
ENDBRANCH  10  11
ENDBRANCH   8  10
ENDBRANCH   5   8
ENDBRANCH   1   2
BRANCH   1  20
ATOM     18  C   UNL     1      46.924   4.125  14.573  0.00  0.00    +0.000 C 
ATOM     19  O   UNL     1      47.292   3.045  14.109  0.00  0.00    +0.000 OA
ATOM     20  N   UNL     1      46.880   4.338  15.922  0.00  0.00    +0.000 N 
ATOM     21  H   UNL     1      46.515   5.205  16.286  0.00  0.00    +0.000 HD
BRANCH  18  29
ATOM     22  C   UNL     1      44.140   4.789  12.651  0.00  0.00    +0.000 A 
ATOM     23  N   UNL     1      43.156   5.334  11.909  0.00  0.00    +0.000 NA
ATOM     24  C   UNL     1      43.347   6.559  11.411  0.00  0.00    +0.000 A 
ATOM     25  N   UNL     1      44.428   7.320  11.550  0.00  0.00    +0.000 NA
ATOM     26  C   UNL     1      45.381   6.744  12.303  0.00  0.00    +0.000 A 
ATOM     27  S   UNL     1      46.842   7.566  12.572  0.00  0.00    +0.000 S 
ATOM     28  C   UNL     1      47.429   6.302  13.544  0.00  0.00    +0.000 A 
ATOM     29  C   UNL     1      46.539   5.246  13.692  0.00  0.00    +0.000 A 
ATOM     30  C   UNL     1      45.328   5.495  12.914  0.00  0.00    +0.000 A 
BRANCH  22  32
ATOM     31  C   UNL     1      43.529   2.573  12.143  0.00  0.00    +0.000 C 
ATOM     32  O   UNL     1      43.973   3.505  13.127  0.00  0.00    +0.000 OA
ENDBRANCH  22  32
ENDBRANCH  18  29
ENDBRANCH   1  20
TORSDOF 7
ENDMDL
MODEL 6
REMARK VINA RESULT:    -6.078      2.480      3.385
REMARK INTER + INTRA:         -10.215
REMARK INTER:                  -8.913
REMARK INTRA:                  -1.302
REMARK UNBOUND:                -1.651
REMARK  Name = 
REMARK  8 active torsions:
REMARK  status: ('A' for Active; 'I' for Inactive)
REMARK    1  A    between atoms: C_1  and  O_2
REMARK    2  A    between atoms: O_2  and  C_3
REMARK    3  A    between atoms: C_10  and  C_11
REMARK    4  A    between atoms: N_13  and  C_14
REMARK    5  A    between atoms: C_14  and  C_15
REMARK    6  A    between atoms: C_18  and  N_19
REMARK    7  A    between atoms: N_19  and  C_20
REMARK    8  A    between atoms: C_20  and  C_21
REMARK                            x       y       z     vdW  Elec       q    Type
REMARK                         _______ _______ _______ _____ _____    ______ ____
ROOT
ATOM      1  C   UNL     1      49.697   8.693  12.739  0.00  0.00    +0.000 C 
ENDROOT
BRANCH   1   2
ATOM      2  C   UNL     1      48.308   8.115  12.657  0.00  0.00    +0.000 A 
ATOM      3  C   UNL     1      47.192   8.933  12.850  0.00  0.00    +0.000 A 
ATOM      4  C   UNL     1      45.902   8.388  12.885  0.00  0.00    +0.000 A 
ATOM      5  C   UNL     1      45.683   7.015  12.724  0.00  0.00    +0.000 A 
ATOM      6  C   UNL     1      46.808   6.202  12.538  0.00  0.00    +0.000 A 
ATOM      7  C   UNL     1      48.102   6.740  12.492  0.00  0.00    +0.000 A 
BRANCH   5   8
ATOM      8  N   UNL     1      44.434   6.415  12.911  0.00  0.00    +0.000 N 
ATOM      9  H   UNL     1      43.796   6.981  13.472  0.00  0.00    +0.000 HD
BRANCH   8  10
ATOM     10  C   UNL     1      44.368   5.002  13.292  0.00  0.00    +0.000 C 
BRANCH  10  11
ATOM     11  C   UNL     1      43.267   4.273  12.487  0.00  0.00    +0.000 C 
ATOM     12  C   UNL     1      42.626   5.197  11.429  0.00  0.00    +0.000 C 
ATOM     13  N   UNL     1      43.521   5.506  10.297  0.00  0.00    +0.000 NA
ATOM     14  C   UNL     1      44.000   4.237   9.723  0.00  0.00    +0.000 C 
ATOM     15  C   UNL     1      44.623   3.297  10.768  0.00  0.00    +0.000 C 
ATOM     16  O   UNL     1      43.749   3.056  11.876  0.00  0.00    +0.000 OA
ATOM     17  H   UNL     1      44.321   6.044  10.627  0.00  0.00    +0.000 HD
ENDBRANCH  10  11
ENDBRANCH   8  10
ENDBRANCH   5   8
ENDBRANCH   1   2
BRANCH   1  20
ATOM     18  C   UNL     1      50.552   8.036  14.956  0.00  0.00    +0.000 C 
ATOM     19  O   UNL     1      49.841   8.872  15.515  0.00  0.00    +0.000 OA
ATOM     20  N   UNL     1      50.530   7.881  13.599  0.00  0.00    +0.000 N 
ATOM     21  H   UNL     1      51.071   7.148  13.164  0.00  0.00    +0.000 HD
BRANCH  18  29
ATOM     22  C   UNL     1      50.104   5.450  17.191  0.00  0.00    +0.000 A 
ATOM     23  N   UNL     1      50.219   4.377  17.999  0.00  0.00    +0.000 NA
ATOM     24  C   UNL     1      51.446   3.935  18.288  0.00  0.00    +0.000 A 
ATOM     25  N   UNL     1      52.600   4.449  17.875  0.00  0.00    +0.000 NA
ATOM     26  C   UNL     1      52.441   5.510  17.065  0.00  0.00    +0.000 A 
ATOM     27  S   UNL     1      53.811   6.307  16.455  0.00  0.00    +0.000 S 
ATOM     28  C   UNL     1      52.845   7.401  15.584  0.00  0.00    +0.000 A 
ATOM     29  C   UNL     1      51.481   7.183  15.727  0.00  0.00    +0.000 A 
ATOM     30  C   UNL     1      51.240   6.075  16.647  0.00  0.00    +0.000 A 
BRANCH  22  32
ATOM     31  C   UNL     1      47.791   5.013  17.170  0.00  0.00    +0.000 C 
ATOM     32  O   UNL     1      48.843   5.944  16.928  0.00  0.00    +0.000 OA
ENDBRANCH  22  32
ENDBRANCH  18  29
ENDBRANCH   1  20
TORSDOF 7
ENDMDL
MODEL 7
REMARK VINA RESULT:    -6.015      3.742      9.347
REMARK INTER + INTRA:         -10.127
REMARK INTER:                  -9.199
REMARK INTRA:                  -0.929
REMARK UNBOUND:                -1.651
REMARK  Name = 
REMARK  8 active torsions:
REMARK  status: ('A' for Active; 'I' for Inactive)
REMARK    1  A    between atoms: C_1  and  O_2
REMARK    2  A    between atoms: O_2  and  C_3
REMARK    3  A    between atoms: C_10  and  C_11
REMARK    4  A    between atoms: N_13  and  C_14
REMARK    5  A    between atoms: C_14  and  C_15
REMARK    6  A    between atoms: C_18  and  N_19
REMARK    7  A    between atoms: N_19  and  C_20
REMARK    8  A    between atoms: C_20  and  C_21
REMARK                            x       y       z     vdW  Elec       q    Type
REMARK                         _______ _______ _______ _____ _____    ______ ____
ROOT
ATOM      1  C   UNL     1      47.171   3.441  16.839  0.00  0.00    +0.000 C 
ENDROOT
BRANCH   1   2
ATOM      2  C   UNL     1      48.663   3.372  17.038  0.00  0.00    +0.000 A 
ATOM      3  C   UNL     1      49.342   2.162  16.867  0.00  0.00    +0.000 A 
ATOM      4  C   UNL     1      50.709   2.060  17.156  0.00  0.00    +0.000 A 
ATOM      5  C   UNL     1      51.443   3.159  17.617  0.00  0.00    +0.000 A 
ATOM      6  C   UNL     1      50.752   4.366  17.791  0.00  0.00    +0.000 A 
ATOM      7  C   UNL     1      49.387   4.479  17.496  0.00  0.00    +0.000 A 
BRANCH   5   8
ATOM      8  N   UNL     1      52.763   3.060  18.066  0.00  0.00    +0.000 N 
ATOM      9  H   UNL     1      52.846   2.603  18.975  0.00  0.00    +0.000 HD
BRANCH   8  10
ATOM     10  C   UNL     1      53.640   4.231  17.975  0.00  0.00    +0.000 C 
BRANCH  10  11
ATOM     11  C   UNL     1      54.453   4.402  19.279  0.00  0.00    +0.000 C 
ATOM     12  C   UNL     1      55.408   5.613  19.203  0.00  0.00    +0.000 C 
ATOM     13  N   UNL     1      54.714   6.914  19.236  0.00  0.00    +0.000 NA
ATOM     14  C   UNL     1      53.850   6.950  20.429  0.00  0.00    +0.000 C 
ATOM     15  C   UNL     1      52.907   5.740  20.530  0.00  0.00    +0.000 C 
ATOM     16  O   UNL     1      53.606   4.494  20.446  0.00  0.00    +0.000 OA
ATOM     17  H   UNL     1      54.135   7.017  18.405  0.00  0.00    +0.000 HD
ENDBRANCH  10  11
ENDBRANCH   8  10
ENDBRANCH   5   8
ENDBRANCH   1   2
BRANCH   1  20
ATOM     18  C   UNL     1      46.919   4.142  14.490  0.00  0.00    +0.000 C 
ATOM     19  O   UNL     1      47.257   3.029  14.086  0.00  0.00    +0.000 OA
ATOM     20  N   UNL     1      46.842   4.419  15.826  0.00  0.00    +0.000 N 
ATOM     21  H   UNL     1      46.502   5.316  16.138  0.00  0.00    +0.000 HD
BRANCH  18  29
ATOM     22  C   UNL     1      44.096   5.017  12.715  0.00  0.00    +0.000 A 
ATOM     23  N   UNL     1      43.131   5.630  11.999  0.00  0.00    +0.000 NA
ATOM     24  C   UNL     1      43.432   6.780  11.390  0.00  0.00    +0.000 A 
ATOM     25  N   UNL     1      44.606   7.403  11.391  0.00  0.00    +0.000 NA
ATOM     26  C   UNL     1      45.537   6.765  12.121  0.00  0.00    +0.000 A 
ATOM     27  S   UNL     1      47.105   7.409  12.221  0.00  0.00    +0.000 S 
ATOM     28  C   UNL     1      47.607   6.154  13.251  0.00  0.00    +0.000 A 
ATOM     29  C   UNL     1      46.607   5.236  13.547  0.00  0.00    +0.000 A 
ATOM     30  C   UNL     1      45.379   5.582  12.836  0.00  0.00    +0.000 A 
BRANCH  22  32
ATOM     31  C   UNL     1      43.591   2.743  12.379  0.00  0.00    +0.000 C 
ATOM     32  O   UNL     1      43.810   3.804  13.305  0.00  0.00    +0.000 OA
ENDBRANCH  22  32
ENDBRANCH  18  29
ENDBRANCH   1  20
TORSDOF 7
ENDMDL
MODEL 8
REMARK VINA RESULT:    -5.837      2.083      2.865
REMARK INTER + INTRA:          -9.876
REMARK INTER:                  -8.265
REMARK INTRA:                  -1.611
REMARK UNBOUND:                -1.651
REMARK  Name = 
REMARK  8 active torsions:
REMARK  status: ('A' for Active; 'I' for Inactive)
REMARK    1  A    between atoms: C_1  and  O_2
REMARK    2  A    between atoms: O_2  and  C_3
REMARK    3  A    between atoms: C_10  and  C_11
REMARK    4  A    between atoms: N_13  and  C_14
REMARK    5  A    between atoms: C_14  and  C_15
REMARK    6  A    between atoms: C_18  and  N_19
REMARK    7  A    between atoms: N_19  and  C_20
REMARK    8  A    between atoms: C_20  and  C_21
REMARK                            x       y       z     vdW  Elec       q    Type
REMARK                         _______ _______ _______ _____ _____    ______ ____
ROOT
ATOM      1  C   UNL     1      49.559   7.637  13.946  0.00  0.00    +0.000 C 
ENDROOT
BRANCH   1   2
ATOM      2  C   UNL     1      48.158   7.339  13.479  0.00  0.00    +0.000 A 
ATOM      3  C   UNL     1      47.241   8.377  13.296  0.00  0.00    +0.000 A 
ATOM      4  C   UNL     1      45.906   8.105  12.969  0.00  0.00    +0.000 A 
ATOM      5  C   UNL     1      45.445   6.793  12.810  0.00  0.00    +0.000 A 
ATOM      6  C   UNL     1      46.370   5.759  13.002  0.00  0.00    +0.000 A 
ATOM      7  C   UNL     1      47.710   6.022  13.320  0.00  0.00    +0.000 A 
BRANCH   5   8
ATOM      8  N   UNL     1      44.094   6.474  12.642  0.00  0.00    +0.000 N 
ATOM      9  H   UNL     1      43.465   7.135  13.101  0.00  0.00    +0.000 HD
BRANCH   8  10
ATOM     10  C   UNL     1      43.654   5.091  12.844  0.00  0.00    +0.000 C 
BRANCH  10  11
ATOM     11  C   UNL     1      42.900   4.574  11.596  0.00  0.00    +0.000 C 
ATOM     12  C   UNL     1      43.365   5.292  10.310  0.00  0.00    +0.000 C 
ATOM     13  N   UNL     1      44.726   4.915   9.883  0.00  0.00    +0.000 NA
ATOM     14  C   UNL     1      44.786   3.448   9.766  0.00  0.00    +0.000 C 
ATOM     15  C   UNL     1      44.309   2.719  11.032  0.00  0.00    +0.000 C 
ATOM     16  O   UNL     1      43.005   3.141  11.447  0.00  0.00    +0.000 OA
ATOM     17  H   UNL     1      45.402   5.220  10.581  0.00  0.00    +0.000 HD
ENDBRANCH  10  11
ENDBRANCH   8  10
ENDBRANCH   5   8
ENDBRANCH   1   2
BRANCH   1  20
ATOM     18  C   UNL     1      49.564   8.096  16.369  0.00  0.00    +0.000 C 
ATOM     19  O   UNL     1      49.242   9.270  16.180  0.00  0.00    +0.000 OA
ATOM     20  N   UNL     1      49.728   7.230  15.324  0.00  0.00    +0.000 N 
ATOM     21  H   UNL     1      49.927   6.257  15.501  0.00  0.00    +0.000 HD
BRANCH  18  29
ATOM     22  C   UNL     1      48.533   5.277  18.064  0.00  0.00    +0.000 A 
ATOM     23  N   UNL     1      48.365   4.240  18.909  0.00  0.00    +0.000 NA
ATOM     24  C   UNL     1      49.000   4.275  20.084  0.00  0.00    +0.000 A 
ATOM     25  N   UNL     1      49.788   5.244  20.540  0.00  0.00    +0.000 NA
ATOM     26  C   UNL     1      49.935   6.254  19.665  0.00  0.00    +0.000 A 
ATOM     27  S   UNL     1      50.895   7.590  20.087  0.00  0.00    +0.000 S 
ATOM     28  C   UNL     1      50.618   8.325  18.580  0.00  0.00    +0.000 A 
ATOM     29  C   UNL     1      49.811   7.579  17.730  0.00  0.00    +0.000 A 
ATOM     30  C   UNL     1      49.370   6.358  18.398  0.00  0.00    +0.000 A 
BRANCH  22  32
ATOM     31  C   UNL     1      47.413   3.981  16.450  0.00  0.00    +0.000 C 
ATOM     32  O   UNL     1      47.841   5.274  16.871  0.00  0.00    +0.000 OA
ENDBRANCH  22  32
ENDBRANCH  18  29
ENDBRANCH   1  20
TORSDOF 7
ENDMDL
MODEL 9
REMARK VINA RESULT:    -5.709      5.423      7.588
REMARK INTER + INTRA:          -9.696
REMARK INTER:                  -8.435
REMARK INTRA:                  -1.261
REMARK UNBOUND:                -1.651
REMARK  Name = 
REMARK  8 active torsions:
REMARK  status: ('A' for Active; 'I' for Inactive)
REMARK    1  A    between atoms: C_1  and  O_2
REMARK    2  A    between atoms: O_2  and  C_3
REMARK    3  A    between atoms: C_10  and  C_11
REMARK    4  A    between atoms: N_13  and  C_14
REMARK    5  A    between atoms: C_14  and  C_15
REMARK    6  A    between atoms: C_18  and  N_19
REMARK    7  A    between atoms: N_19  and  C_20
REMARK    8  A    between atoms: C_20  and  C_21
REMARK                            x       y       z     vdW  Elec       q    Type
REMARK                         _______ _______ _______ _____ _____    ______ ____
ROOT
ATOM      1  C   UNL     1      51.048   8.414  12.228  0.00  0.00    +0.000 C 
ENDROOT
BRANCH   1   2
ATOM      2  C   UNL     1      49.740   7.720  12.503  0.00  0.00    +0.000 A 
ATOM      3  C   UNL     1      48.756   7.651  11.512  0.00  0.00    +0.000 A 
ATOM      4  C   UNL     1      47.496   7.106  11.790  0.00  0.00    +0.000 A 
ATOM      5  C   UNL     1      47.178   6.609  13.059  0.00  0.00    +0.000 A 
ATOM      6  C   UNL     1      48.168   6.688  14.047  0.00  0.00    +0.000 A 
ATOM      7  C   UNL     1      49.435   7.223  13.775  0.00  0.00    +0.000 A 
BRANCH   5   8
ATOM      8  N   UNL     1      45.888   6.205  13.419  0.00  0.00    +0.000 N 
ATOM      9  H   UNL     1      45.571   6.613  14.299  0.00  0.00    +0.000 HD
BRANCH   8  10
ATOM     10  C   UNL     1      45.529   4.788  13.327  0.00  0.00    +0.000 C 
BRANCH  10  11
ATOM     11  C   UNL     1      44.046   4.629  12.921  0.00  0.00    +0.000 C 
ATOM     12  C   UNL     1      43.575   5.784  12.011  0.00  0.00    +0.000 C 
ATOM     13  N   UNL     1      44.152   5.738  10.654  0.00  0.00    +0.000 NA
ATOM     14  C   UNL     1      43.874   4.413  10.075  0.00  0.00    +0.000 C 
ATOM     15  C   UNL     1      44.319   3.252  10.978  0.00  0.00    +0.000 C 
ATOM     16  O   UNL     1      43.781   3.351  12.301  0.00  0.00    +0.000 OA
ATOM     17  H   UNL     1      45.161   5.873  10.704  0.00  0.00    +0.000 HD
ENDBRANCH  10  11
ENDBRANCH   8  10
ENDBRANCH   5   8
ENDBRANCH   1   2
BRANCH   1  20
ATOM     18  C   UNL     1      52.477   8.862  10.269  0.00  0.00    +0.000 C 
ATOM     19  O   UNL     1      53.052   9.779  10.857  0.00  0.00    +0.000 OA
ATOM     20  N   UNL     1      51.491   8.138  10.879  0.00  0.00    +0.000 N 
ATOM     21  H   UNL     1      51.076   7.349  10.405  0.00  0.00    +0.000 HD
BRANCH  18  29
ATOM     22  C   UNL     1      53.409   5.940   8.694  0.00  0.00    +0.000 A 
ATOM     23  N   UNL     1      53.688   4.946   7.827  0.00  0.00    +0.000 NA
ATOM     24  C   UNL     1      53.757   5.246   6.527  0.00  0.00    +0.000 A 
ATOM     25  N   UNL     1      53.597   6.442   5.971  0.00  0.00    +0.000 NA
ATOM     26  C   UNL     1      53.312   7.402   6.868  0.00  0.00    +0.000 A 
ATOM     27  S   UNL     1      53.092   9.001   6.338  0.00  0.00    +0.000 S 
ATOM     28  C   UNL     1      52.769   9.531   7.920  0.00  0.00    +0.000 A 
ATOM     29  C   UNL     1      52.811   8.520   8.871  0.00  0.00    +0.000 A 
ATOM     30  C   UNL     1      53.177   7.253   8.245  0.00  0.00    +0.000 A 
BRANCH  22  32
ATOM     31  C   UNL     1      54.647   5.258  10.576  0.00  0.00    +0.000 C 
ATOM     32  O   UNL     1      53.385   5.651  10.043  0.00  0.00    +0.000 OA
ENDBRANCH  22  32
ENDBRANCH  18  29
ENDBRANCH   1  20
TORSDOF 7
ENDMDL
