MODEL 1
REMARK VINA RESULT:    -7.674      0.000      0.000
REMARK INTER + INTRA:         -11.349
REMARK INTER:                 -10.365
REMARK INTRA:                  -0.984
REMARK UNBOUND:                -0.984
REMARK  Name = 
REMARK  7 active torsions:
REMARK  status: ('A' for Active; 'I' for Inactive)
REMARK    1  A    between atoms: C_1  and  O_2
REMARK    2  A    between atoms: O_2  and  C_3
REMARK    3  A    between atoms: C_5  and  C_6
REMARK    4  A    between atoms: C_10  and  C_11
REMARK    5  A    between atoms: C_11  and  O_12
REMARK    6  A    between atoms: O_12  and  C_13
REMARK    7  A    between atoms: C_16  and  C_17
REMARK                            x       y       z     vdW  Elec       q    Type
REMARK                         _______ _______ _______ _____ _____    ______ ____
ROOT
ATOM      1  C   UNL     1      47.563   6.222  12.938  0.00  0.00    +0.000 A 
ATOM      2  C   UNL     1      47.096   5.292  13.886  0.00  0.00    +0.000 A 
ATOM      3  C   UNL     1      45.888   4.612  13.715  0.00  0.00    +0.000 A 
ATOM      4  C   UNL     1      45.115   4.841  12.582  0.00  0.00    +0.000 A 
ATOM      5  C   UNL     1      45.541   5.758  11.617  0.00  0.00    +0.000 A 
ATOM      6  C   UNL     1      46.766   6.425  11.795  0.00  0.00    +0.000 A 
ENDROOT
BRANCH   1   9
ATOM      7  C   UNL     1      50.811   8.067  12.347  0.00  0.00    +0.000 A 
ATOM      8  C   UNL     1      49.618   7.412  12.082  0.00  0.00    +0.000 A 
ATOM      9  C   UNL     1      48.826   6.969  13.150  0.00  0.00    +0.000 A 
ATOM     10  C   UNL     1      49.289   7.260  14.443  0.00  0.00    +0.000 A 
ATOM     11  C   UNL     1      50.487   7.940  14.606  0.00  0.00    +0.000 A 
ATOM     12  N   UNL     1      51.261   8.348  13.586  0.00  0.00    +0.000 NA
BRANCH   7  14
ATOM     13  C   UNL     1      51.722   7.381  10.324  0.00  0.00    +0.000 C 
ATOM     14  O   UNL     1      51.563   8.449  11.253  0.00  0.00    +0.000 OA
ENDBRANCH   7  14
ENDBRANCH   1   9
BRANCH   5  15
ATOM     15  C   UNL     1      44.670   6.068  10.423  0.00  0.00    +0.000 C 
BRANCH  15  16
ATOM     16  O   UNL     1      44.024   4.883   9.954  0.00  0.00    +0.000 OA
BRANCH  16  17
ATOM     17  C   UNL     1      44.876   4.101   9.194  0.00  0.00    +0.000 A 
ATOM     18  N   UNL     1      45.669   4.719   8.282  0.00  0.00    +0.000 NA
ATOM     19  C   UNL     1      46.472   3.938   7.522  0.00  0.00    +0.000 A 
ATOM     20  C   UNL     1      46.525   2.558   7.617  0.00  0.00    +0.000 A 
ATOM     21  C   UNL     1      45.717   1.943   8.582  0.00  0.00    +0.000 A 
ATOM     22  C   UNL     1      44.880   2.720   9.385  0.00  0.00    +0.000 A 
ATOM     23 CL   UNL     1      43.885   1.944  10.556  0.00  0.00    +0.000 Cl
BRANCH  20  24
ATOM     24  C   UNL     1      47.382   1.722   6.743  0.00  0.00    +0.000 C 
ATOM     25  N   UNL     1      48.433   2.301   6.090  0.00  0.00    +0.000 N 
ATOM     26  O   UNL     1      47.148   0.528   6.591  0.00  0.00    +0.000 OA
ATOM     27  H   UNL     1      48.693   3.275   6.105  0.00  0.00    +0.000 HD
ATOM     28  H   UNL     1      48.969   1.695   5.479  0.00  0.00    +0.000 HD
ENDBRANCH  20  24
ENDBRANCH  16  17
ENDBRANCH  15  16
ENDBRANCH   5  15
TORSDOF 6
ENDMDL
MODEL 2
REMARK VINA RESULT:    -7.510      2.600      3.423
REMARK INTER + INTRA:         -11.128
REMARK INTER:                 -10.810
REMARK INTRA:                  -0.317
REMARK UNBOUND:                -0.984
REMARK  Name = 
REMARK  7 active torsions:
REMARK  status: ('A' for Active; 'I' for Inactive)
REMARK    1  A    between atoms: C_1  and  O_2
REMARK    2  A    between atoms: O_2  and  C_3
REMARK    3  A    between atoms: C_5  and  C_6
REMARK    4  A    between atoms: C_10  and  C_11
REMARK    5  A    between atoms: C_11  and  O_12
REMARK    6  A    between atoms: O_12  and  C_13
REMARK    7  A    between atoms: C_16  and  C_17
REMARK                            x       y       z     vdW  Elec       q    Type
REMARK                         _______ _______ _______ _____ _____    ______ ____
ROOT
ATOM      1  C   UNL     1      46.583   6.154  13.464  0.00  0.00    +0.000 A 
ATOM      2  C   UNL     1      46.665   7.431  12.880  0.00  0.00    +0.000 A 
ATOM      3  C   UNL     1      45.865   7.795  11.794  0.00  0.00    +0.000 A 
ATOM      4  C   UNL     1      44.954   6.887  11.265  0.00  0.00    +0.000 A 
ATOM      5  C   UNL     1      44.842   5.606  11.815  0.00  0.00    +0.000 A 
ATOM      6  C   UNL     1      45.643   5.259  12.917  0.00  0.00    +0.000 A 
ENDROOT
BRANCH   1   9
ATOM      7  C   UNL     1      48.102   4.298  16.389  0.00  0.00    +0.000 A 
ATOM      8  C   UNL     1      47.268   4.584  15.318  0.00  0.00    +0.000 A 
ATOM      9  C   UNL     1      47.465   5.765  14.590  0.00  0.00    +0.000 A 
ATOM     10  C   UNL     1      48.542   6.576  14.983  0.00  0.00    +0.000 A 
ATOM     11  C   UNL     1      49.334   6.195  16.055  0.00  0.00    +0.000 A 
ATOM     12  N   UNL     1      49.137   5.073  16.770  0.00  0.00    +0.000 NA
BRANCH   7  14
ATOM     13  C   UNL     1      48.474   3.128  18.360  0.00  0.00    +0.000 C 
ATOM     14  O   UNL     1      47.836   3.136  17.087  0.00  0.00    +0.000 OA
ENDBRANCH   7  14
ENDBRANCH   1   9
BRANCH   5  15
ATOM     15  C   UNL     1      43.911   4.591  11.199  0.00  0.00    +0.000 C 
BRANCH  15  16
ATOM     16  O   UNL     1      43.812   4.793   9.787  0.00  0.00    +0.000 OA
BRANCH  16  17
ATOM     17  C   UNL     1      44.753   4.050   9.096  0.00  0.00    +0.000 A 
ATOM     18  N   UNL     1      45.581   4.702   8.241  0.00  0.00    +0.000 NA
ATOM     19  C   UNL     1      46.472   3.958   7.545  0.00  0.00    +0.000 A 
ATOM     20  C   UNL     1      46.582   2.582   7.652  0.00  0.00    +0.000 A 
ATOM     21  C   UNL     1      45.736   1.932   8.559  0.00  0.00    +0.000 A 
ATOM     22  C   UNL     1      44.807   2.672   9.294  0.00  0.00    +0.000 A 
ATOM     23 CL   UNL     1      43.766   1.852  10.395  0.00  0.00    +0.000 Cl
BRANCH  20  24
ATOM     24  C   UNL     1      47.538   1.785   6.847  0.00  0.00    +0.000 C 
ATOM     25  N   UNL     1      48.593   2.415   6.249  0.00  0.00    +0.000 N 
ATOM     26  O   UNL     1      47.383   0.577   6.703  0.00  0.00    +0.000 OA
ATOM     27  H   UNL     1      48.795   3.403   6.263  0.00  0.00    +0.000 HD
ATOM     28  H   UNL     1      49.199   1.833   5.684  0.00  0.00    +0.000 HD
ENDBRANCH  20  24
ENDBRANCH  16  17
ENDBRANCH  15  16
ENDBRANCH   5  15
TORSDOF 6
ENDMDL
MODEL 3
REMARK VINA RESULT:    -7.368      2.009      6.949
REMARK INTER + INTRA:         -10.936
REMARK INTER:                  -9.674
REMARK INTRA:                  -1.261
REMARK UNBOUND:                -0.984
REMARK  Name = 
REMARK  7 active torsions:
REMARK  status: ('A' for Active; 'I' for Inactive)
REMARK    1  A    between atoms: C_1  and  O_2
REMARK    2  A    between atoms: O_2  and  C_3
REMARK    3  A    between atoms: C_5  and  C_6
REMARK    4  A    between atoms: C_10  and  C_11
REMARK    5  A    between atoms: C_11  and  O_12
REMARK    6  A    between atoms: O_12  and  C_13
REMARK    7  A    between atoms: C_16  and  C_17
REMARK                            x       y       z     vdW  Elec       q    Type
REMARK                         _______ _______ _______ _____ _____    ______ ____
ROOT
ATOM      1  C   UNL     1      44.796   3.446   9.647  0.00  0.00    +0.000 A 
ATOM      2  C   UNL     1      44.089   2.510  10.425  0.00  0.00    +0.000 A 
ATOM      3  C   UNL     1      43.346   2.896  11.543  0.00  0.00    +0.000 A 
ATOM      4  C   UNL     1      43.284   4.236  11.910  0.00  0.00    +0.000 A 
ATOM      5  C   UNL     1      43.973   5.198  11.165  0.00  0.00    +0.000 A 
ATOM      6  C   UNL     1      44.706   4.797  10.033  0.00  0.00    +0.000 A 
ENDROOT
BRANCH   1   9
ATOM      7  C   UNL     1      46.949   1.405   7.302  0.00  0.00    +0.000 A 
ATOM      8  C   UNL     1      46.155   1.730   8.392  0.00  0.00    +0.000 A 
ATOM      9  C   UNL     1      45.615   3.020   8.487  0.00  0.00    +0.000 A 
ATOM     10  C   UNL     1      45.891   3.900   7.429  0.00  0.00    +0.000 A 
ATOM     11  C   UNL     1      46.680   3.475   6.371  0.00  0.00    +0.000 A 
ATOM     12  N   UNL     1      47.218   2.247   6.284  0.00  0.00    +0.000 NA
BRANCH   7  14
ATOM     13  C   UNL     1      46.464  -0.865   7.380  0.00  0.00    +0.000 C 
ATOM     14  O   UNL     1      47.480   0.129   7.282  0.00  0.00    +0.000 OA
ENDBRANCH   7  14
ENDBRANCH   1   9
BRANCH   5  15
ATOM     15  C   UNL     1      43.974   6.643  11.601  0.00  0.00    +0.000 C 
BRANCH  15  16
ATOM     16  O   UNL     1      44.628   6.785  12.863  0.00  0.00    +0.000 OA
BRANCH  16  17
ATOM     17  C   UNL     1      45.986   7.003  12.715  0.00  0.00    +0.000 A 
ATOM     18  N   UNL     1      46.391   8.188  12.189  0.00  0.00    +0.000 NA
ATOM     19  C   UNL     1      47.720   8.373  12.018  0.00  0.00    +0.000 A 
ATOM     20  C   UNL     1      48.682   7.430  12.340  0.00  0.00    +0.000 A 
ATOM     21  C   UNL     1      48.244   6.226  12.905  0.00  0.00    +0.000 A 
ATOM     22  C   UNL     1      46.879   6.004  13.098  0.00  0.00    +0.000 A 
ATOM     23 CL   UNL     1      46.361   4.511  13.782  0.00  0.00    +0.000 Cl
BRANCH  20  24
ATOM     24  C   UNL     1      50.129   7.641  12.104  0.00  0.00    +0.000 C 
ATOM     25  N   UNL     1      50.944   7.918  13.166  0.00  0.00    +0.000 N 
ATOM     26  O   UNL     1      50.595   7.584  10.972  0.00  0.00    +0.000 OA
ATOM     27  H   UNL     1      50.667   8.031  14.128  0.00  0.00    +0.000 HD
ATOM     28  H   UNL     1      51.920   8.086  12.948  0.00  0.00    +0.000 HD
ENDBRANCH  20  24
ENDBRANCH  16  17
ENDBRANCH  15  16
ENDBRANCH   5  15
TORSDOF 6
ENDMDL
MODEL 4
REMARK VINA RESULT:    -7.115      3.785      8.134
REMARK INTER + INTRA:         -10.594
REMARK INTER:                  -9.563
REMARK INTRA:                  -1.031
REMARK UNBOUND:                -0.984
REMARK  Name = 
REMARK  7 active torsions:
REMARK  status: ('A' for Active; 'I' for Inactive)
REMARK    1  A    between atoms: C_1  and  O_2
REMARK    2  A    between atoms: O_2  and  C_3
REMARK    3  A    between atoms: C_5  and  C_6
REMARK    4  A    between atoms: C_10  and  C_11
REMARK    5  A    between atoms: C_11  and  O_12
REMARK    6  A    between atoms: O_12  and  C_13
REMARK    7  A    between atoms: C_16  and  C_17
REMARK                            x       y       z     vdW  Elec       q    Type
REMARK                         _______ _______ _______ _____ _____    ______ ____
ROOT
ATOM      1  C   UNL     1      45.584   6.399  11.382  0.00  0.00    +0.000 A 
ATOM      2  C   UNL     1      44.722   7.511  11.409  0.00  0.00    +0.000 A 
ATOM      3  C   UNL     1      44.995   8.633  12.196  0.00  0.00    +0.000 A 
ATOM      4  C   UNL     1      46.146   8.674  12.975  0.00  0.00    +0.000 A 
ATOM      5  C   UNL     1      47.028   7.589  12.978  0.00  0.00    +0.000 A 
ATOM      6  C   UNL     1      46.748   6.472  12.170  0.00  0.00    +0.000 A 
ENDROOT
BRANCH   1   9
ATOM      7  C   UNL     1      45.322   3.928   8.531  0.00  0.00    +0.000 A 
ATOM      8  C   UNL     1      45.692   5.056   9.248  0.00  0.00    +0.000 A 
ATOM      9  C   UNL     1      45.263   5.198  10.574  0.00  0.00    +0.000 A 
ATOM     10  C   UNL     1      44.503   4.145  11.108  0.00  0.00    +0.000 A 
ATOM     11  C   UNL     1      44.201   3.047  10.318  0.00  0.00    +0.000 A 
ATOM     12  N   UNL     1      44.592   2.915   9.039  0.00  0.00    +0.000 NA
BRANCH   7  14
ATOM     13  C   UNL     1      46.937   3.087   7.089  0.00  0.00    +0.000 C 
ATOM     14  O   UNL     1      45.748   3.862   7.218  0.00  0.00    +0.000 OA
ENDBRANCH   7  14
ENDBRANCH   1   9
BRANCH   5  15
ATOM     15  C   UNL     1      48.239   7.594  13.879  0.00  0.00    +0.000 C 
BRANCH  15  16
ATOM     16  O   UNL     1      48.667   6.258  14.150  0.00  0.00    +0.000 OA
BRANCH  16  17
ATOM     17  C   UNL     1      48.517   5.932  15.486  0.00  0.00    +0.000 A 
ATOM     18  N   UNL     1      49.224   6.643  16.401  0.00  0.00    +0.000 NA
ATOM     19  C   UNL     1      49.093   6.290  17.701  0.00  0.00    +0.000 A 
ATOM     20  C   UNL     1      48.292   5.252  18.146  0.00  0.00    +0.000 A 
ATOM     21  C   UNL     1      47.551   4.549  17.187  0.00  0.00    +0.000 A 
ATOM     22  C   UNL     1      47.660   4.890  15.838  0.00  0.00    +0.000 A 
ATOM     23 CL   UNL     1      46.752   4.005  14.674  0.00  0.00    +0.000 Cl
BRANCH  20  24
ATOM     24  C   UNL     1      48.198   4.859  19.572  0.00  0.00    +0.000 C 
ATOM     25  N   UNL     1      48.524   3.581  19.933  0.00  0.00    +0.000 N 
ATOM     26  O   UNL     1      47.820   5.658  20.420  0.00  0.00    +0.000 OA
ATOM     27  H   UNL     1      48.805   2.832  19.320  0.00  0.00    +0.000 HD
ATOM     28  H   UNL     1      48.413   3.352  20.914  0.00  0.00    +0.000 HD
ENDBRANCH  20  24
ENDBRANCH  16  17
ENDBRANCH  15  16
ENDBRANCH   5  15
TORSDOF 6
ENDMDL
MODEL 5
REMARK VINA RESULT:    -7.002      4.269      8.147
REMARK INTER + INTRA:         -10.442
REMARK INTER:                  -9.536
REMARK INTRA:                  -0.907
REMARK UNBOUND:                -0.984
REMARK  Name = 
REMARK  7 active torsions:
REMARK  status: ('A' for Active; 'I' for Inactive)
REMARK    1  A    between atoms: C_1  and  O_2
REMARK    2  A    between atoms: O_2  and  C_3
REMARK    3  A    between atoms: C_5  and  C_6
REMARK    4  A    between atoms: C_10  and  C_11
REMARK    5  A    between atoms: C_11  and  O_12
REMARK    6  A    between atoms: O_12  and  C_13
REMARK    7  A    between atoms: C_16  and  C_17
REMARK                            x       y       z     vdW  Elec       q    Type
REMARK                         _______ _______ _______ _____ _____    ______ ____
ROOT
ATOM      1  C   UNL     1      46.929   6.307  12.643  0.00  0.00    +0.000 A 
ATOM      2  C   UNL     1      47.518   7.183  11.712  0.00  0.00    +0.000 A 
ATOM      3  C   UNL     1      48.628   7.965  12.039  0.00  0.00    +0.000 A 
ATOM      4  C   UNL     1      49.184   7.887  13.312  0.00  0.00    +0.000 A 
ATOM      5  C   UNL     1      48.627   7.031  14.267  0.00  0.00    +0.000 A 
ATOM      6  C   UNL     1      47.519   6.238  13.919  0.00  0.00    +0.000 A 
ENDROOT
BRANCH   1   9
ATOM      7  C   UNL     1      44.311   4.369  10.720  0.00  0.00    +0.000 A 
ATOM      8  C   UNL     1      45.477   5.071  10.990  0.00  0.00    +0.000 A 
ATOM      9  C   UNL     1      45.726   5.513  12.296  0.00  0.00    +0.000 A 
ATOM     10  C   UNL     1      44.774   5.172  13.270  0.00  0.00    +0.000 A 
ATOM     11  C   UNL     1      43.649   4.448  12.907  0.00  0.00    +0.000 A 
ATOM     12  N   UNL     1      43.394   4.040  11.652  0.00  0.00    +0.000 NA
BRANCH   7  14
ATOM     13  C   UNL     1      44.559   2.660   9.167  0.00  0.00    +0.000 C 
ATOM     14  O   UNL     1      44.107   3.990   9.408  0.00  0.00    +0.000 OA
ENDBRANCH   7  14
ENDBRANCH   1   9
BRANCH   5  15
ATOM     15  C   UNL     1      49.178   6.996  15.672  0.00  0.00    +0.000 C 
BRANCH  15  16
ATOM     16  O   UNL     1      48.488   6.022  16.457  0.00  0.00    +0.000 OA
BRANCH  16  17
ATOM     17  C   UNL     1      49.325   4.993  16.850  0.00  0.00    +0.000 A 
ATOM     18  N   UNL     1      50.644   5.268  17.011  0.00  0.00    +0.000 NA
ATOM     19  C   UNL     1      51.457   4.245  17.362  0.00  0.00    +0.000 A 
ATOM     20  C   UNL     1      51.024   2.944  17.558  0.00  0.00    +0.000 A 
ATOM     21  C   UNL     1      49.655   2.688  17.412  0.00  0.00    +0.000 A 
ATOM     22  C   UNL     1      48.789   3.723  17.054  0.00  0.00    +0.000 A 
ATOM     23 CL   UNL     1      47.111   3.384  16.866  0.00  0.00    +0.000 Cl
BRANCH  20  24
ATOM     24  C   UNL     1      51.941   1.832  17.901  0.00  0.00    +0.000 C 
ATOM     25  N   UNL     1      51.455   0.555  17.938  0.00  0.00    +0.000 N 
ATOM     26  O   UNL     1      53.119   2.047  18.164  0.00  0.00    +0.000 OA
ATOM     27  H   UNL     1      50.502   0.265  17.783  0.00  0.00    +0.000 HD
ATOM     28  H   UNL     1      52.113  -0.166  18.209  0.00  0.00    +0.000 HD
ENDBRANCH  20  24
ENDBRANCH  16  17
ENDBRANCH  15  16
ENDBRANCH   5  15
TORSDOF 6
ENDMDL
MODEL 6
REMARK VINA RESULT:    -6.857      3.657      7.767
REMARK INTER + INTRA:         -10.246
REMARK INTER:                  -9.467
REMARK INTRA:                  -0.780
REMARK UNBOUND:                -0.984
REMARK  Name = 
REMARK  7 active torsions:
REMARK  status: ('A' for Active; 'I' for Inactive)
REMARK    1  A    between atoms: C_1  and  O_2
REMARK    2  A    between atoms: O_2  and  C_3
REMARK    3  A    between atoms: C_5  and  C_6
REMARK    4  A    between atoms: C_10  and  C_11
REMARK    5  A    between atoms: C_11  and  O_12
REMARK    6  A    between atoms: O_12  and  C_13
REMARK    7  A    between atoms: C_16  and  C_17
REMARK                            x       y       z     vdW  Elec       q    Type
REMARK                         _______ _______ _______ _____ _____    ______ ____
ROOT
ATOM      1  C   UNL     1      44.816   4.561  10.180  0.00  0.00    +0.000 A 
ATOM      2  C   UNL     1      43.441   4.674  10.460  0.00  0.00    +0.000 A 
ATOM      3  C   UNL     1      42.959   5.558  11.428  0.00  0.00    +0.000 A 
ATOM      4  C   UNL     1      43.843   6.362  12.139  0.00  0.00    +0.000 A 
ATOM      5  C   UNL     1      45.217   6.280  11.893  0.00  0.00    +0.000 A 
ATOM      6  C   UNL     1      45.688   5.395  10.906  0.00  0.00    +0.000 A 
ENDROOT
BRANCH   1   9
ATOM      7  C   UNL     1      46.302   3.037   7.053  0.00  0.00    +0.000 A 
ATOM      8  C   UNL     1      45.890   3.996   7.967  0.00  0.00    +0.000 A 
ATOM      9  C   UNL     1      45.319   3.589   9.180  0.00  0.00    +0.000 A 
ATOM     10  C   UNL     1      45.239   2.206   9.406  0.00  0.00    +0.000 A 
ATOM     11  C   UNL     1      45.697   1.324   8.440  0.00  0.00    +0.000 A 
ATOM     12  N   UNL     1      46.226   1.708   7.266  0.00  0.00    +0.000 NA
BRANCH   7  14
ATOM     13  C   UNL     1      47.691   2.546   5.259  0.00  0.00    +0.000 C 
ATOM     14  O   UNL     1      46.825   3.502   5.862  0.00  0.00    +0.000 OA
ENDBRANCH   7  14
ENDBRANCH   1   9
BRANCH   5  15
ATOM     15  C   UNL     1      46.189   7.093  12.713  0.00  0.00    +0.000 C 
BRANCH  15  16
ATOM     16  O   UNL     1      47.453   6.431  12.794  0.00  0.00    +0.000 OA
BRANCH  16  17
ATOM     17  C   UNL     1      47.659   5.868  14.041  0.00  0.00    +0.000 A 
ATOM     18  N   UNL     1      47.102   4.656  14.295  0.00  0.00    +0.000 NA
ATOM     19  C   UNL     1      47.283   4.134  15.530  0.00  0.00    +0.000 A 
ATOM     20  C   UNL     1      47.991   4.761  16.541  0.00  0.00    +0.000 A 
ATOM     21  C   UNL     1      48.579   5.999  16.249  0.00  0.00    +0.000 A 
ATOM     22  C   UNL     1      48.414   6.564  14.983  0.00  0.00    +0.000 A 
ATOM     23 CL   UNL     1      49.133   8.092  14.648  0.00  0.00    +0.000 Cl
BRANCH  20  24
ATOM     24  C   UNL     1      48.139   4.187  17.899  0.00  0.00    +0.000 C 
ATOM     25  N   UNL     1      47.604   4.854  18.966  0.00  0.00    +0.000 N 
ATOM     26  O   UNL     1      48.744   3.136  18.074  0.00  0.00    +0.000 OA
ATOM     27  H   UNL     1      47.127   5.742  18.947  0.00  0.00    +0.000 HD
ATOM     28  H   UNL     1      47.760   4.438  19.877  0.00  0.00    +0.000 HD
ENDBRANCH  20  24
ENDBRANCH  16  17
ENDBRANCH  15  16
ENDBRANCH   5  15
TORSDOF 6
ENDMDL
MODEL 7
REMARK VINA RESULT:    -6.676      3.776      8.317
REMARK INTER + INTRA:         -10.001
REMARK INTER:                  -8.961
REMARK INTRA:                  -1.040
REMARK UNBOUND:                -0.984
REMARK  Name = 
REMARK  7 active torsions:
REMARK  status: ('A' for Active; 'I' for Inactive)
REMARK    1  A    between atoms: C_1  and  O_2
REMARK    2  A    between atoms: O_2  and  C_3
REMARK    3  A    between atoms: C_5  and  C_6
REMARK    4  A    between atoms: C_10  and  C_11
REMARK    5  A    between atoms: C_11  and  O_12
REMARK    6  A    between atoms: O_12  and  C_13
REMARK    7  A    between atoms: C_16  and  C_17
REMARK                            x       y       z     vdW  Elec       q    Type
REMARK                         _______ _______ _______ _____ _____    ______ ____
ROOT
ATOM      1  C   UNL     1      45.693   6.639  11.389  0.00  0.00    +0.000 A 
ATOM      2  C   UNL     1      44.888   7.793  11.398  0.00  0.00    +0.000 A 
ATOM      3  C   UNL     1      45.178   8.884  12.221  0.00  0.00    +0.000 A 
ATOM      4  C   UNL     1      46.290   8.851  13.055  0.00  0.00    +0.000 A 
ATOM      5  C   UNL     1      47.115   7.723  13.078  0.00  0.00    +0.000 A 
ATOM      6  C   UNL     1      46.819   6.637  12.233  0.00  0.00    +0.000 A 
ENDROOT
BRANCH   1   9
ATOM      7  C   UNL     1      44.284   3.345  10.177  0.00  0.00    +0.000 A 
ATOM      8  C   UNL     1      44.531   4.432  11.002  0.00  0.00    +0.000 A 
ATOM      9  C   UNL     1      45.352   5.471  10.542  0.00  0.00    +0.000 A 
ATOM     10  C   UNL     1      45.846   5.352   9.233  0.00  0.00    +0.000 A 
ATOM     11  C   UNL     1      45.527   4.235   8.477  0.00  0.00    +0.000 A 
ATOM     12  N   UNL     1      44.757   3.226   8.920  0.00  0.00    +0.000 NA
BRANCH   7  14
ATOM     13  C   UNL     1      43.372   2.447  12.114  0.00  0.00    +0.000 C 
ATOM     14  O   UNL     1      43.495   2.338  10.699  0.00  0.00    +0.000 OA
ENDBRANCH   7  14
ENDBRANCH   1   9
BRANCH   5  15
ATOM     15  C   UNL     1      48.280   7.649  14.035  0.00  0.00    +0.000 C 
BRANCH  15  16
ATOM     16  O   UNL     1      48.761   6.307  14.136  0.00  0.00    +0.000 OA
BRANCH  16  17
ATOM     17  C   UNL     1      48.791   5.870  15.448  0.00  0.00    +0.000 A 
ATOM     18  N   UNL     1      49.697   6.432  16.288  0.00  0.00    +0.000 NA
ATOM     19  C   UNL     1      49.740   5.971  17.560  0.00  0.00    +0.000 A 
ATOM     20  C   UNL     1      48.924   4.963  18.046  0.00  0.00    +0.000 A 
ATOM     21  C   UNL     1      47.979   4.415  17.169  0.00  0.00    +0.000 A 
ATOM     22  C   UNL     1      47.907   4.872  15.852  0.00  0.00    +0.000 A 
ATOM     23 CL   UNL     1      46.747   4.175  14.786  0.00  0.00    +0.000 Cl
BRANCH  20  24
ATOM     24  C   UNL     1      49.019   4.446  19.431  0.00  0.00    +0.000 C 
ATOM     25  N   UNL     1      48.267   3.363  19.791  0.00  0.00    +0.000 N 
ATOM     26  O   UNL     1      49.748   4.987  20.255  0.00  0.00    +0.000 OA
ATOM     27  H   UNL     1      47.605   2.867  19.214  0.00  0.00    +0.000 HD
ATOM     28  H   UNL     1      48.342   3.067  20.757  0.00  0.00    +0.000 HD
ENDBRANCH  20  24
ENDBRANCH  16  17
ENDBRANCH  15  16
ENDBRANCH   5  15
TORSDOF 6
ENDMDL
MODEL 8
REMARK VINA RESULT:    -6.436      4.192      8.565
REMARK INTER + INTRA:          -9.678
REMARK INTER:                  -8.663
REMARK INTRA:                  -1.015
REMARK UNBOUND:                -0.984
REMARK  Name = 
REMARK  7 active torsions:
REMARK  status: ('A' for Active; 'I' for Inactive)
REMARK    1  A    between atoms: C_1  and  O_2
REMARK    2  A    between atoms: O_2  and  C_3
REMARK    3  A    between atoms: C_5  and  C_6
REMARK    4  A    between atoms: C_10  and  C_11
REMARK    5  A    between atoms: C_11  and  O_12
REMARK    6  A    between atoms: O_12  and  C_13
REMARK    7  A    between atoms: C_16  and  C_17
REMARK                            x       y       z     vdW  Elec       q    Type
REMARK                         _______ _______ _______ _____ _____    ______ ____
ROOT
ATOM      1  C   UNL     1      46.270   6.540  12.423  0.00  0.00    +0.000 A 
ATOM      2  C   UNL     1      45.654   7.797  12.566  0.00  0.00    +0.000 A 
ATOM      3  C   UNL     1      46.325   8.885  13.129  0.00  0.00    +0.000 A 
ATOM      4  C   UNL     1      47.640   8.745  13.560  0.00  0.00    +0.000 A 
ATOM      5  C   UNL     1      48.289   7.512  13.438  0.00  0.00    +0.000 A 
ATOM      6  C   UNL     1      47.606   6.429  12.856  0.00  0.00    +0.000 A 
ENDROOT
BRANCH   1   9
ATOM      7  C   UNL     1      44.495   4.199  10.042  0.00  0.00    +0.000 A 
ATOM      8  C   UNL     1      45.225   5.286  10.498  0.00  0.00    +0.000 A 
ATOM      9  C   UNL     1      45.534   5.382  11.862  0.00  0.00    +0.000 A 
ATOM     10  C   UNL     1      45.106   4.326  12.682  0.00  0.00    +0.000 A 
ATOM     11  C   UNL     1      44.399   3.270  12.128  0.00  0.00    +0.000 A 
ATOM     12  N   UNL     1      44.081   3.183  10.825  0.00  0.00    +0.000 NA
BRANCH   7  14
ATOM     13  C   UNL     1      45.231   3.569   7.931  0.00  0.00    +0.000 C 
ATOM     14  O   UNL     1      44.193   4.178   8.694  0.00  0.00    +0.000 OA
ENDBRANCH   7  14
ENDBRANCH   1   9
BRANCH   5  15
ATOM     15  C   UNL     1      49.689   7.332  13.972  0.00  0.00    +0.000 C 
BRANCH  15  16
ATOM     16  O   UNL     1      49.834   7.996  15.229  0.00  0.00    +0.000 OA
BRANCH  16  17
ATOM     17  C   UNL     1      49.546   7.156  16.290  0.00  0.00    +0.000 A 
ATOM     18  N   UNL     1      50.094   5.914  16.289  0.00  0.00    +0.000 NA
ATOM     19  C   UNL     1      49.776   5.091  17.315  0.00  0.00    +0.000 A 
ATOM     20  C   UNL     1      48.927   5.438  18.352  0.00  0.00    +0.000 A 
ATOM     21  C   UNL     1      48.394   6.733  18.347  0.00  0.00    +0.000 A 
ATOM     22  C   UNL     1      48.705   7.608  17.304  0.00  0.00    +0.000 A 
ATOM     23 CL   UNL     1      48.027   9.192  17.309  0.00  0.00    +0.000 Cl
BRANCH  20  24
ATOM     24  C   UNL     1      48.561   4.504  19.442  0.00  0.00    +0.000 C 
ATOM     25  N   UNL     1      48.469   3.167  19.171  0.00  0.00    +0.000 N 
ATOM     26  O   UNL     1      48.326   4.918  20.572  0.00  0.00    +0.000 OA
ATOM     27  H   UNL     1      48.597   2.721  18.276  0.00  0.00    +0.000 HD
ATOM     28  H   UNL     1      48.184   2.574  19.941  0.00  0.00    +0.000 HD
ENDBRANCH  20  24
ENDBRANCH  16  17
ENDBRANCH  15  16
ENDBRANCH   5  15
TORSDOF 6
ENDMDL
MODEL 9
REMARK VINA RESULT:    -6.213      5.305      8.823
REMARK INTER + INTRA:          -9.376
REMARK INTER:                  -8.655
REMARK INTRA:                  -0.721
REMARK UNBOUND:                -0.984
REMARK  Name = 
REMARK  7 active torsions:
REMARK  status: ('A' for Active; 'I' for Inactive)
REMARK    1  A    between atoms: C_1  and  O_2
REMARK    2  A    between atoms: O_2  and  C_3
REMARK    3  A    between atoms: C_5  and  C_6
REMARK    4  A    between atoms: C_10  and  C_11
REMARK    5  A    between atoms: C_11  and  O_12
REMARK    6  A    between atoms: O_12  and  C_13
REMARK    7  A    between atoms: C_16  and  C_17
REMARK                            x       y       z     vdW  Elec       q    Type
REMARK                         _______ _______ _______ _____ _____    ______ ____
ROOT
ATOM      1  C   UNL     1      46.354   5.508  13.478  0.00  0.00    +0.000 A 
ATOM      2  C   UNL     1      47.157   6.663  13.445  0.00  0.00    +0.000 A 
ATOM      3  C   UNL     1      48.178   6.874  14.374  0.00  0.00    +0.000 A 
ATOM      4  C   UNL     1      48.427   5.928  15.363  0.00  0.00    +0.000 A 
ATOM      5  C   UNL     1      47.650   4.767  15.432  0.00  0.00    +0.000 A 
ATOM      6  C   UNL     1      46.635   4.561  14.480  0.00  0.00    +0.000 A 
ENDROOT
BRANCH   1   9
ATOM      7  C   UNL     1      43.947   3.959  11.006  0.00  0.00    +0.000 A 
ATOM      8  C   UNL     1      44.969   4.067  11.937  0.00  0.00    +0.000 A 
ATOM      9  C   UNL     1      45.247   5.315  12.511  0.00  0.00    +0.000 A 
ATOM     10  C   UNL     1      44.426   6.385  12.121  0.00  0.00    +0.000 A 
ATOM     11  C   UNL     1      43.415   6.174  11.197  0.00  0.00    +0.000 A 
ATOM     12  N   UNL     1      43.157   4.984  10.628  0.00  0.00    +0.000 NA
BRANCH   7  14
ATOM     13  C   UNL     1      44.714   2.413   9.452  0.00  0.00    +0.000 C 
ATOM     14  O   UNL     1      43.743   2.710  10.452  0.00  0.00    +0.000 OA
ENDBRANCH   7  14
ENDBRANCH   1   9
BRANCH   5  15
ATOM     15  C   UNL     1      47.864   3.772  16.547  0.00  0.00    +0.000 C 
BRANCH  15  16
ATOM     16  O   UNL     1      48.750   4.307  17.532  0.00  0.00    +0.000 OA
BRANCH  16  17
ATOM     17  C   UNL     1      49.929   3.585  17.607  0.00  0.00    +0.000 A 
ATOM     18  N   UNL     1      49.933   2.316  17.126  0.00  0.00    +0.000 NA
ATOM     19  C   UNL     1      51.082   1.610  17.238  0.00  0.00    +0.000 A 
ATOM     20  C   UNL     1      52.241   2.103  17.815  0.00  0.00    +0.000 A 
ATOM     21  C   UNL     1      52.221   3.423  18.282  0.00  0.00    +0.000 A 
ATOM     22  C   UNL     1      51.052   4.179  18.178  0.00  0.00    +0.000 A 
ATOM     23 CL   UNL     1      51.045   5.796  18.771  0.00  0.00    +0.000 Cl
BRANCH  20  24
ATOM     24  C   UNL     1      53.474   1.295  17.964  0.00  0.00    +0.000 C 
ATOM     25  N   UNL     1      54.162   0.916  16.845  0.00  0.00    +0.000 N 
ATOM     26  O   UNL     1      53.871   0.953  19.073  0.00  0.00    +0.000 OA
ATOM     27  H   UNL     1      53.908   1.101  15.888  0.00  0.00    +0.000 HD
ATOM     28  H   UNL     1      54.980   0.338  16.998  0.00  0.00    +0.000 HD
ENDBRANCH  20  24
ENDBRANCH  16  17
ENDBRANCH  15  16
ENDBRANCH   5  15
TORSDOF 6
ENDMDL
