MODEL 1
REMARK VINA RESULT:    -8.124      0.000      0.000
REMARK INTER + INTRA:         -12.434
REMARK INTER:                 -11.448
REMARK INTRA:                  -0.987
REMARK UNBOUND:                -0.987
REMARK  Name = 
REMARK  8 active torsions:
REMARK  status: ('A' for Active; 'I' for Inactive)
REMARK    1  A    between atoms: C_1  and  C_2
REMARK    2  A    between atoms: C_2  and  C_3
REMARK    3  A    between atoms: C_2  and  C_14
REMARK    4  A    between atoms: C_3  and  N_4
REMARK    5  A    between atoms: N_4  and  C_5
REMARK    6  A    between atoms: C_8  and  C_9
REMARK    7  A    between atoms: C_20  and  O_21
REMARK    8  A    between atoms: O_21  and  C_22
REMARK                            x       y       z     vdW  Elec       q    Type
REMARK                         _______ _______ _______ _____ _____    ______ ____
ROOT
ATOM      1  C   UNL     1      43.031   5.071  13.010  0.00  0.00    +0.000 C 
ATOM      2  C   UNL     1      44.455   4.503  13.096  0.00  0.00    +0.000 C 
ENDROOT
BRANCH   2   3
ATOM      3  C   UNL     1      45.485   5.584  12.742  0.00  0.00    +0.000 A 
ATOM      4  C   UNL     1      45.094   6.703  11.982  0.00  0.00    +0.000 A 
ATOM      5  C   UNL     1      46.016   7.684  11.620  0.00  0.00    +0.000 A 
ATOM      6  C   UNL     1      47.344   7.571  12.026  0.00  0.00    +0.000 A 
ATOM      7  C   UNL     1      47.742   6.480  12.796  0.00  0.00    +0.000 A 
ATOM      8  F   UNL     1      49.026   6.423  13.177  0.00  0.00    +0.000 F 
ATOM      9  C   UNL     1      46.831   5.482  13.158  0.00  0.00    +0.000 A 
BRANCH   9  10
ATOM     10  O   UNL     1      47.122   4.384  13.926  0.00  0.00    +0.000 OA
BRANCH  10  11
ATOM     11  C   UNL     1      47.113   4.435  15.368  0.00  0.00    +0.000 C 
ATOM     12  C   UNL     1      48.161   5.306  16.088  0.00  0.00    +0.000 C 
ATOM     13  N   UNL     1      48.631   4.140  16.851  0.00  0.00    +0.000 NA
ATOM     14  C   UNL     1      47.862   3.235  15.990  0.00  0.00    +0.000 C 
ATOM     15  H   UNL     1      49.639   3.994  16.805  0.00  0.00    +0.000 HD
ENDBRANCH  10  11
ENDBRANCH   9  10
ENDBRANCH   2   3
BRANCH   2  16
ATOM     16  C   UNL     1      44.639   3.258  12.193  0.00  0.00    +0.000 C 
BRANCH  16  17
ATOM     17  N   UNL     1      44.105   3.502  10.850  0.00  0.00    +0.000 N 
ATOM     18  H   UNL     1      43.190   3.076  10.711  0.00  0.00    +0.000 HD
BRANCH  17  19
ATOM     19  C   UNL     1      44.892   3.371   9.708  0.00  0.00    +0.000 A 
ATOM     20  C   UNL     1      45.390   4.441   8.960  0.00  0.00    +0.000 A 
ATOM     21  C   UNL     1      46.170   4.226   7.819  0.00  0.00    +0.000 A 
ATOM     22  C   UNL     1      46.482   2.928   7.405  0.00  0.00    +0.000 A 
ATOM     23  C   UNL     1      45.999   1.846   8.143  0.00  0.00    +0.000 A 
ATOM     24  C   UNL     1      45.220   2.073   9.287  0.00  0.00    +0.000 A 
BRANCH  22  25
ATOM     25  C   UNL     1      47.305   2.763   6.177  0.00  0.00    +0.000 C 
ATOM     26  N   UNL     1      48.630   2.469   6.335  0.00  0.00    +0.000 N 
ATOM     27  O   UNL     1      46.830   2.916   5.056  0.00  0.00    +0.000 OA
ATOM     28  H   UNL     1      49.113   2.564   7.215  0.00  0.00    +0.000 HD
ATOM     29  H   UNL     1      49.188   2.465   5.490  0.00  0.00    +0.000 HD
ENDBRANCH  22  25
ENDBRANCH  17  19
ENDBRANCH  16  17
ENDBRANCH   2  16
TORSDOF 7
ENDMDL
MODEL 2
REMARK VINA RESULT:    -6.663      2.020      2.899
REMARK INTER + INTRA:         -10.377
REMARK INTER:                  -9.222
REMARK INTRA:                  -1.155
REMARK UNBOUND:                -0.987
REMARK  Name = 
REMARK  8 active torsions:
REMARK  status: ('A' for Active; 'I' for Inactive)
REMARK    1  A    between atoms: C_1  and  C_2
REMARK    2  A    between atoms: C_2  and  C_3
REMARK    3  A    between atoms: C_2  and  C_14
REMARK    4  A    between atoms: C_3  and  N_4
REMARK    5  A    between atoms: N_4  and  C_5
REMARK    6  A    between atoms: C_8  and  C_9
REMARK    7  A    between atoms: C_20  and  O_21
REMARK    8  A    between atoms: O_21  and  C_22
REMARK                            x       y       z     vdW  Elec       q    Type
REMARK                         _______ _______ _______ _____ _____    ______ ____
ROOT
ATOM      1  C   UNL     1      44.461   8.631  11.422  0.00  0.00    +0.000 C 
ATOM      2  C   UNL     1      44.908   7.162  11.395  0.00  0.00    +0.000 C 
ENDROOT
BRANCH   2   3
ATOM      3  C   UNL     1      46.278   7.006  12.068  0.00  0.00    +0.000 A 
ATOM      4  C   UNL     1      47.409   7.635  11.510  0.00  0.00    +0.000 A 
ATOM      5  C   UNL     1      48.670   7.485  12.084  0.00  0.00    +0.000 A 
ATOM      6  C   UNL     1      48.822   6.716  13.235  0.00  0.00    +0.000 A 
ATOM      7  C   UNL     1      47.710   6.104  13.810  0.00  0.00    +0.000 A 
ATOM      8  F   UNL     1      47.902   5.388  14.927  0.00  0.00    +0.000 F 
ATOM      9  C   UNL     1      46.439   6.236  13.241  0.00  0.00    +0.000 A 
BRANCH   9  10
ATOM     10  O   UNL     1      45.286   5.690  13.742  0.00  0.00    +0.000 OA
BRANCH  10  11
ATOM     11  C   UNL     1      45.079   4.264  13.805  0.00  0.00    +0.000 C 
ATOM     12  C   UNL     1      45.748   3.368  12.742  0.00  0.00    +0.000 C 
ATOM     13  N   UNL     1      44.440   2.815  12.361  0.00  0.00    +0.000 NA
ATOM     14  C   UNL     1      43.748   3.846  13.141  0.00  0.00    +0.000 C 
ATOM     15  H   UNL     1      44.248   2.857  11.360  0.00  0.00    +0.000 HD
ENDBRANCH  10  11
ENDBRANCH   9  10
ENDBRANCH   2   3
BRANCH   2  16
ATOM     16  C   UNL     1      44.940   6.591   9.956  0.00  0.00    +0.000 C 
BRANCH  16  17
ATOM     17  N   UNL     1      44.525   5.185   9.941  0.00  0.00    +0.000 N 
ATOM     18  H   UNL     1      44.334   4.826  10.875  0.00  0.00    +0.000 HD
BRANCH  17  19
ATOM     19  C   UNL     1      45.181   4.232   9.165  0.00  0.00    +0.000 A 
ATOM     20  C   UNL     1      44.987   2.852   9.272  0.00  0.00    +0.000 A 
ATOM     21  C   UNL     1      45.691   1.958   8.458  0.00  0.00    +0.000 A 
ATOM     22  C   UNL     1      46.599   2.426   7.506  0.00  0.00    +0.000 A 
ATOM     23  C   UNL     1      46.803   3.801   7.380  0.00  0.00    +0.000 A 
ATOM     24  C   UNL     1      46.090   4.689   8.199  0.00  0.00    +0.000 A 
BRANCH  22  25
ATOM     25  C   UNL     1      47.327   1.425   6.679  0.00  0.00    +0.000 C 
ATOM     26  N   UNL     1      48.278   1.887   5.813  0.00  0.00    +0.000 N 
ATOM     27  O   UNL     1      47.068   0.228   6.738  0.00  0.00    +0.000 OA
ATOM     28  H   UNL     1      48.362   2.860   5.558  0.00  0.00    +0.000 HD
ATOM     29  H   UNL     1      48.682   1.200   5.190  0.00  0.00    +0.000 HD
ENDBRANCH  22  25
ENDBRANCH  17  19
ENDBRANCH  16  17
ENDBRANCH   2  16
TORSDOF 7
ENDMDL
MODEL 3
REMARK VINA RESULT:    -6.551      3.078      5.319
REMARK INTER + INTRA:         -10.219
REMARK INTER:                  -9.286
REMARK INTRA:                  -0.933
REMARK UNBOUND:                -0.987
REMARK  Name = 
REMARK  8 active torsions:
REMARK  status: ('A' for Active; 'I' for Inactive)
REMARK    1  A    between atoms: C_1  and  C_2
REMARK    2  A    between atoms: C_2  and  C_3
REMARK    3  A    between atoms: C_2  and  C_14
REMARK    4  A    between atoms: C_3  and  N_4
REMARK    5  A    between atoms: N_4  and  C_5
REMARK    6  A    between atoms: C_8  and  C_9
REMARK    7  A    between atoms: C_20  and  O_21
REMARK    8  A    between atoms: O_21  and  C_22
REMARK                            x       y       z     vdW  Elec       q    Type
REMARK                         _______ _______ _______ _____ _____    ______ ____
ROOT
ATOM      1  C   UNL     1      48.683   8.837  15.639  0.00  0.00    +0.000 C 
ATOM      2  C   UNL     1      48.766   7.304  15.599  0.00  0.00    +0.000 C 
ENDROOT
BRANCH   2   3
ATOM      3  C   UNL     1      50.150   6.830  16.061  0.00  0.00    +0.000 A 
ATOM      4  C   UNL     1      51.310   7.428  15.530  0.00  0.00    +0.000 A 
ATOM      5  C   UNL     1      52.580   6.997  15.910  0.00  0.00    +0.000 A 
ATOM      6  C   UNL     1      52.713   5.967  16.839  0.00  0.00    +0.000 A 
ATOM      7  C   UNL     1      51.575   5.379  17.388  0.00  0.00    +0.000 A 
ATOM      8  F   UNL     1      51.754   4.404  18.291  0.00  0.00    +0.000 F 
ATOM      9  C   UNL     1      50.295   5.794  17.010  0.00  0.00    +0.000 A 
BRANCH   9  10
ATOM     10  O   UNL     1      49.120   5.291  17.506  0.00  0.00    +0.000 OA
BRANCH  10  11
ATOM     11  C   UNL     1      48.581   4.028  17.064  0.00  0.00    +0.000 C 
ATOM     12  C   UNL     1      47.103   3.963  16.626  0.00  0.00    +0.000 C 
ATOM     13  N   UNL     1      46.839   2.908  17.616  0.00  0.00    +0.000 NA
ATOM     14  C   UNL     1      48.140   3.143  18.251  0.00  0.00    +0.000 C 
ATOM     15  H   UNL     1      46.043   3.101  18.224  0.00  0.00    +0.000 HD
ENDBRANCH  10  11
ENDBRANCH   9  10
ENDBRANCH   2   3
BRANCH   2  16
ATOM     16  C   UNL     1      48.439   6.743  14.193  0.00  0.00    +0.000 C 
BRANCH  16  17
ATOM     17  N   UNL     1      47.049   7.025  13.827  0.00  0.00    +0.000 N 
ATOM     18  H   UNL     1      46.472   7.256  14.635  0.00  0.00    +0.000 HD
BRANCH  17  19
ATOM     19  C   UNL     1      46.346   6.227  12.926  0.00  0.00    +0.000 A 
ATOM     20  C   UNL     1      45.633   5.078  13.274  0.00  0.00    +0.000 A 
ATOM     21  C   UNL     1      44.957   4.325  12.306  0.00  0.00    +0.000 A 
ATOM     22  C   UNL     1      44.970   4.715  10.965  0.00  0.00    +0.000 A 
ATOM     23  C   UNL     1      45.673   5.865  10.599  0.00  0.00    +0.000 A 
ATOM     24  C   UNL     1      46.345   6.613  11.577  0.00  0.00    +0.000 A 
BRANCH  22  25
ATOM     25  C   UNL     1      44.244   3.867   9.981  0.00  0.00    +0.000 C 
ATOM     26  N   UNL     1      44.127   4.336   8.702  0.00  0.00    +0.000 N 
ATOM     27  O   UNL     1      43.734   2.799  10.301  0.00  0.00    +0.000 OA
ATOM     28  H   UNL     1      44.317   5.294   8.450  0.00  0.00    +0.000 HD
ATOM     29  H   UNL     1      43.541   3.792   8.082  0.00  0.00    +0.000 HD
ENDBRANCH  22  25
ENDBRANCH  17  19
ENDBRANCH  16  17
ENDBRANCH   2  16
TORSDOF 7
ENDMDL
MODEL 4
REMARK VINA RESULT:    -6.287      3.435      7.742
REMARK INTER + INTRA:          -9.846
REMARK INTER:                  -9.014
REMARK INTRA:                  -0.831
REMARK UNBOUND:                -0.987
REMARK  Name = 
REMARK  8 active torsions:
REMARK  status: ('A' for Active; 'I' for Inactive)
REMARK    1  A    between atoms: C_1  and  C_2
REMARK    2  A    between atoms: C_2  and  C_3
REMARK    3  A    between atoms: C_2  and  C_14
REMARK    4  A    between atoms: C_3  and  N_4
REMARK    5  A    between atoms: N_4  and  C_5
REMARK    6  A    between atoms: C_8  and  C_9
REMARK    7  A    between atoms: C_20  and  O_21
REMARK    8  A    between atoms: O_21  and  C_22
REMARK                            x       y       z     vdW  Elec       q    Type
REMARK                         _______ _______ _______ _____ _____    ______ ____
ROOT
ATOM      1  C   UNL     1      47.079   3.312  13.648  0.00  0.00    +0.000 C 
ATOM      2  C   UNL     1      46.489   4.531  14.372  0.00  0.00    +0.000 C 
ENDROOT
BRANCH   2   3
ATOM      3  C   UNL     1      46.651   5.794  13.517  0.00  0.00    +0.000 A 
ATOM      4  C   UNL     1      47.939   6.296  13.245  0.00  0.00    +0.000 A 
ATOM      5  C   UNL     1      48.114   7.458  12.496  0.00  0.00    +0.000 A 
ATOM      6  C   UNL     1      47.003   8.132  11.992  0.00  0.00    +0.000 A 
ATOM      7  C   UNL     1      45.724   7.637  12.236  0.00  0.00    +0.000 A 
ATOM      8  F   UNL     1      44.687   8.310  11.716  0.00  0.00    +0.000 F 
ATOM      9  C   UNL     1      45.532   6.478  12.994  0.00  0.00    +0.000 A 
BRANCH   9  10
ATOM     10  O   UNL     1      44.317   5.905  13.271  0.00  0.00    +0.000 OA
BRANCH  10  11
ATOM     11  C   UNL     1      43.645   5.043  12.328  0.00  0.00    +0.000 C 
ATOM     12  C   UNL     1      44.386   4.628  11.041  0.00  0.00    +0.000 C 
ATOM     13  N   UNL     1      43.296   5.175  10.219  0.00  0.00    +0.000 NA
ATOM     14  C   UNL     1      42.710   5.837  11.388  0.00  0.00    +0.000 C 
ATOM     15  H   UNL     1      43.608   5.821   9.493  0.00  0.00    +0.000 HD
ENDBRANCH  10  11
ENDBRANCH   9  10
ENDBRANCH   2   3
BRANCH   2  16
ATOM     16  C   UNL     1      47.120   4.735  15.772  0.00  0.00    +0.000 C 
BRANCH  16  17
ATOM     17  N   UNL     1      47.558   3.458  16.341  0.00  0.00    +0.000 N 
ATOM     18  H   UNL     1      46.873   3.063  16.984  0.00  0.00    +0.000 HD
BRANCH  17  19
ATOM     19  C   UNL     1      48.853   3.268  16.816  0.00  0.00    +0.000 A 
ATOM     20  C   UNL     1      49.614   4.247  17.461  0.00  0.00    +0.000 A 
ATOM     21  C   UNL     1      50.914   3.978  17.904  0.00  0.00    +0.000 A 
ATOM     22  C   UNL     1      51.480   2.714  17.722  0.00  0.00    +0.000 A 
ATOM     23  C   UNL     1      50.734   1.721  17.085  0.00  0.00    +0.000 A 
ATOM     24  C   UNL     1      49.431   2.000  16.647  0.00  0.00    +0.000 A 
BRANCH  22  25
ATOM     25  C   UNL     1      52.871   2.493  18.203  0.00  0.00    +0.000 C 
ATOM     26  N   UNL     1      53.150   2.802  19.505  0.00  0.00    +0.000 N 
ATOM     27  O   UNL     1      53.754   2.080  17.458  0.00  0.00    +0.000 OA
ATOM     28  H   UNL     1      52.534   3.354  20.082  0.00  0.00    +0.000 HD
ATOM     29  H   UNL     1      54.123   2.741  19.777  0.00  0.00    +0.000 HD
ENDBRANCH  22  25
ENDBRANCH  17  19
ENDBRANCH  16  17
ENDBRANCH   2  16
TORSDOF 7
ENDMDL
MODEL 5
REMARK VINA RESULT:    -6.278      3.695      5.722
REMARK INTER + INTRA:          -9.834
REMARK INTER:                  -8.672
REMARK INTRA:                  -1.162
REMARK UNBOUND:                -0.987
REMARK  Name = 
REMARK  8 active torsions:
REMARK  status: ('A' for Active; 'I' for Inactive)
REMARK    1  A    between atoms: C_1  and  C_2
REMARK    2  A    between atoms: C_2  and  C_3
REMARK    3  A    between atoms: C_2  and  C_14
REMARK    4  A    between atoms: C_3  and  N_4
REMARK    5  A    between atoms: N_4  and  C_5
REMARK    6  A    between atoms: C_8  and  C_9
REMARK    7  A    between atoms: C_20  and  O_21
REMARK    8  A    between atoms: O_21  and  C_22
REMARK                            x       y       z     vdW  Elec       q    Type
REMARK                         _______ _______ _______ _____ _____    ______ ____
ROOT
ATOM      1  C   UNL     1      48.250   9.170  15.851  0.00  0.00    +0.000 C 
ATOM      2  C   UNL     1      48.648   7.762  15.384  0.00  0.00    +0.000 C 
ENDROOT
BRANCH   2   3
ATOM      3  C   UNL     1      49.951   7.321  16.062  0.00  0.00    +0.000 A 
ATOM      4  C   UNL     1      50.970   8.263  16.305  0.00  0.00    +0.000 A 
ATOM      5  C   UNL     1      52.175   7.883  16.892  0.00  0.00    +0.000 A 
ATOM      6  C   UNL     1      52.378   6.555  17.261  0.00  0.00    +0.000 A 
ATOM      7  C   UNL     1      51.373   5.615  17.046  0.00  0.00    +0.000 A 
ATOM      8  F   UNL     1      51.607   4.353  17.434  0.00  0.00    +0.000 F 
ATOM      9  C   UNL     1      50.161   5.979  16.449  0.00  0.00    +0.000 A 
BRANCH   9  10
ATOM     10  O   UNL     1      49.109   5.133  16.214  0.00  0.00    +0.000 OA
BRANCH  10  11
ATOM     11  C   UNL     1      48.578   4.268  17.240  0.00  0.00    +0.000 C 
ATOM     12  C   UNL     1      47.962   2.916  16.828  0.00  0.00    +0.000 C 
ATOM     13  N   UNL     1      46.696   3.274  17.484  0.00  0.00    +0.000 NA
ATOM     14  C   UNL     1      47.137   4.663  17.637  0.00  0.00    +0.000 C 
ATOM     15  H   UNL     1      45.875   3.166  16.887  0.00  0.00    +0.000 HD
ENDBRANCH  10  11
ENDBRANCH   9  10
ENDBRANCH   2   3
BRANCH   2  16
ATOM     16  C   UNL     1      48.780   7.679  13.843  0.00  0.00    +0.000 C 
BRANCH  16  17
ATOM     17  N   UNL     1      48.420   6.343  13.358  0.00  0.00    +0.000 N 
ATOM     18  H   UNL     1      49.137   5.940  12.758  0.00  0.00    +0.000 HD
BRANCH  17  19
ATOM     19  C   UNL     1      47.146   6.054  12.874  0.00  0.00    +0.000 A 
ATOM     20  C   UNL     1      46.629   6.528  11.666  0.00  0.00    +0.000 A 
ATOM     21  C   UNL     1      45.334   6.195  11.253  0.00  0.00    +0.000 A 
ATOM     22  C   UNL     1      44.528   5.366  12.036  0.00  0.00    +0.000 A 
ATOM     23  C   UNL     1      45.029   4.877  13.245  0.00  0.00    +0.000 A 
ATOM     24  C   UNL     1      46.329   5.215  13.648  0.00  0.00    +0.000 A 
BRANCH  22  25
ATOM     25  C   UNL     1      43.156   5.058  11.550  0.00  0.00    +0.000 C 
ATOM     26  N   UNL     1      42.194   6.015  11.715  0.00  0.00    +0.000 N 
ATOM     27  O   UNL     1      42.877   3.975  11.048  0.00  0.00    +0.000 OA
ATOM     28  H   UNL     1      42.311   6.813  12.321  0.00  0.00    +0.000 HD
ATOM     29  H   UNL     1      41.250   5.743  11.472  0.00  0.00    +0.000 HD
ENDBRANCH  22  25
ENDBRANCH  17  19
ENDBRANCH  16  17
ENDBRANCH   2  16
TORSDOF 7
ENDMDL
MODEL 6
REMARK VINA RESULT:    -6.051      2.450      7.355
REMARK INTER + INTRA:          -9.514
REMARK INTER:                  -8.940
REMARK INTRA:                  -0.573
REMARK UNBOUND:                -0.987
REMARK  Name = 
REMARK  8 active torsions:
REMARK  status: ('A' for Active; 'I' for Inactive)
REMARK    1  A    between atoms: C_1  and  C_2
REMARK    2  A    between atoms: C_2  and  C_3
REMARK    3  A    between atoms: C_2  and  C_14
REMARK    4  A    between atoms: C_3  and  N_4
REMARK    5  A    between atoms: N_4  and  C_5
REMARK    6  A    between atoms: C_8  and  C_9
REMARK    7  A    between atoms: C_20  and  O_21
REMARK    8  A    between atoms: O_21  and  C_22
REMARK                            x       y       z     vdW  Elec       q    Type
REMARK                         _______ _______ _______ _____ _____    ______ ____
ROOT
ATOM      1  C   UNL     1      45.156   8.131  11.653  0.00  0.00    +0.000 C 
ATOM      2  C   UNL     1      45.700   6.831  11.042  0.00  0.00    +0.000 C 
ENDROOT
BRANCH   2   3
ATOM      3  C   UNL     1      44.786   5.650  11.393  0.00  0.00    +0.000 A 
ATOM      4  C   UNL     1      43.898   5.750  12.482  0.00  0.00    +0.000 A 
ATOM      5  C   UNL     1      43.078   4.681  12.842  0.00  0.00    +0.000 A 
ATOM      6  C   UNL     1      43.122   3.497  12.109  0.00  0.00    +0.000 A 
ATOM      7  C   UNL     1      43.981   3.389  11.017  0.00  0.00    +0.000 A 
ATOM      8  F   UNL     1      43.976   2.237  10.333  0.00  0.00    +0.000 F 
ATOM      9  C   UNL     1      44.817   4.449  10.650  0.00  0.00    +0.000 A 
BRANCH   9  10
ATOM     10  O   UNL     1      45.679   4.446   9.584  0.00  0.00    +0.000 OA
BRANCH  10  11
ATOM     11  C   UNL     1      45.423   3.667   8.396  0.00  0.00    +0.000 C 
ATOM     12  C   UNL     1      46.052   2.264   8.278  0.00  0.00    +0.000 C 
ATOM     13  N   UNL     1      46.704   2.645   7.016  0.00  0.00    +0.000 NA
ATOM     14  C   UNL     1      46.372   4.055   7.240  0.00  0.00    +0.000 C 
ATOM     15  H   UNL     1      47.706   2.456   6.995  0.00  0.00    +0.000 HD
ENDBRANCH  10  11
ENDBRANCH   9  10
ENDBRANCH   2   3
BRANCH   2  16
ATOM     16  C   UNL     1      47.155   6.546  11.487  0.00  0.00    +0.000 C 
BRANCH  16  17
ATOM     17  N   UNL     1      47.415   7.102  12.818  0.00  0.00    +0.000 N 
ATOM     18  H   UNL     1      48.120   7.838  12.801  0.00  0.00    +0.000 HD
BRANCH  17  19
ATOM     19  C   UNL     1      47.569   6.291  13.939  0.00  0.00    +0.000 A 
ATOM     20  C   UNL     1      46.953   5.049  14.111  0.00  0.00    +0.000 A 
ATOM     21  C   UNL     1      47.154   4.296  15.273  0.00  0.00    +0.000 A 
ATOM     22  C   UNL     1      47.989   4.765  16.290  0.00  0.00    +0.000 A 
ATOM     23  C   UNL     1      48.618   6.002  16.134  0.00  0.00    +0.000 A 
ATOM     24  C   UNL     1      48.412   6.747  14.964  0.00  0.00    +0.000 A 
BRANCH  22  25
ATOM     25  C   UNL     1      48.153   3.925  17.507  0.00  0.00    +0.000 C 
ATOM     26  N   UNL     1      47.401   4.241  18.603  0.00  0.00    +0.000 N 
ATOM     27  O   UNL     1      48.957   2.999  17.549  0.00  0.00    +0.000 OA
ATOM     28  H   UNL     1      46.911   5.118  18.698  0.00  0.00    +0.000 HD
ATOM     29  H   UNL     1      47.607   3.723  19.447  0.00  0.00    +0.000 HD
ENDBRANCH  22  25
ENDBRANCH  17  19
ENDBRANCH  16  17
ENDBRANCH   2  16
TORSDOF 7
ENDMDL
MODEL 7
REMARK VINA RESULT:    -5.858      3.160      5.803
REMARK INTER + INTRA:          -9.242
REMARK INTER:                  -7.987
REMARK INTRA:                  -1.255
REMARK UNBOUND:                -0.987
REMARK  Name = 
REMARK  8 active torsions:
REMARK  status: ('A' for Active; 'I' for Inactive)
REMARK    1  A    between atoms: C_1  and  C_2
REMARK    2  A    between atoms: C_2  and  C_3
REMARK    3  A    between atoms: C_2  and  C_14
REMARK    4  A    between atoms: C_3  and  N_4
REMARK    5  A    between atoms: N_4  and  C_5
REMARK    6  A    between atoms: C_8  and  C_9
REMARK    7  A    between atoms: C_20  and  O_21
REMARK    8  A    between atoms: O_21  and  C_22
REMARK                            x       y       z     vdW  Elec       q    Type
REMARK                         _______ _______ _______ _____ _____    ______ ____
ROOT
ATOM      1  C   UNL     1      48.679   2.337  16.650  0.00  0.00    +0.000 C 
ATOM      2  C   UNL     1      48.573   3.864  16.533  0.00  0.00    +0.000 C 
ENDROOT
BRANCH   2   3
ATOM      3  C   UNL     1      49.110   4.538  17.802  0.00  0.00    +0.000 A 
ATOM      4  C   UNL     1      48.685   4.089  19.068  0.00  0.00    +0.000 A 
ATOM      5  C   UNL     1      49.133   4.703  20.237  0.00  0.00    +0.000 A 
ATOM      6  C   UNL     1      50.027   5.769  20.160  0.00  0.00    +0.000 A 
ATOM      7  C   UNL     1      50.473   6.212  18.917  0.00  0.00    +0.000 A 
ATOM      8  F   UNL     1      51.346   7.229  18.895  0.00  0.00    +0.000 F 
ATOM      9  C   UNL     1      50.024   5.613  17.735  0.00  0.00    +0.000 A 
BRANCH   9  10
ATOM     10  O   UNL     1      50.418   5.964  16.470  0.00  0.00    +0.000 OA
BRANCH  10  11
ATOM     11  C   UNL     1      50.184   7.284  15.935  0.00  0.00    +0.000 C 
ATOM     12  C   UNL     1      48.830   7.969  16.211  0.00  0.00    +0.000 C 
ATOM     13  N   UNL     1      48.597   8.128  14.768  0.00  0.00    +0.000 NA
ATOM     14  C   UNL     1      49.718   7.233  14.462  0.00  0.00    +0.000 C 
ATOM     15  H   UNL     1      47.693   7.777  14.453  0.00  0.00    +0.000 HD
ENDBRANCH  10  11
ENDBRANCH   9  10
ENDBRANCH   2   3
BRANCH   2  16
ATOM     16  C   UNL     1      47.123   4.324  16.244  0.00  0.00    +0.000 C 
BRANCH  16  17
ATOM     17  N   UNL     1      47.080   5.226  15.089  0.00  0.00    +0.000 N 
ATOM     18  H   UNL     1      46.923   6.196  15.358  0.00  0.00    +0.000 HD
BRANCH  17  19
ATOM     19  C   UNL     1      46.370   4.909  13.933  0.00  0.00    +0.000 A 
ATOM     20  C   UNL     1      45.622   5.822  13.185  0.00  0.00    +0.000 A 
ATOM     21  C   UNL     1      44.930   5.423  12.036  0.00  0.00    +0.000 A 
ATOM     22  C   UNL     1      44.983   4.097  11.599  0.00  0.00    +0.000 A 
ATOM     23  C   UNL     1      45.731   3.171  12.329  0.00  0.00    +0.000 A 
ATOM     24  C   UNL     1      46.422   3.582  13.478  0.00  0.00    +0.000 A 
BRANCH  22  25
ATOM     25  C   UNL     1      44.217   3.730  10.377  0.00  0.00    +0.000 C 
ATOM     26  N   UNL     1      43.977   4.713   9.459  0.00  0.00    +0.000 N 
ATOM     27  O   UNL     1      43.781   2.597  10.205  0.00  0.00    +0.000 OA
ATOM     28  H   UNL     1      44.105   5.694   9.658  0.00  0.00    +0.000 HD
ATOM     29  H   UNL     1      43.367   4.464   8.691  0.00  0.00    +0.000 HD
ENDBRANCH  22  25
ENDBRANCH  17  19
ENDBRANCH  16  17
ENDBRANCH   2  16
TORSDOF 7
ENDMDL
MODEL 8
REMARK VINA RESULT:    -5.820      3.575      7.502
REMARK INTER + INTRA:          -9.188
REMARK INTER:                  -8.086
REMARK INTRA:                  -1.102
REMARK UNBOUND:                -0.987
REMARK  Name = 
REMARK  8 active torsions:
REMARK  status: ('A' for Active; 'I' for Inactive)
REMARK    1  A    between atoms: C_1  and  C_2
REMARK    2  A    between atoms: C_2  and  C_3
REMARK    3  A    between atoms: C_2  and  C_14
REMARK    4  A    between atoms: C_3  and  N_4
REMARK    5  A    between atoms: N_4  and  C_5
REMARK    6  A    between atoms: C_8  and  C_9
REMARK    7  A    between atoms: C_20  and  O_21
REMARK    8  A    between atoms: O_21  and  C_22
REMARK                            x       y       z     vdW  Elec       q    Type
REMARK                         _______ _______ _______ _____ _____    ______ ____
ROOT
ATOM      1  C   UNL     1      49.402   8.300  11.789  0.00  0.00    +0.000 C 
ATOM      2  C   UNL     1      48.313   7.764  12.730  0.00  0.00    +0.000 C 
ENDROOT
BRANCH   2   3
ATOM      3  C   UNL     1      46.923   8.192  12.242  0.00  0.00    +0.000 A 
ATOM      4  C   UNL     1      46.592   9.559  12.181  0.00  0.00    +0.000 A 
ATOM      5  C   UNL     1      45.326   9.975  11.770  0.00  0.00    +0.000 A 
ATOM      6  C   UNL     1      44.373   9.029  11.397  0.00  0.00    +0.000 A 
ATOM      7  C   UNL     1      44.692   7.673  11.433  0.00  0.00    +0.000 A 
ATOM      8  F   UNL     1      43.749   6.802  11.049  0.00  0.00    +0.000 F 
ATOM      9  C   UNL     1      45.954   7.241  11.853  0.00  0.00    +0.000 A 
BRANCH   9  10
ATOM     10  O   UNL     1      46.367   5.935  11.904  0.00  0.00    +0.000 OA
BRANCH  10  11
ATOM     11  C   UNL     1      45.780   4.981  12.814  0.00  0.00    +0.000 C 
ATOM     12  C   UNL     1      46.673   3.871  13.405  0.00  0.00    +0.000 C 
ATOM     13  N   UNL     1      45.767   2.840  12.879  0.00  0.00    +0.000 NA
ATOM     14  C   UNL     1      45.064   3.835  12.064  0.00  0.00    +0.000 C 
ATOM     15  H   UNL     1      46.235   2.117  12.332  0.00  0.00    +0.000 HD
ENDBRANCH  10  11
ENDBRANCH   9  10
ENDBRANCH   2   3
BRANCH   2  16
ATOM     16  C   UNL     1      48.539   8.215  14.194  0.00  0.00    +0.000 C 
BRANCH  16  17
ATOM     17  N   UNL     1      48.021   7.218  15.136  0.00  0.00    +0.000 N 
ATOM     18  H   UNL     1      47.258   7.580  15.706  0.00  0.00    +0.000 HD
BRANCH  17  19
ATOM     19  C   UNL     1      48.866   6.409  15.891  0.00  0.00    +0.000 A 
ATOM     20  C   UNL     1      50.211   6.686  16.148  0.00  0.00    +0.000 A 
ATOM     21  C   UNL     1      50.997   5.817  16.913  0.00  0.00    +0.000 A 
ATOM     22  C   UNL     1      50.448   4.651  17.452  0.00  0.00    +0.000 A 
ATOM     23  C   UNL     1      49.104   4.359  17.212  0.00  0.00    +0.000 A 
ATOM     24  C   UNL     1      48.326   5.238  16.446  0.00  0.00    +0.000 A 
BRANCH  22  25
ATOM     25  C   UNL     1      51.337   3.760  18.246  0.00  0.00    +0.000 C 
ATOM     26  N   UNL     1      51.173   2.410  18.105  0.00  0.00    +0.000 N 
ATOM     27  O   UNL     1      52.168   4.208  19.029  0.00  0.00    +0.000 OA
ATOM     28  H   UNL     1      50.365   1.998  17.665  0.00  0.00    +0.000 HD
ATOM     29  H   UNL     1      51.716   1.829  18.732  0.00  0.00    +0.000 HD
ENDBRANCH  22  25
ENDBRANCH  17  19
ENDBRANCH  16  17
ENDBRANCH   2  16
TORSDOF 7
ENDMDL
MODEL 9
REMARK VINA RESULT:    -5.585      3.311      5.280
REMARK INTER + INTRA:          -8.857
REMARK INTER:                  -7.814
REMARK INTRA:                  -1.042
REMARK UNBOUND:                -0.987
REMARK  Name = 
REMARK  8 active torsions:
REMARK  status: ('A' for Active; 'I' for Inactive)
REMARK    1  A    between atoms: C_1  and  C_2
REMARK    2  A    between atoms: C_2  and  C_3
REMARK    3  A    between atoms: C_2  and  C_14
REMARK    4  A    between atoms: C_3  and  N_4
REMARK    5  A    between atoms: N_4  and  C_5
REMARK    6  A    between atoms: C_8  and  C_9
REMARK    7  A    between atoms: C_20  and  O_21
REMARK    8  A    between atoms: O_21  and  C_22
REMARK                            x       y       z     vdW  Elec       q    Type
REMARK                         _______ _______ _______ _____ _____    ______ ____
ROOT
ATOM      1  C   UNL     1      48.941   6.689  12.674  0.00  0.00    +0.000 C 
ATOM      2  C   UNL     1      48.418   7.405  13.928  0.00  0.00    +0.000 C 
ENDROOT
BRANCH   2   3
ATOM      3  C   UNL     1      48.392   6.444  15.123  0.00  0.00    +0.000 A 
ATOM      4  C   UNL     1      47.665   5.241  15.040  0.00  0.00    +0.000 A 
ATOM      5  C   UNL     1      47.600   4.364  16.122  0.00  0.00    +0.000 A 
ATOM      6  C   UNL     1      48.274   4.668  17.302  0.00  0.00    +0.000 A 
ATOM      7  C   UNL     1      49.015   5.845  17.393  0.00  0.00    +0.000 A 
ATOM      8  F   UNL     1      49.661   6.086  18.543  0.00  0.00    +0.000 F 
ATOM      9  C   UNL     1      49.081   6.739  16.320  0.00  0.00    +0.000 A 
BRANCH   9  10
ATOM     10  O   UNL     1      49.796   7.909  16.307  0.00  0.00    +0.000 OA
BRANCH  10  11
ATOM     11  C   UNL     1      49.397   9.058  17.082  0.00  0.00    +0.000 C 
ATOM     12  C   UNL     1      47.904   9.245  17.421  0.00  0.00    +0.000 C 
ATOM     13  N   UNL     1      47.910  10.573  16.790  0.00  0.00    +0.000 NA
ATOM     14  C   UNL     1      49.227  10.316  16.200  0.00  0.00    +0.000 C 
ATOM     15  H   UNL     1      47.169  10.708  16.101  0.00  0.00    +0.000 HD
ENDBRANCH  10  11
ENDBRANCH   9  10
ENDBRANCH   2   3
BRANCH   2  16
ATOM     16  C   UNL     1      47.018   8.027  13.699  0.00  0.00    +0.000 C 
BRANCH  16  17
ATOM     17  N   UNL     1      46.525   7.725  12.352  0.00  0.00    +0.000 N 
ATOM     18  H   UNL     1      46.057   8.522  11.921  0.00  0.00    +0.000 HD
BRANCH  17  19
ATOM     19  C   UNL     1      45.857   6.539  12.060  0.00  0.00    +0.000 A 
ATOM     20  C   UNL     1      45.148   5.777  12.992  0.00  0.00    +0.000 A 
ATOM     21  C   UNL     1      44.507   4.590  12.619  0.00  0.00    +0.000 A 
ATOM     22  C   UNL     1      44.551   4.143  11.296  0.00  0.00    +0.000 A 
ATOM     23  C   UNL     1      45.249   4.894  10.348  0.00  0.00    +0.000 A 
ATOM     24  C   UNL     1      45.886   6.083  10.732  0.00  0.00    +0.000 A 
BRANCH  22  25
ATOM     25  C   UNL     1      43.861   2.867  10.963  0.00  0.00    +0.000 C 
ATOM     26  N   UNL     1      44.346   2.138   9.915  0.00  0.00    +0.000 N 
ATOM     27  O   UNL     1      42.870   2.489  11.579  0.00  0.00    +0.000 OA
ATOM     28  H   UNL     1      44.996   2.511   9.240  0.00  0.00    +0.000 HD
ATOM     29  H   UNL     1      43.798   1.331   9.644  0.00  0.00    +0.000 HD
ENDBRANCH  22  25
ENDBRANCH  17  19
ENDBRANCH  16  17
ENDBRANCH   2  16
TORSDOF 7
ENDMDL
