MODEL 1
REMARK VINA RESULT:    -7.872      0.000      0.000
REMARK INTER + INTRA:          -9.694
REMARK INTER:                  -9.252
REMARK INTRA:                  -0.442
REMARK UNBOUND:                -0.442
REMARK  Name = 
REMARK  3 active torsions:
REMARK  status: ('A' for Active; 'I' for Inactive)
REMARK    1  A    between atoms: C_2  and  C_4
REMARK    2  A    between atoms: N_8  and  C_9
REMARK    3  A    between atoms: C_9  and  C_10
REMARK                            x       y       z     vdW  Elec       q    Type
REMARK                         _______ _______ _______ _____ _____    ______ ____
ROOT
ATOM      1  C   UNL     1      46.439   2.286   7.752  0.00  0.00    +0.000 A 
ATOM      2  C   UNL     1      46.356   3.627   7.412  0.00  0.00    +0.000 A 
ATOM      3  C   UNL     1      45.443   4.441   8.091  0.00  0.00    +0.000 A 
ATOM      4  C   UNL     1      44.661   3.909   9.117  0.00  0.00    +0.000 A 
ATOM      5  N   UNL     1      43.822   4.795   9.804  0.00  0.00    +0.000 N 
ATOM      6  N   UNL     1      44.760   2.618   9.467  0.00  0.00    +0.000 NA
ATOM      7  C   UNL     1      45.619   1.820   8.771  0.00  0.00    +0.000 A 
ATOM      8  H   UNL     1      43.171   5.270   9.191  0.00  0.00    +0.000 HD
ENDROOT
BRANCH   1  10
ATOM      9  N   UNL     1      48.414   1.838   6.399  0.00  0.00    +0.000 N 
ATOM     10  C   UNL     1      47.323   1.331   7.046  0.00  0.00    +0.000 C 
ATOM     11  O   UNL     1      47.091   0.127   7.051  0.00  0.00    +0.000 OA
ATOM     12  H   UNL     1      49.043   1.167   5.986  0.00  0.00    +0.000 HD
ATOM     13  H   UNL     1      48.761   2.770   6.565  0.00  0.00    +0.000 HD
ENDBRANCH   1  10
BRANCH   5  14
ATOM     14  C   UNL     1      43.315   4.381  11.106  0.00  0.00    +0.000 C 
BRANCH  14  15
ATOM     15  C   UNL     1      44.121   5.020  12.260  0.00  0.00    +0.000 C 
ATOM     16  C   UNL     1      44.661   6.392  11.803  0.00  0.00    +0.000 C 
ATOM     17  C   UNL     1      45.545   7.061  12.852  0.00  0.00    +0.000 C 
ATOM     18  C   UNL     1      46.682   6.146  13.288  0.00  0.00    +0.000 C 
ATOM     19  C   UNL     1      46.148   4.810  13.787  0.00  0.00    +0.000 C 
ATOM     20  C   UNL     1      45.278   4.122  12.738  0.00  0.00    +0.000 C 
ENDBRANCH  14  15
ENDBRANCH   5  14
TORSDOF 3
ENDMDL
MODEL 2
REMARK VINA RESULT:    -7.466      3.121      6.437
REMARK INTER + INTRA:          -9.217
REMARK INTER:                  -8.896
REMARK INTRA:                  -0.321
REMARK UNBOUND:                -0.442
REMARK  Name = 
REMARK  3 active torsions:
REMARK  status: ('A' for Active; 'I' for Inactive)
REMARK    1  A    between atoms: C_2  and  C_4
REMARK    2  A    between atoms: N_8  and  C_9
REMARK    3  A    between atoms: C_9  and  C_10
REMARK                            x       y       z     vdW  Elec       q    Type
REMARK                         _______ _______ _______ _____ _____    ______ ____
ROOT
ATOM      1  C   UNL     1      45.528   6.684  12.475  0.00  0.00    +0.000 A 
ATOM      2  C   UNL     1      45.965   5.594  13.210  0.00  0.00    +0.000 A 
ATOM      3  C   UNL     1      45.674   4.306  12.750  0.00  0.00    +0.000 A 
ATOM      4  C   UNL     1      44.984   4.133  11.549  0.00  0.00    +0.000 A 
ATOM      5  N   UNL     1      44.789   2.818  11.109  0.00  0.00    +0.000 N 
ATOM      6  N   UNL     1      44.584   5.186  10.821  0.00  0.00    +0.000 NA
ATOM      7  C   UNL     1      44.833   6.439  11.298  0.00  0.00    +0.000 A 
ATOM      8  H   UNL     1      44.293   2.251  11.786  0.00  0.00    +0.000 HD
ENDROOT
BRANCH   1  10
ATOM      9  N   UNL     1      44.767   8.995  12.580  0.00  0.00    +0.000 N 
ATOM     10  C   UNL     1      45.727   8.083  12.914  0.00  0.00    +0.000 C 
ATOM     11  O   UNL     1      46.714   8.410  13.565  0.00  0.00    +0.000 OA
ATOM     12  H   UNL     1      44.884   9.926  12.950  0.00  0.00    +0.000 HD
ATOM     13  H   UNL     1      43.849   8.727  12.259  0.00  0.00    +0.000 HD
ENDBRANCH   1  10
BRANCH   5  14
ATOM     14  C   UNL     1      44.452   2.612   9.707  0.00  0.00    +0.000 C 
BRANCH  14  15
ATOM     15  C   UNL     1      45.714   2.589   8.815  0.00  0.00    +0.000 C 
ATOM     16  C   UNL     1      45.545   3.612   7.672  0.00  0.00    +0.000 C 
ATOM     17  C   UNL     1      46.710   3.598   6.685  0.00  0.00    +0.000 C 
ATOM     18  C   UNL     1      46.956   2.200   6.134  0.00  0.00    +0.000 C 
ATOM     19  C   UNL     1      47.174   1.199   7.260  0.00  0.00    +0.000 C 
ATOM     20  C   UNL     1      46.004   1.189   8.241  0.00  0.00    +0.000 C 
ENDBRANCH  14  15
ENDBRANCH   5  14
TORSDOF 3
ENDMDL
MODEL 3
REMARK VINA RESULT:    -7.405      3.117      6.202
REMARK INTER + INTRA:          -9.146
REMARK INTER:                  -8.809
REMARK INTRA:                  -0.337
REMARK UNBOUND:                -0.442
REMARK  Name = 
REMARK  3 active torsions:
REMARK  status: ('A' for Active; 'I' for Inactive)
REMARK    1  A    between atoms: C_2  and  C_4
REMARK    2  A    between atoms: N_8  and  C_9
REMARK    3  A    between atoms: C_9  and  C_10
REMARK                            x       y       z     vdW  Elec       q    Type
REMARK                         _______ _______ _______ _____ _____    ______ ____
ROOT
ATOM      1  C   UNL     1      46.575   4.945  13.764  0.00  0.00    +0.000 A 
ATOM      2  C   UNL     1      46.650   6.149  13.081  0.00  0.00    +0.000 A 
ATOM      3  C   UNL     1      46.193   6.207  11.760  0.00  0.00    +0.000 A 
ATOM      4  C   UNL     1      45.642   5.073  11.162  0.00  0.00    +0.000 A 
ATOM      5  N   UNL     1      45.138   5.219   9.863  0.00  0.00    +0.000 N 
ATOM      6  N   UNL     1      45.543   3.914  11.830  0.00  0.00    +0.000 NA
ATOM      7  C   UNL     1      46.029   3.854  13.102  0.00  0.00    +0.000 A 
ATOM      8  H   UNL     1      45.836   5.552   9.210  0.00  0.00    +0.000 HD
ENDROOT
BRANCH   1  10
ATOM      9  N   UNL     1      47.891   5.753  15.647  0.00  0.00    +0.000 N 
ATOM     10  C   UNL     1      47.094   4.768  15.138  0.00  0.00    +0.000 C 
ATOM     11  O   UNL     1      46.809   3.777  15.802  0.00  0.00    +0.000 OA
ATOM     12  H   UNL     1      48.174   5.650  16.609  0.00  0.00    +0.000 HD
ATOM     13  H   UNL     1      47.954   6.671  15.233  0.00  0.00    +0.000 HD
ENDBRANCH   1  10
BRANCH   5  14
ATOM     14  C   UNL     1      44.212   4.206   9.375  0.00  0.00    +0.000 C 
BRANCH  14  15
ATOM     15  C   UNL     1      44.867   3.301   8.307  0.00  0.00    +0.000 C 
ATOM     16  C   UNL     1      45.369   2.005   8.980  0.00  0.00    +0.000 C 
ATOM     17  C   UNL     1      46.111   1.084   8.015  0.00  0.00    +0.000 C 
ATOM     18  C   UNL     1      47.252   1.812   7.316  0.00  0.00    +0.000 C 
ATOM     19  C   UNL     1      46.750   3.064   6.609  0.00  0.00    +0.000 C 
ATOM     20  C   UNL     1      46.024   4.002   7.569  0.00  0.00    +0.000 C 
ENDBRANCH  14  15
ENDBRANCH   5  14
TORSDOF 3
ENDMDL
MODEL 4
REMARK VINA RESULT:    -7.084      3.113      6.517
REMARK INTER + INTRA:          -8.769
REMARK INTER:                  -8.413
REMARK INTRA:                  -0.356
REMARK UNBOUND:                -0.442
REMARK  Name = 
REMARK  3 active torsions:
REMARK  status: ('A' for Active; 'I' for Inactive)
REMARK    1  A    between atoms: C_2  and  C_4
REMARK    2  A    between atoms: N_8  and  C_9
REMARK    3  A    between atoms: C_9  and  C_10
REMARK                            x       y       z     vdW  Elec       q    Type
REMARK                         _______ _______ _______ _____ _____    ______ ____
ROOT
ATOM      1  C   UNL     1      46.471   6.535  12.790  0.00  0.00    +0.000 A 
ATOM      2  C   UNL     1      46.386   5.200  13.155  0.00  0.00    +0.000 A 
ATOM      3  C   UNL     1      45.730   4.306  12.303  0.00  0.00    +0.000 A 
ATOM      4  C   UNL     1      45.206   4.755  11.090  0.00  0.00    +0.000 A 
ATOM      5  N   UNL     1      44.627   3.795  10.251  0.00  0.00    +0.000 N 
ATOM      6  N   UNL     1      45.312   6.040  10.721  0.00  0.00    +0.000 NA
ATOM      7  C   UNL     1      45.913   6.914  11.577  0.00  0.00    +0.000 A 
ATOM      8  H   UNL     1      43.871   3.291  10.699  0.00  0.00    +0.000 HD
ENDROOT
BRANCH   1  10
ATOM      9  N   UNL     1      46.431   8.761  13.778  0.00  0.00    +0.000 N 
ATOM     10  C   UNL     1      47.084   7.567  13.655  0.00  0.00    +0.000 C 
ATOM     11  O   UNL     1      48.136   7.356  14.250  0.00  0.00    +0.000 OA
ATOM     12  H   UNL     1      46.824   9.423  14.428  0.00  0.00    +0.000 HD
ATOM     13  H   UNL     1      45.469   8.885  13.502  0.00  0.00    +0.000 HD
ENDBRANCH   1  10
BRANCH   5  14
ATOM     14  C   UNL     1      44.447   4.137   8.847  0.00  0.00    +0.000 C 
BRANCH  14  15
ATOM     15  C   UNL     1      45.130   3.110   7.917  0.00  0.00    +0.000 C 
ATOM     16  C   UNL     1      45.630   1.917   8.759  0.00  0.00    +0.000 C 
ATOM     17  C   UNL     1      46.399   0.887   7.935  0.00  0.00    +0.000 C 
ATOM     18  C   UNL     1      47.546   1.532   7.169  0.00  0.00    +0.000 C 
ATOM     19  C   UNL     1      47.048   2.677   6.298  0.00  0.00    +0.000 C 
ATOM     20  C   UNL     1      46.295   3.723   7.116  0.00  0.00    +0.000 C 
ENDBRANCH  14  15
ENDBRANCH   5  14
TORSDOF 3
ENDMDL
MODEL 5
REMARK VINA RESULT:    -6.145      1.460      2.363
REMARK INTER + INTRA:          -7.665
REMARK INTER:                  -7.647
REMARK INTRA:                  -0.018
REMARK UNBOUND:                -0.442
REMARK  Name = 
REMARK  3 active torsions:
REMARK  status: ('A' for Active; 'I' for Inactive)
REMARK    1  A    between atoms: C_2  and  C_4
REMARK    2  A    between atoms: N_8  and  C_9
REMARK    3  A    between atoms: C_9  and  C_10
REMARK                            x       y       z     vdW  Elec       q    Type
REMARK                         _______ _______ _______ _____ _____    ______ ____
ROOT
ATOM      1  C   UNL     1      46.254   2.887   7.686  0.00  0.00    +0.000 A 
ATOM      2  C   UNL     1      45.658   2.007   8.575  0.00  0.00    +0.000 A 
ATOM      3  C   UNL     1      44.983   2.522   9.686  0.00  0.00    +0.000 A 
ATOM      4  C   UNL     1      44.886   3.902   9.867  0.00  0.00    +0.000 A 
ATOM      5  N   UNL     1      44.134   4.351  10.960  0.00  0.00    +0.000 N 
ATOM      6  N   UNL     1      45.437   4.756   8.992  0.00  0.00    +0.000 NA
ATOM      7  C   UNL     1      46.131   4.247   7.936  0.00  0.00    +0.000 A 
ATOM      8  H   UNL     1      44.476   3.990  11.842  0.00  0.00    +0.000 HD
ENDROOT
BRANCH   1  10
ATOM      9  N   UNL     1      48.128   1.638   6.759  0.00  0.00    +0.000 N 
ATOM     10  C   UNL     1      47.047   2.438   6.520  0.00  0.00    +0.000 C 
ATOM     11  O   UNL     1      46.739   2.762   5.378  0.00  0.00    +0.000 OA
ATOM     12  H   UNL     1      48.612   1.283   5.949  0.00  0.00    +0.000 HD
ATOM     13  H   UNL     1      48.273   1.167   7.639  0.00  0.00    +0.000 HD
ENDBRANCH   1  10
BRANCH   5  14
ATOM     14  C   UNL     1      43.677   5.734  10.949  0.00  0.00    +0.000 C 
BRANCH  14  15
ATOM     15  C   UNL     1      44.817   6.715  11.306  0.00  0.00    +0.000 C 
ATOM     16  C   UNL     1      45.452   6.288  12.646  0.00  0.00    +0.000 C 
ATOM     17  C   UNL     1      46.535   7.253  13.124  0.00  0.00    +0.000 C 
ATOM     18  C   UNL     1      46.014   8.682  13.198  0.00  0.00    +0.000 C 
ATOM     19  C   UNL     1      45.433   9.122  11.861  0.00  0.00    +0.000 C 
ATOM     20  C   UNL     1      44.334   8.176  11.384  0.00  0.00    +0.000 C 
ENDBRANCH  14  15
ENDBRANCH   5  14
TORSDOF 3
ENDMDL
MODEL 6
REMARK VINA RESULT:    -5.928      3.754      5.313
REMARK INTER + INTRA:          -7.410
REMARK INTER:                  -7.187
REMARK INTRA:                  -0.223
REMARK UNBOUND:                -0.442
REMARK  Name = 
REMARK  3 active torsions:
REMARK  status: ('A' for Active; 'I' for Inactive)
REMARK    1  A    between atoms: C_2  and  C_4
REMARK    2  A    between atoms: N_8  and  C_9
REMARK    3  A    between atoms: C_9  and  C_10
REMARK                            x       y       z     vdW  Elec       q    Type
REMARK                         _______ _______ _______ _____ _____    ______ ____
ROOT
ATOM      1  C   UNL     1      44.963   4.067  11.026  0.00  0.00    +0.000 A 
ATOM      2  C   UNL     1      45.352   5.378  11.252  0.00  0.00    +0.000 A 
ATOM      3  C   UNL     1      45.902   5.717  12.493  0.00  0.00    +0.000 A 
ATOM      4  C   UNL     1      46.085   4.735  13.467  0.00  0.00    +0.000 A 
ATOM      5  N   UNL     1      46.707   5.127  14.659  0.00  0.00    +0.000 N 
ATOM      6  N   UNL     1      45.736   3.460  13.241  0.00  0.00    +0.000 NA
ATOM      7  C   UNL     1      45.160   3.146  12.046  0.00  0.00    +0.000 A 
ATOM      8  H   UNL     1      46.215   5.879  15.126  0.00  0.00    +0.000 HD
ENDROOT
BRANCH   1  10
ATOM      9  N   UNL     1      44.101   4.566   8.804  0.00  0.00    +0.000 N 
ATOM     10  C   UNL     1      44.311   3.627   9.774  0.00  0.00    +0.000 C 
ATOM     11  O   UNL     1      43.979   2.458   9.607  0.00  0.00    +0.000 OA
ATOM     12  H   UNL     1      43.723   4.233   7.931  0.00  0.00    +0.000 HD
ATOM     13  H   UNL     1      44.560   5.464   8.807  0.00  0.00    +0.000 HD
ENDBRANCH   1  10
BRANCH   5  14
ATOM     14  C   UNL     1      47.273   4.086  15.506  0.00  0.00    +0.000 C 
BRANCH  14  15
ATOM     15  C   UNL     1      47.674   4.634  16.894  0.00  0.00    +0.000 C 
ATOM     16  C   UNL     1      48.787   5.690  16.719  0.00  0.00    +0.000 C 
ATOM     17  C   UNL     1      49.310   6.227  18.049  0.00  0.00    +0.000 C 
ATOM     18  C   UNL     1      49.768   5.099  18.964  0.00  0.00    +0.000 C 
ATOM     19  C   UNL     1      48.655   4.082  19.178  0.00  0.00    +0.000 C 
ATOM     20  C   UNL     1      48.139   3.523  17.854  0.00  0.00    +0.000 C 
ENDBRANCH  14  15
ENDBRANCH   5  14
TORSDOF 3
ENDMDL
MODEL 7
REMARK VINA RESULT:    -5.672      4.154      6.963
REMARK INTER + INTRA:          -7.108
REMARK INTER:                  -6.814
REMARK INTRA:                  -0.294
REMARK UNBOUND:                -0.442
REMARK  Name = 
REMARK  3 active torsions:
REMARK  status: ('A' for Active; 'I' for Inactive)
REMARK    1  A    between atoms: C_2  and  C_4
REMARK    2  A    between atoms: N_8  and  C_9
REMARK    3  A    between atoms: C_9  and  C_10
REMARK                            x       y       z     vdW  Elec       q    Type
REMARK                         _______ _______ _______ _____ _____    ______ ____
ROOT
ATOM      1  C   UNL     1      48.005   5.254  15.666  0.00  0.00    +0.000 A 
ATOM      2  C   UNL     1      48.272   6.316  14.816  0.00  0.00    +0.000 A 
ATOM      3  C   UNL     1      47.599   6.389  13.592  0.00  0.00    +0.000 A 
ATOM      4  C   UNL     1      46.650   5.422  13.259  0.00  0.00    +0.000 A 
ATOM      5  N   UNL     1      45.961   5.594  12.052  0.00  0.00    +0.000 N 
ATOM      6  N   UNL     1      46.369   4.409  14.092  0.00  0.00    +0.000 NA
ATOM      7  C   UNL     1      47.060   4.320  15.264  0.00  0.00    +0.000 A 
ATOM      8  H   UNL     1      46.581   5.646  11.253  0.00  0.00    +0.000 HD
ENDROOT
BRANCH   1  10
ATOM      9  N   UNL     1      47.975   5.114  18.097  0.00  0.00    +0.000 N 
ATOM     10  C   UNL     1      48.714   5.054  16.949  0.00  0.00    +0.000 C 
ATOM     11  O   UNL     1      49.919   4.830  16.982  0.00  0.00    +0.000 OA
ATOM     12  H   UNL     1      48.461   4.903  18.955  0.00  0.00    +0.000 HD
ATOM     13  H   UNL     1      46.968   5.061  18.100  0.00  0.00    +0.000 HD
ENDBRANCH   1  10
BRANCH   5  14
ATOM     14  C   UNL     1      44.714   4.863  11.870  0.00  0.00    +0.000 C 
BRANCH  14  15
ATOM     15  C   UNL     1      44.582   4.310  10.432  0.00  0.00    +0.000 C 
ATOM     16  C   UNL     1      44.689   2.771  10.469  0.00  0.00    +0.000 C 
ATOM     17  C   UNL     1      44.656   2.140   9.079  0.00  0.00    +0.000 C 
ATOM     18  C   UNL     1      45.722   2.739   8.170  0.00  0.00    +0.000 C 
ATOM     19  C   UNL     1      45.585   4.254   8.093  0.00  0.00    +0.000 C 
ATOM     20  C   UNL     1      45.638   4.897   9.476  0.00  0.00    +0.000 C 
ENDBRANCH  14  15
ENDBRANCH   5  14
TORSDOF 3
ENDMDL
MODEL 8
REMARK VINA RESULT:    -5.537      5.017      7.474
REMARK INTER + INTRA:          -6.950
REMARK INTER:                  -6.709
REMARK INTRA:                  -0.241
REMARK UNBOUND:                -0.442
REMARK  Name = 
REMARK  3 active torsions:
REMARK  status: ('A' for Active; 'I' for Inactive)
REMARK    1  A    between atoms: C_2  and  C_4
REMARK    2  A    between atoms: N_8  and  C_9
REMARK    3  A    between atoms: C_9  and  C_10
REMARK                            x       y       z     vdW  Elec       q    Type
REMARK                         _______ _______ _______ _____ _____    ______ ____
ROOT
ATOM      1  C   UNL     1      48.445   4.425  17.066  0.00  0.00    +0.000 A 
ATOM      2  C   UNL     1      48.813   5.660  16.556  0.00  0.00    +0.000 A 
ATOM      3  C   UNL     1      48.217   6.107  15.372  0.00  0.00    +0.000 A 
ATOM      4  C   UNL     1      47.243   5.331  14.743  0.00  0.00    +0.000 A 
ATOM      5  N   UNL     1      46.635   5.871  13.603  0.00  0.00    +0.000 N 
ATOM      6  N   UNL     1      46.865   4.148  15.251  0.00  0.00    +0.000 NA
ATOM      7  C   UNL     1      47.481   3.698  16.380  0.00  0.00    +0.000 A 
ATOM      8  H   UNL     1      47.303   6.100  12.877  0.00  0.00    +0.000 HD
ENDROOT
BRANCH   1  10
ATOM      9  N   UNL     1      49.994   2.849  18.090  0.00  0.00    +0.000 N 
ATOM     10  C   UNL     1      49.067   3.836  18.273  0.00  0.00    +0.000 C 
ATOM     11  O   UNL     1      48.769   4.226  19.396  0.00  0.00    +0.000 OA
ATOM     12  H   UNL     1      50.460   2.512  18.918  0.00  0.00    +0.000 HD
ATOM     13  H   UNL     1      50.430   2.670  17.198  0.00  0.00    +0.000 HD
ENDBRANCH   1  10
BRANCH   5  14
ATOM     14  C   UNL     1      45.367   5.298  13.172  0.00  0.00    +0.000 C 
BRANCH  14  15
ATOM     15  C   UNL     1      45.504   4.561  11.820  0.00  0.00    +0.000 C 
ATOM     16  C   UNL     1      45.502   5.598  10.676  0.00  0.00    +0.000 C 
ATOM     17  C   UNL     1      45.545   4.955   9.292  0.00  0.00    +0.000 C 
ATOM     18  C   UNL     1      44.422   3.943   9.113  0.00  0.00    +0.000 C 
ATOM     19  C   UNL     1      44.454   2.889  10.212  0.00  0.00    +0.000 C 
ATOM     20  C   UNL     1      44.389   3.521  11.601  0.00  0.00    +0.000 C 
ENDBRANCH  14  15
ENDBRANCH   5  14
TORSDOF 3
ENDMDL
MODEL 9
REMARK VINA RESULT:    -5.310      3.446      5.302
REMARK INTER + INTRA:          -6.684
REMARK INTER:                  -6.296
REMARK INTRA:                  -0.387
REMARK UNBOUND:                -0.442
REMARK  Name = 
REMARK  3 active torsions:
REMARK  status: ('A' for Active; 'I' for Inactive)
REMARK    1  A    between atoms: C_2  and  C_4
REMARK    2  A    between atoms: N_8  and  C_9
REMARK    3  A    between atoms: C_9  and  C_10
REMARK                            x       y       z     vdW  Elec       q    Type
REMARK                         _______ _______ _______ _____ _____    ______ ____
ROOT
ATOM      1  C   UNL     1      44.930   4.643  11.101  0.00  0.00    +0.000 A 
ATOM      2  C   UNL     1      45.260   4.153  12.355  0.00  0.00    +0.000 A 
ATOM      3  C   UNL     1      45.995   4.963  13.226  0.00  0.00    +0.000 A 
ATOM      4  C   UNL     1      46.355   6.255  12.841  0.00  0.00    +0.000 A 
ATOM      5  N   UNL     1      47.027   7.039  13.787  0.00  0.00    +0.000 N 
ATOM      6  N   UNL     1      46.013   6.742  11.638  0.00  0.00    +0.000 NA
ATOM      7  C   UNL     1      45.334   5.931  10.779  0.00  0.00    +0.000 A 
ATOM      8  H   UNL     1      47.885   6.608  14.111  0.00  0.00    +0.000 HD
ENDROOT
BRANCH   1  10
ATOM      9  N   UNL     1      44.103   4.359   8.828  0.00  0.00    +0.000 N 
ATOM     10  C   UNL     1      44.214   3.838  10.086  0.00  0.00    +0.000 C 
ATOM     11  O   UNL     1      43.747   2.738  10.361  0.00  0.00    +0.000 OA
ATOM     12  H   UNL     1      43.677   3.765   8.132  0.00  0.00    +0.000 HD
ATOM     13  H   UNL     1      44.663   5.133   8.508  0.00  0.00    +0.000 HD
ENDBRANCH   1  10
BRANCH   5  14
ATOM     14  C   UNL     1      47.053   8.481  13.582  0.00  0.00    +0.000 C 
BRANCH  14  15
ATOM     15  C   UNL     1      48.472   8.983  13.233  0.00  0.00    +0.000 C 
ATOM     16  C   UNL     1      48.481   9.510  11.782  0.00  0.00    +0.000 C 
ATOM     17  C   UNL     1      49.867   9.948  11.318  0.00  0.00    +0.000 C 
ATOM     18  C   UNL     1      50.893   8.837  11.500  0.00  0.00    +0.000 C 
ATOM     19  C   UNL     1      50.922   8.351  12.943  0.00  0.00    +0.000 C 
ATOM     20  C   UNL     1      49.543   7.890  13.411  0.00  0.00    +0.000 C 
ENDBRANCH  14  15
ENDBRANCH   5  14
TORSDOF 3
ENDMDL
