MODEL 1
REMARK VINA RESULT:    -8.461      0.000      0.000
REMARK INTER + INTRA:         -10.879
REMARK INTER:                 -10.439
REMARK INTRA:                  -0.440
REMARK UNBOUND:                -0.440
REMARK  Name = 
REMARK  4 active torsions:
REMARK  status: ('A' for Active; 'I' for Inactive)
REMARK    1  A    between atoms: C_2  and  C_4
REMARK    2  A    between atoms: C_7  and  C_8
REMARK    3  A    between atoms: C_8  and  N_9
REMARK    4  A    between atoms: C_14  and  C_15
REMARK                            x       y       z     vdW  Elec       q    Type
REMARK                         _______ _______ _______ _____ _____    ______ ____
ROOT
ATOM      1  N   UNL     1      44.116   4.840  11.300  0.00  0.00    +0.000 N 
ATOM      2  C   UNL     1      43.391   4.177  12.261  0.00  0.00    +0.000 A 
ATOM      3  C   UNL     1      44.056   4.299  13.459  0.00  0.00    +0.000 A 
ATOM      4  C   UNL     1      45.228   5.066  13.227  0.00  0.00    +0.000 A 
ATOM      5  C   UNL     1      46.299   5.478  14.043  0.00  0.00    +0.000 A 
ATOM      6  C   UNL     1      47.348   6.253  13.509  0.00  0.00    +0.000 A 
ATOM      7  C   UNL     1      47.314   6.616  12.157  0.00  0.00    +0.000 A 
ATOM      8 CL   UNL     1      48.565   7.524  11.372  0.00  0.00    +0.000 Cl
ATOM      9  C   UNL     1      46.254   6.211  11.329  0.00  0.00    +0.000 A 
ATOM     10  C   UNL     1      45.229   5.426  11.877  0.00  0.00    +0.000 A 
ENDROOT
BRANCH   6  11
ATOM     11  C   UNL     1      48.448   6.588  14.457  0.00  0.00    +0.000 C 
ATOM     12  N   UNL     1      48.180   6.586  15.794  0.00  0.00    +0.000 N 
ATOM     13  O   UNL     1      49.579   6.834  14.052  0.00  0.00    +0.000 OA
ATOM     14  H   UNL     1      47.245   6.486  16.169  0.00  0.00    +0.000 HD
ATOM     15  H   UNL     1      48.918   6.887  16.418  0.00  0.00    +0.000 HD
ENDBRANCH   6  11
BRANCH   1  16
ATOM     16  C   UNL     1      43.832   4.774   9.870  0.00  0.00    +0.000 C 
BRANCH  16  20
ATOM     17  C   UNL     1      46.301   1.937   7.897  0.00  0.00    +0.000 A 
ATOM     18  C   UNL     1      46.463   3.275   7.565  0.00  0.00    +0.000 A 
ATOM     19  C   UNL     1      45.655   4.215   8.200  0.00  0.00    +0.000 A 
ATOM     20  C   UNL     1      44.716   3.796   9.149  0.00  0.00    +0.000 A 
ATOM     21  C   UNL     1      44.633   2.429   9.411  0.00  0.00    +0.000 A 
ATOM     22  N   UNL     1      45.399   1.489   8.814  0.00  0.00    +0.000 NA
BRANCH  17  24
ATOM     23  N   UNL     1      46.935  -0.387   7.629  0.00  0.00    +0.000 N 
ATOM     24  C   UNL     1      47.145   0.901   7.220  0.00  0.00    +0.000 C 
ATOM     25  O   UNL     1      47.964   1.179   6.354  0.00  0.00    +0.000 OA
ATOM     26  H   UNL     1      47.450  -1.138   7.193  0.00  0.00    +0.000 HD
ATOM     27  H   UNL     1      46.229  -0.582   8.331  0.00  0.00    +0.000 HD
ENDBRANCH  17  24
ENDBRANCH  16  20
ENDBRANCH   1  16
TORSDOF 4
ENDMDL
MODEL 2
REMARK VINA RESULT:    -8.380      1.968      2.191
REMARK INTER + INTRA:         -10.780
REMARK INTER:                 -10.144
REMARK INTRA:                  -0.636
REMARK UNBOUND:                -0.440
REMARK  Name = 
REMARK  4 active torsions:
REMARK  status: ('A' for Active; 'I' for Inactive)
REMARK    1  A    between atoms: C_2  and  C_4
REMARK    2  A    between atoms: C_7  and  C_8
REMARK    3  A    between atoms: C_8  and  N_9
REMARK    4  A    between atoms: C_14  and  C_15
REMARK                            x       y       z     vdW  Elec       q    Type
REMARK                         _______ _______ _______ _____ _____    ______ ____
ROOT
ATOM      1  N   UNL     1      45.042   4.249  11.805  0.00  0.00    +0.000 N 
ATOM      2  C   UNL     1      45.628   3.299  12.606  0.00  0.00    +0.000 A 
ATOM      3  C   UNL     1      46.463   3.941  13.491  0.00  0.00    +0.000 A 
ATOM      4  C   UNL     1      46.384   5.334  13.226  0.00  0.00    +0.000 A 
ATOM      5  C   UNL     1      47.027   6.465  13.767  0.00  0.00    +0.000 A 
ATOM      6  C   UNL     1      46.733   7.755  13.280  0.00  0.00    +0.000 A 
ATOM      7  C   UNL     1      45.789   7.904  12.257  0.00  0.00    +0.000 A 
ATOM      8 CL   UNL     1      45.377   9.428  11.541  0.00  0.00    +0.000 Cl
ATOM      9  C   UNL     1      45.142   6.785  11.705  0.00  0.00    +0.000 A 
ATOM     10  C   UNL     1      45.462   5.510  12.192  0.00  0.00    +0.000 A 
ENDROOT
BRANCH   6  11
ATOM     11  C   UNL     1      47.508   8.867  13.897  0.00  0.00    +0.000 C 
ATOM     12  N   UNL     1      47.446   9.036  15.249  0.00  0.00    +0.000 N 
ATOM     13  O   UNL     1      48.212   9.602  13.213  0.00  0.00    +0.000 OA
ATOM     14  H   UNL     1      46.806   8.520  15.840  0.00  0.00    +0.000 HD
ATOM     15  H   UNL     1      47.919   9.839  15.641  0.00  0.00    +0.000 HD
ENDBRANCH   6  11
BRANCH   1  16
ATOM     16  C   UNL     1      44.242   3.942  10.624  0.00  0.00    +0.000 C 
BRANCH  16  20
ATOM     17  C   UNL     1      46.600   2.698   7.318  0.00  0.00    +0.000 A 
ATOM     18  C   UNL     1      46.055   1.713   8.130  0.00  0.00    +0.000 A 
ATOM     19  C   UNL     1      45.285   2.108   9.220  0.00  0.00    +0.000 A 
ATOM     20  C   UNL     1      45.076   3.469   9.467  0.00  0.00    +0.000 A 
ATOM     21  C   UNL     1      45.667   4.379   8.592  0.00  0.00    +0.000 A 
ATOM     22  N   UNL     1      46.421   4.033   7.524  0.00  0.00    +0.000 NA
BRANCH  17  24
ATOM     23  N   UNL     1      47.308   3.090   5.033  0.00  0.00    +0.000 N 
ATOM     24  C   UNL     1      47.445   2.306   6.146  0.00  0.00    +0.000 C 
ATOM     25  O   UNL     1      48.214   1.354   6.175  0.00  0.00    +0.000 OA
ATOM     26  H   UNL     1      47.870   2.899   4.217  0.00  0.00    +0.000 HD
ATOM     27  H   UNL     1      46.681   3.887   5.055  0.00  0.00    +0.000 HD
ENDBRANCH  17  24
ENDBRANCH  16  20
ENDBRANCH   1  16
TORSDOF 4
ENDMDL
MODEL 3
REMARK VINA RESULT:    -7.640      1.935      2.116
REMARK INTER + INTRA:          -9.867
REMARK INTER:                  -9.458
REMARK INTRA:                  -0.409
REMARK UNBOUND:                -0.440
REMARK  Name = 
REMARK  4 active torsions:
REMARK  status: ('A' for Active; 'I' for Inactive)
REMARK    1  A    between atoms: C_2  and  C_4
REMARK    2  A    between atoms: C_7  and  C_8
REMARK    3  A    between atoms: C_8  and  N_9
REMARK    4  A    between atoms: C_14  and  C_15
REMARK                            x       y       z     vdW  Elec       q    Type
REMARK                         _______ _______ _______ _____ _____    ______ ____
ROOT
ATOM      1  N   UNL     1      44.103   4.794  10.983  0.00  0.00    +0.000 N 
ATOM      2  C   UNL     1      42.870   5.396  10.908  0.00  0.00    +0.000 A 
ATOM      3  C   UNL     1      42.985   6.669  11.418  0.00  0.00    +0.000 A 
ATOM      4  C   UNL     1      44.335   6.856  11.817  0.00  0.00    +0.000 A 
ATOM      5  C   UNL     1      45.030   7.916  12.430  0.00  0.00    +0.000 A 
ATOM      6  C   UNL     1      46.407   7.800  12.710  0.00  0.00    +0.000 A 
ATOM      7  C   UNL     1      47.081   6.622  12.366  0.00  0.00    +0.000 A 
ATOM      8 CL   UNL     1      48.758   6.339  12.700  0.00  0.00    +0.000 Cl
ATOM      9  C   UNL     1      46.401   5.554  11.756  0.00  0.00    +0.000 A 
ATOM     10  C   UNL     1      45.027   5.684  11.503  0.00  0.00    +0.000 A 
ENDROOT
BRANCH   6  11
ATOM     11  C   UNL     1      47.024   8.966  13.401  0.00  0.00    +0.000 C 
ATOM     12  N   UNL     1      47.111   8.947  14.763  0.00  0.00    +0.000 N 
ATOM     13  O   UNL     1      47.473   9.914  12.766  0.00  0.00    +0.000 OA
ATOM     14  H   UNL     1      46.670   8.237  15.333  0.00  0.00    +0.000 HD
ATOM     15  H   UNL     1      47.465   9.777  15.219  0.00  0.00    +0.000 HD
ENDBRANCH   6  11
BRANCH   1  16
ATOM     16  C   UNL     1      44.340   3.379  10.715  0.00  0.00    +0.000 C 
BRANCH  16  20
ATOM     17  C   UNL     1      46.685   2.647   7.251  0.00  0.00    +0.000 A 
ATOM     18  C   UNL     1      46.316   3.958   7.515  0.00  0.00    +0.000 A 
ATOM     19  C   UNL     1      45.542   4.211   8.645  0.00  0.00    +0.000 A 
ATOM     20  C   UNL     1      45.163   3.153   9.479  0.00  0.00    +0.000 A 
ATOM     21  C   UNL     1      45.586   1.873   9.125  0.00  0.00    +0.000 A 
ATOM     22  N   UNL     1      46.337   1.589   8.038  0.00  0.00    +0.000 NA
BRANCH  17  24
ATOM     23  N   UNL     1      47.302   3.167   4.966  0.00  0.00    +0.000 N 
ATOM     24  C   UNL     1      47.505   2.341   6.036  0.00  0.00    +0.000 C 
ATOM     25  O   UNL     1      48.310   1.419   5.997  0.00  0.00    +0.000 OA
ATOM     26  H   UNL     1      47.843   3.035   4.125  0.00  0.00    +0.000 HD
ATOM     27  H   UNL     1      46.646   3.937   5.044  0.00  0.00    +0.000 HD
ENDBRANCH  17  24
ENDBRANCH  16  20
ENDBRANCH   1  16
TORSDOF 4
ENDMDL
MODEL 4
REMARK VINA RESULT:    -7.538      1.932      2.446
REMARK INTER + INTRA:          -9.740
REMARK INTER:                  -9.077
REMARK INTRA:                  -0.664
REMARK UNBOUND:                -0.440
REMARK  Name = 
REMARK  4 active torsions:
REMARK  status: ('A' for Active; 'I' for Inactive)
REMARK    1  A    between atoms: C_2  and  C_4
REMARK    2  A    between atoms: C_7  and  C_8
REMARK    3  A    between atoms: C_8  and  N_9
REMARK    4  A    between atoms: C_14  and  C_15
REMARK                            x       y       z     vdW  Elec       q    Type
REMARK                         _______ _______ _______ _____ _____    ______ ____
ROOT
ATOM      1  N   UNL     1      44.995   5.784  11.269  0.00  0.00    +0.000 N 
ATOM      2  C   UNL     1      44.897   7.130  11.009  0.00  0.00    +0.000 A 
ATOM      3  C   UNL     1      45.659   7.801  11.937  0.00  0.00    +0.000 A 
ATOM      4  C   UNL     1      46.249   6.835  12.794  0.00  0.00    +0.000 A 
ATOM      5  C   UNL     1      47.078   6.918  13.929  0.00  0.00    +0.000 A 
ATOM      6  C   UNL     1      47.511   5.747  14.585  0.00  0.00    +0.000 A 
ATOM      7  C   UNL     1      47.113   4.498  14.094  0.00  0.00    +0.000 A 
ATOM      8 CL   UNL     1      47.537   2.991  14.839  0.00  0.00    +0.000 Cl
ATOM      9  C   UNL     1      46.283   4.399  12.965  0.00  0.00    +0.000 A 
ATOM     10  C   UNL     1      45.850   5.576  12.338  0.00  0.00    +0.000 A 
ENDROOT
BRANCH   6  11
ATOM     11  C   UNL     1      48.346   5.962  15.800  0.00  0.00    +0.000 C 
ATOM     12  N   UNL     1      47.780   5.762  17.025  0.00  0.00    +0.000 N 
ATOM     13  O   UNL     1      49.526   6.283  15.708  0.00  0.00    +0.000 OA
ATOM     14  H   UNL     1      46.790   5.593  17.154  0.00  0.00    +0.000 HD
ATOM     15  H   UNL     1      48.340   5.982  17.838  0.00  0.00    +0.000 HD
ENDBRANCH   6  11
BRANCH   1  16
ATOM     16  C   UNL     1      44.178   4.764  10.620  0.00  0.00    +0.000 C 
BRANCH  16  20
ATOM     17  C   UNL     1      46.356   2.619   7.671  0.00  0.00    +0.000 A 
ATOM     18  C   UNL     1      45.661   1.885   8.622  0.00  0.00    +0.000 A 
ATOM     19  C   UNL     1      44.948   2.576   9.598  0.00  0.00    +0.000 A 
ATOM     20  C   UNL     1      44.943   3.975   9.595  0.00  0.00    +0.000 A 
ATOM     21  C   UNL     1      45.673   4.618   8.597  0.00  0.00    +0.000 A 
ATOM     22  N   UNL     1      46.377   3.982   7.634  0.00  0.00    +0.000 NA
BRANCH  17  24
ATOM     23  N   UNL     1      47.855   2.709   5.768  0.00  0.00    +0.000 N 
ATOM     24  C   UNL     1      47.144   1.905   6.617  0.00  0.00    +0.000 C 
ATOM     25  O   UNL     1      47.163   0.685   6.518  0.00  0.00    +0.000 OA
ATOM     26  H   UNL     1      48.431   2.292   5.053  0.00  0.00    +0.000 HD
ATOM     27  H   UNL     1      47.836   3.715   5.897  0.00  0.00    +0.000 HD
ENDBRANCH  17  24
ENDBRANCH  16  20
ENDBRANCH   1  16
TORSDOF 4
ENDMDL
MODEL 5
REMARK VINA RESULT:    -6.893      4.067      7.554
REMARK INTER + INTRA:          -8.945
REMARK INTER:                  -8.797
REMARK INTRA:                  -0.149
REMARK UNBOUND:                -0.440
REMARK  Name = 
REMARK  4 active torsions:
REMARK  status: ('A' for Active; 'I' for Inactive)
REMARK    1  A    between atoms: C_2  and  C_4
REMARK    2  A    between atoms: C_7  and  C_8
REMARK    3  A    between atoms: C_8  and  N_9
REMARK    4  A    between atoms: C_14  and  C_15
REMARK                            x       y       z     vdW  Elec       q    Type
REMARK                         _______ _______ _______ _____ _____    ______ ____
ROOT
ATOM      1  N   UNL     1      47.281   5.215  15.179  0.00  0.00    +0.000 N 
ATOM      2  C   UNL     1      48.263   6.161  15.004  0.00  0.00    +0.000 A 
ATOM      3  C   UNL     1      48.200   6.607  13.704  0.00  0.00    +0.000 A 
ATOM      4  C   UNL     1      47.143   5.913  13.059  0.00  0.00    +0.000 A 
ATOM      5  C   UNL     1      46.637   5.915  11.745  0.00  0.00    +0.000 A 
ATOM      6  C   UNL     1      45.547   5.091  11.397  0.00  0.00    +0.000 A 
ATOM      7  C   UNL     1      44.965   4.274  12.373  0.00  0.00    +0.000 A 
ATOM      8 CL   UNL     1      43.655   3.183  12.060  0.00  0.00    +0.000 Cl
ATOM      9  C   UNL     1      45.460   4.259  13.689  0.00  0.00    +0.000 A 
ATOM     10  C   UNL     1      46.556   5.073  14.008  0.00  0.00    +0.000 A 
ENDROOT
BRANCH   6  11
ATOM     11  C   UNL     1      45.131   5.144   9.968  0.00  0.00    +0.000 C 
ATOM     12  N   UNL     1      43.806   5.015   9.668  0.00  0.00    +0.000 N 
ATOM     13  O   UNL     1      45.952   5.329   9.076  0.00  0.00    +0.000 OA
ATOM     14  H   UNL     1      43.108   4.765  10.356  0.00  0.00    +0.000 HD
ATOM     15  H   UNL     1      43.551   4.980   8.690  0.00  0.00    +0.000 HD
ENDBRANCH   6  11
BRANCH   1  16
ATOM     16  C   UNL     1      47.156   4.376  16.367  0.00  0.00    +0.000 C 
BRANCH  16  20
ATOM     17  C   UNL     1      50.719   2.254  17.281  0.00  0.00    +0.000 A 
ATOM     18  C   UNL     1      50.579   3.533  17.800  0.00  0.00    +0.000 A 
ATOM     19  C   UNL     1      49.417   4.242  17.503  0.00  0.00    +0.000 A 
ATOM     20  C   UNL     1      48.431   3.656  16.703  0.00  0.00    +0.000 A 
ATOM     21  C   UNL     1      48.669   2.366  16.231  0.00  0.00    +0.000 A 
ATOM     22  N   UNL     1      49.783   1.648  16.498  0.00  0.00    +0.000 NA
BRANCH  17  24
ATOM     23  N   UNL     1      51.764   0.197  18.024  0.00  0.00    +0.000 N 
ATOM     24  C   UNL     1      51.963   1.472  17.570  0.00  0.00    +0.000 C 
ATOM     25  O   UNL     1      53.086   1.932  17.408  0.00  0.00    +0.000 OA
ATOM     26  H   UNL     1      52.559  -0.395  18.211  0.00  0.00    +0.000 HD
ATOM     27  H   UNL     1      50.819  -0.159  18.121  0.00  0.00    +0.000 HD
ENDBRANCH  17  24
ENDBRANCH  16  20
ENDBRANCH   1  16
TORSDOF 4
ENDMDL
MODEL 6
REMARK VINA RESULT:    -6.440      2.168      3.085
REMARK INTER + INTRA:          -8.386
REMARK INTER:                  -7.745
REMARK INTRA:                  -0.641
REMARK UNBOUND:                -0.440
REMARK  Name = 
REMARK  4 active torsions:
REMARK  status: ('A' for Active; 'I' for Inactive)
REMARK    1  A    between atoms: C_2  and  C_4
REMARK    2  A    between atoms: C_7  and  C_8
REMARK    3  A    between atoms: C_8  and  N_9
REMARK    4  A    between atoms: C_14  and  C_15
REMARK                            x       y       z     vdW  Elec       q    Type
REMARK                         _______ _______ _______ _____ _____    ______ ____
ROOT
ATOM      1  N   UNL     1      45.789   6.640  12.304  0.00  0.00    +0.000 N 
ATOM      2  C   UNL     1      46.094   7.938  11.970  0.00  0.00    +0.000 A 
ATOM      3  C   UNL     1      47.089   8.373  12.814  0.00  0.00    +0.000 A 
ATOM      4  C   UNL     1      47.408   7.306  13.695  0.00  0.00    +0.000 A 
ATOM      5  C   UNL     1      48.299   7.171  14.777  0.00  0.00    +0.000 A 
ATOM      6  C   UNL     1      48.392   5.951  15.478  0.00  0.00    +0.000 A 
ATOM      7  C   UNL     1      47.594   4.870  15.084  0.00  0.00    +0.000 A 
ATOM      8 CL   UNL     1      47.581   3.337  15.893  0.00  0.00    +0.000 Cl
ATOM      9  C   UNL     1      46.698   4.990  14.008  0.00  0.00    +0.000 A 
ATOM     10  C   UNL     1      46.609   6.218  13.336  0.00  0.00    +0.000 A 
ENDROOT
BRANCH   6  11
ATOM     11  C   UNL     1      49.334   5.942  16.632  0.00  0.00    +0.000 C 
ATOM     12  N   UNL     1      48.833   6.142  17.885  0.00  0.00    +0.000 N 
ATOM     13  O   UNL     1      50.530   5.730  16.470  0.00  0.00    +0.000 OA
ATOM     14  H   UNL     1      47.875   6.416  18.058  0.00  0.00    +0.000 HD
ATOM     15  H   UNL     1      49.496   6.205  18.647  0.00  0.00    +0.000 HD
ENDBRANCH   6  11
BRANCH   1  16
ATOM     16  C   UNL     1      44.653   5.901  11.761  0.00  0.00    +0.000 C 
BRANCH  16  20
ATOM     17  C   UNL     1      45.788   3.337   8.571  0.00  0.00    +0.000 A 
ATOM     18  C   UNL     1      45.171   2.761   9.673  0.00  0.00    +0.000 A 
ATOM     19  C   UNL     1      44.799   3.591  10.728  0.00  0.00    +0.000 A 
ATOM     20  C   UNL     1      45.048   4.965  10.653  0.00  0.00    +0.000 A 
ATOM     21  C   UNL     1      45.673   5.443   9.503  0.00  0.00    +0.000 A 
ATOM     22  N   UNL     1      46.049   4.670   8.459  0.00  0.00    +0.000 NA
BRANCH  17  24
ATOM     23  N   UNL     1      46.610   1.204   7.763  0.00  0.00    +0.000 N 
ATOM     24  C   UNL     1      46.213   2.470   7.427  0.00  0.00    +0.000 C 
ATOM     25  O   UNL     1      46.203   2.856   6.265  0.00  0.00    +0.000 OA
ATOM     26  H   UNL     1      46.882   0.558   7.037  0.00  0.00    +0.000 HD
ATOM     27  H   UNL     1      46.580   0.911   8.733  0.00  0.00    +0.000 HD
ENDBRANCH  17  24
ENDBRANCH  16  20
ENDBRANCH   1  16
TORSDOF 4
ENDMDL
MODEL 7
REMARK VINA RESULT:    -6.411      3.940      8.269
REMARK INTER + INTRA:          -8.350
REMARK INTER:                  -7.681
REMARK INTRA:                  -0.669
REMARK UNBOUND:                -0.440
REMARK  Name = 
REMARK  4 active torsions:
REMARK  status: ('A' for Active; 'I' for Inactive)
REMARK    1  A    between atoms: C_2  and  C_4
REMARK    2  A    between atoms: C_7  and  C_8
REMARK    3  A    between atoms: C_8  and  N_9
REMARK    4  A    between atoms: C_14  and  C_15
REMARK                            x       y       z     vdW  Elec       q    Type
REMARK                         _______ _______ _______ _____ _____    ______ ____
ROOT
ATOM      1  N   UNL     1      47.764   7.535  13.898  0.00  0.00    +0.000 N 
ATOM      2  C   UNL     1      47.510   8.871  13.696  0.00  0.00    +0.000 A 
ATOM      3  C   UNL     1      46.391   8.978  12.904  0.00  0.00    +0.000 A 
ATOM      4  C   UNL     1      45.939   7.664  12.612  0.00  0.00    +0.000 A 
ATOM      5  C   UNL     1      44.886   7.147  11.832  0.00  0.00    +0.000 A 
ATOM      6  C   UNL     1      44.687   5.755  11.733  0.00  0.00    +0.000 A 
ATOM      7  C   UNL     1      45.543   4.888  12.422  0.00  0.00    +0.000 A 
ATOM      8 CL   UNL     1      45.433   3.160  12.342  0.00  0.00    +0.000 Cl
ATOM      9  C   UNL     1      46.600   5.388  13.202  0.00  0.00    +0.000 A 
ATOM     10  C   UNL     1      46.790   6.776  13.274  0.00  0.00    +0.000 A 
ENDROOT
BRANCH   6  11
ATOM     11  C   UNL     1      43.572   5.327  10.843  0.00  0.00    +0.000 C 
ATOM     12  N   UNL     1      43.876   4.807   9.618  0.00  0.00    +0.000 N 
ATOM     13  O   UNL     1      42.405   5.408  11.208  0.00  0.00    +0.000 OA
ATOM     14  H   UNL     1      44.813   4.811   9.236  0.00  0.00    +0.000 HD
ATOM     15  H   UNL     1      43.106   4.590   9.000  0.00  0.00    +0.000 HD
ENDBRANCH   6  11
BRANCH   1  16
ATOM     16  C   UNL     1      48.975   7.019  14.528  0.00  0.00    +0.000 C 
BRANCH  16  20
ATOM     17  C   UNL     1      48.316   5.733  18.521  0.00  0.00    +0.000 A 
ATOM     18  C   UNL     1      48.529   7.088  18.306  0.00  0.00    +0.000 A 
ATOM     19  C   UNL     1      48.752   7.521  17.002  0.00  0.00    +0.000 A 
ATOM     20  C   UNL     1      48.752   6.597  15.952  0.00  0.00    +0.000 A 
ATOM     21  C   UNL     1      48.528   5.259  16.275  0.00  0.00    +0.000 A 
ATOM     22  N   UNL     1      48.309   4.801  17.527  0.00  0.00    +0.000 NA
BRANCH  17  24
ATOM     23  N   UNL     1      48.486   3.946  20.150  0.00  0.00    +0.000 N 
ATOM     24  C   UNL     1      48.088   5.233  19.914  0.00  0.00    +0.000 C 
ATOM     25  O   UNL     1      47.585   5.925  20.791  0.00  0.00    +0.000 OA
ATOM     26  H   UNL     1      48.388   3.556  21.076  0.00  0.00    +0.000 HD
ATOM     27  H   UNL     1      48.923   3.412  19.407  0.00  0.00    +0.000 HD
ENDBRANCH  17  24
ENDBRANCH  16  20
ENDBRANCH   1  16
TORSDOF 4
ENDMDL
MODEL 8
REMARK VINA RESULT:    -6.121      4.634      7.166
REMARK INTER + INTRA:          -7.993
REMARK INTER:                  -7.285
REMARK INTRA:                  -0.708
REMARK UNBOUND:                -0.440
REMARK  Name = 
REMARK  4 active torsions:
REMARK  status: ('A' for Active; 'I' for Inactive)
REMARK    1  A    between atoms: C_2  and  C_4
REMARK    2  A    between atoms: C_7  and  C_8
REMARK    3  A    between atoms: C_8  and  N_9
REMARK    4  A    between atoms: C_14  and  C_15
REMARK                            x       y       z     vdW  Elec       q    Type
REMARK                         _______ _______ _______ _____ _____    ______ ____
ROOT
ATOM      1  N   UNL     1      47.138   4.815  14.873  0.00  0.00    +0.000 N 
ATOM      2  C   UNL     1      46.350   4.211  13.923  0.00  0.00    +0.000 A 
ATOM      3  C   UNL     1      46.419   4.959  12.771  0.00  0.00    +0.000 A 
ATOM      4  C   UNL     1      47.282   6.059  13.020  0.00  0.00    +0.000 A 
ATOM      5  C   UNL     1      47.698   7.162  12.251  0.00  0.00    +0.000 A 
ATOM      6  C   UNL     1      48.585   8.116  12.791  0.00  0.00    +0.000 A 
ATOM      7  C   UNL     1      49.055   7.953  14.100  0.00  0.00    +0.000 A 
ATOM      8 CL   UNL     1      50.108   9.079  14.893  0.00  0.00    +0.000 Cl
ATOM      9  C   UNL     1      48.647   6.859  14.881  0.00  0.00    +0.000 A 
ATOM     10  C   UNL     1      47.750   5.931  14.330  0.00  0.00    +0.000 A 
ENDROOT
BRANCH   6  11
ATOM     11  C   UNL     1      48.918   9.263  11.901  0.00  0.00    +0.000 C 
ATOM     12  N   UNL     1      48.060  10.323  11.853  0.00  0.00    +0.000 N 
ATOM     13  O   UNL     1      49.953   9.275  11.244  0.00  0.00    +0.000 OA
ATOM     14  H   UNL     1      47.151  10.316  12.298  0.00  0.00    +0.000 HD
ATOM     15  H   UNL     1      48.264  11.058  11.189  0.00  0.00    +0.000 HD
ENDBRANCH   6  11
BRANCH   1  16
ATOM     16  C   UNL     1      47.169   4.424  16.279  0.00  0.00    +0.000 C 
BRANCH  16  20
ATOM     17  C   UNL     1      50.710   2.312  17.300  0.00  0.00    +0.000 A 
ATOM     18  C   UNL     1      50.585   3.619  17.750  0.00  0.00    +0.000 A 
ATOM     19  C   UNL     1      49.432   4.324  17.417  0.00  0.00    +0.000 A 
ATOM     20  C   UNL     1      48.436   3.708  16.652  0.00  0.00    +0.000 A 
ATOM     21  C   UNL     1      48.658   2.392  16.250  0.00  0.00    +0.000 A 
ATOM     22  N   UNL     1      49.764   1.676  16.553  0.00  0.00    +0.000 NA
BRANCH  17  24
ATOM     23  N   UNL     1      51.734   0.252  18.064  0.00  0.00    +0.000 N 
ATOM     24  C   UNL     1      51.944   1.532  17.630  0.00  0.00    +0.000 C 
ATOM     25  O   UNL     1      53.071   1.998  17.514  0.00  0.00    +0.000 OA
ATOM     26  H   UNL     1      52.524  -0.339  18.275  0.00  0.00    +0.000 HD
ATOM     27  H   UNL     1      50.787  -0.108  18.122  0.00  0.00    +0.000 HD
ENDBRANCH  17  24
ENDBRANCH  16  20
ENDBRANCH   1  16
TORSDOF 4
ENDMDL
MODEL 9
REMARK VINA RESULT:    -5.995      4.442      6.239
REMARK INTER + INTRA:          -7.837
REMARK INTER:                  -7.135
REMARK INTRA:                  -0.702
REMARK UNBOUND:                -0.440
REMARK  Name = 
REMARK  4 active torsions:
REMARK  status: ('A' for Active; 'I' for Inactive)
REMARK    1  A    between atoms: C_2  and  C_4
REMARK    2  A    between atoms: C_7  and  C_8
REMARK    3  A    between atoms: C_8  and  N_9
REMARK    4  A    between atoms: C_14  and  C_15
REMARK                            x       y       z     vdW  Elec       q    Type
REMARK                         _______ _______ _______ _____ _____    ______ ____
ROOT
ATOM      1  N   UNL     1      48.584   7.329  14.581  0.00  0.00    +0.000 N 
ATOM      2  C   UNL     1      48.451   8.695  14.648  0.00  0.00    +0.000 A 
ATOM      3  C   UNL     1      48.359   9.051  15.973  0.00  0.00    +0.000 A 
ATOM      4  C   UNL     1      48.441   7.864  16.748  0.00  0.00    +0.000 A 
ATOM      5  C   UNL     1      48.368   7.595  18.128  0.00  0.00    +0.000 A 
ATOM      6  C   UNL     1      48.486   6.275  18.607  0.00  0.00    +0.000 A 
ATOM      7  C   UNL     1      48.684   5.229  17.696  0.00  0.00    +0.000 A 
ATOM      8 CL   UNL     1      48.795   3.561  18.154  0.00  0.00    +0.000 Cl
ATOM      9  C   UNL     1      48.756   5.481  16.315  0.00  0.00    +0.000 A 
ATOM     10  C   UNL     1      48.619   6.800  15.860  0.00  0.00    +0.000 A 
ENDROOT
BRANCH   6  11
ATOM     11  C   UNL     1      48.347   6.109  20.080  0.00  0.00    +0.000 C 
ATOM     12  N   UNL     1      47.134   5.740  20.584  0.00  0.00    +0.000 N 
ATOM     13  O   UNL     1      49.304   6.270  20.828  0.00  0.00    +0.000 OA
ATOM     14  H   UNL     1      46.295   5.692  20.020  0.00  0.00    +0.000 HD
ATOM     15  H   UNL     1      47.039   5.704  21.591  0.00  0.00    +0.000 HD
ENDBRANCH   6  11
BRANCH   1  16
ATOM     16  C   UNL     1      48.519   6.560  13.342  0.00  0.00    +0.000 C 
BRANCH  16  20
ATOM     17  C   UNL     1      44.530   5.772  12.117  0.00  0.00    +0.000 A 
ATOM     18  C   UNL     1      45.217   6.787  11.465  0.00  0.00    +0.000 A 
ATOM     19  C   UNL     1      46.524   7.059  11.861  0.00  0.00    +0.000 A 
ATOM     20  C   UNL     1      47.108   6.312  12.889  0.00  0.00    +0.000 A 
ATOM     21  C   UNL     1      46.333   5.314  13.479  0.00  0.00    +0.000 A 
ATOM     22  N   UNL     1      45.063   5.022  13.122  0.00  0.00    +0.000 NA
BRANCH  17  24
ATOM     23  N   UNL     1      42.273   6.539  11.678  0.00  0.00    +0.000 N 
ATOM     24  C   UNL     1      43.118   5.464  11.723  0.00  0.00    +0.000 C 
ATOM     25  O   UNL     1      42.739   4.332  11.452  0.00  0.00    +0.000 OA
ATOM     26  H   UNL     1      41.314   6.407  11.392  0.00  0.00    +0.000 HD
ATOM     27  H   UNL     1      42.629   7.466  11.883  0.00  0.00    +0.000 HD
ENDBRANCH  17  24
ENDBRANCH  16  20
ENDBRANCH   1  16
TORSDOF 4
ENDMDL
