MODEL 1
REMARK VINA RESULT:    -8.335      0.000      0.000
REMARK INTER + INTRA:         -10.429
REMARK INTER:                  -9.796
REMARK INTRA:                  -0.633
REMARK UNBOUND:                -0.633
REMARK  Name = 
REMARK  3 active torsions:
REMARK  status: ('A' for Active; 'I' for Inactive)
REMARK    1  A    between atoms: C_2  and  C_4
REMARK    2  A    between atoms: N_8  and  C_9
REMARK    3  A    between atoms: C_9  and  C_10
REMARK                            x       y       z     vdW  Elec       q    Type
REMARK                         _______ _______ _______ _____ _____    ______ ____
ROOT
ATOM      1  C   UNL     1      46.572   2.709   7.472  0.00  0.00    +0.000 A 
ATOM      2  C   UNL     1      46.285   4.056   7.664  0.00  0.00    +0.000 A 
ATOM      3  C   UNL     1      45.418   4.431   8.694  0.00  0.00    +0.000 A 
ATOM      4  C   UNL     1      44.851   3.454   9.508  0.00  0.00    +0.000 A 
ATOM      5  N   UNL     1      43.922   3.734  10.512  0.00  0.00    +0.000 N 
ATOM      6  N   UNL     1      45.103   2.140   9.318  0.00  0.00    +0.000 NA
ATOM      7  C   UNL     1      45.947   1.795   8.305  0.00  0.00    +0.000 A 
ATOM      8  H   UNL     1      43.741   2.851  10.984  0.00  0.00    +0.000 HD
ENDROOT
BRANCH   1  10
ATOM      9  N   UNL     1      47.771   3.080   5.394  0.00  0.00    +0.000 N 
ATOM     10  C   UNL     1      47.485   2.220   6.419  0.00  0.00    +0.000 C 
ATOM     11  O   UNL     1      47.996   1.110   6.476  0.00  0.00    +0.000 OA
ATOM     12  H   UNL     1      48.481   2.776   4.738  0.00  0.00    +0.000 HD
ATOM     13  H   UNL     1      47.581   4.071   5.447  0.00  0.00    +0.000 HD
ENDBRANCH   1  10
BRANCH   5  14
ATOM     14  C   UNL     1      43.906   4.943  11.350  0.00  0.00    +0.000 C 
ATOM     15  C   UNL     1      42.601   5.163  12.114  0.00  0.00    +0.000 C 
ATOM     16  C   UNL     1      43.016   6.142  11.070  0.00  0.00    +0.000 C 
BRANCH  14  17
ATOM     17  C   UNL     1      45.213   5.226  12.092  0.00  0.00    +0.000 A 
ATOM     18  C   UNL     1      45.985   6.365  11.798  0.00  0.00    +0.000 A 
ATOM     19  C   UNL     1      47.118   6.694  12.548  0.00  0.00    +0.000 A 
ATOM     20  C   UNL     1      47.513   5.879  13.605  0.00  0.00    +0.000 A 
ATOM     21  C   UNL     1      46.795   4.724  13.892  0.00  0.00    +0.000 A 
ATOM     22  C   UNL     1      45.667   4.396  13.134  0.00  0.00    +0.000 A 
ENDBRANCH  14  17
ENDBRANCH   5  14
TORSDOF 3
ENDMDL
MODEL 2
REMARK VINA RESULT:    -6.403      3.597      6.146
REMARK INTER + INTRA:          -8.159
REMARK INTER:                  -7.660
REMARK INTRA:                  -0.499
REMARK UNBOUND:                -0.633
REMARK  Name = 
REMARK  3 active torsions:
REMARK  status: ('A' for Active; 'I' for Inactive)
REMARK    1  A    between atoms: C_2  and  C_4
REMARK    2  A    between atoms: N_8  and  C_9
REMARK    3  A    between atoms: C_9  and  C_10
REMARK                            x       y       z     vdW  Elec       q    Type
REMARK                         _______ _______ _______ _____ _____    ______ ____
ROOT
ATOM      1  C   UNL     1      48.475   7.032  13.493  0.00  0.00    +0.000 A 
ATOM      2  C   UNL     1      47.689   5.966  13.919  0.00  0.00    +0.000 A 
ATOM      3  C   UNL     1      46.483   5.702  13.265  0.00  0.00    +0.000 A 
ATOM      4  C   UNL     1      46.082   6.509  12.204  0.00  0.00    +0.000 A 
ATOM      5  N   UNL     1      44.861   6.360  11.543  0.00  0.00    +0.000 N 
ATOM      6  N   UNL     1      46.825   7.562  11.796  0.00  0.00    +0.000 NA
ATOM      7  C   UNL     1      47.995   7.806  12.449  0.00  0.00    +0.000 A 
ATOM      8  H   UNL     1      44.872   7.029  10.776  0.00  0.00    +0.000 HD
ENDROOT
BRANCH   1  10
ATOM      9  N   UNL     1      50.775   7.780  13.278  0.00  0.00    +0.000 N 
ATOM     10  C   UNL     1      49.770   7.378  14.114  0.00  0.00    +0.000 C 
ATOM     11  O   UNL     1      49.929   7.346  15.327  0.00  0.00    +0.000 OA
ATOM     12  H   UNL     1      51.620   8.118  13.722  0.00  0.00    +0.000 HD
ATOM     13  H   UNL     1      50.606   8.062  12.322  0.00  0.00    +0.000 HD
ENDBRANCH   1  10
BRANCH   5  14
ATOM     14  C   UNL     1      44.173   5.084  11.293  0.00  0.00    +0.000 C 
ATOM     15  C   UNL     1      42.650   5.164  11.368  0.00  0.00    +0.000 C 
ATOM     16  C   UNL     1      43.393   4.333  12.358  0.00  0.00    +0.000 C 
BRANCH  14  17
ATOM     17  C   UNL     1      44.781   4.237  10.173  0.00  0.00    +0.000 A 
ATOM     18  C   UNL     1      44.618   2.840  10.146  0.00  0.00    +0.000 A 
ATOM     19  C   UNL     1      45.069   2.072   9.068  0.00  0.00    +0.000 A 
ATOM     20  C   UNL     1      45.706   2.686   7.994  0.00  0.00    +0.000 A 
ATOM     21  C   UNL     1      45.919   4.060   8.013  0.00  0.00    +0.000 A 
ATOM     22  C   UNL     1      45.473   4.822   9.096  0.00  0.00    +0.000 A 
ENDBRANCH  14  17
ENDBRANCH   5  14
TORSDOF 3
ENDMDL
MODEL 3
REMARK VINA RESULT:    -6.356      3.493      6.206
REMARK INTER + INTRA:          -8.104
REMARK INTER:                  -8.318
REMARK INTRA:                   0.214
REMARK UNBOUND:                -0.633
REMARK  Name = 
REMARK  3 active torsions:
REMARK  status: ('A' for Active; 'I' for Inactive)
REMARK    1  A    between atoms: C_2  and  C_4
REMARK    2  A    between atoms: N_8  and  C_9
REMARK    3  A    between atoms: C_9  and  C_10
REMARK                            x       y       z     vdW  Elec       q    Type
REMARK                         _______ _______ _______ _____ _____    ______ ____
ROOT
ATOM      1  C   UNL     1      47.847   5.948  14.430  0.00  0.00    +0.000 A 
ATOM      2  C   UNL     1      47.443   6.186  13.120  0.00  0.00    +0.000 A 
ATOM      3  C   UNL     1      46.648   5.240  12.467  0.00  0.00    +0.000 A 
ATOM      4  C   UNL     1      46.276   4.074  13.130  0.00  0.00    +0.000 A 
ATOM      5  N   UNL     1      45.545   3.047  12.531  0.00  0.00    +0.000 N 
ATOM      6  N   UNL     1      46.682   3.820  14.395  0.00  0.00    +0.000 NA
ATOM      7  C   UNL     1      47.460   4.751  15.013  0.00  0.00    +0.000 A 
ATOM      8  H   UNL     1      45.361   2.366  13.264  0.00  0.00    +0.000 HD
ENDROOT
BRANCH   1  10
ATOM      9  N   UNL     1      48.092   8.075  15.574  0.00  0.00    +0.000 N 
ATOM     10  C   UNL     1      48.676   6.895  15.203  0.00  0.00    +0.000 C 
ATOM     11  O   UNL     1      49.822   6.623  15.533  0.00  0.00    +0.000 OA
ATOM     12  H   UNL     1      48.631   8.667  16.194  0.00  0.00    +0.000 HD
ATOM     13  H   UNL     1      47.093   8.220  15.546  0.00  0.00    +0.000 HD
ENDBRANCH   1  10
BRANCH   5  14
ATOM     14  C   UNL     1      44.494   3.223  11.517  0.00  0.00    +0.000 C 
ATOM     15  C   UNL     1      43.375   4.177  11.930  0.00  0.00    +0.000 C 
ATOM     16  C   UNL     1      43.067   2.737  11.700  0.00  0.00    +0.000 C 
BRANCH  14  17
ATOM     17  C   UNL     1      45.001   3.312  10.076  0.00  0.00    +0.000 A 
ATOM     18  C   UNL     1      45.262   4.555   9.472  0.00  0.00    +0.000 A 
ATOM     19  C   UNL     1      45.835   4.643   8.199  0.00  0.00    +0.000 A 
ATOM     20  C   UNL     1      46.148   3.484   7.496  0.00  0.00    +0.000 A 
ATOM     21  C   UNL     1      45.861   2.241   8.050  0.00  0.00    +0.000 A 
ATOM     22  C   UNL     1      45.282   2.160   9.319  0.00  0.00    +0.000 A 
ENDBRANCH  14  17
ENDBRANCH   5  14
TORSDOF 3
ENDMDL
MODEL 4
REMARK VINA RESULT:    -5.461      2.661      4.363
REMARK INTER + INTRA:          -7.051
REMARK INTER:                  -7.301
REMARK INTRA:                   0.250
REMARK UNBOUND:                -0.633
REMARK  Name = 
REMARK  3 active torsions:
REMARK  status: ('A' for Active; 'I' for Inactive)
REMARK    1  A    between atoms: C_2  and  C_4
REMARK    2  A    between atoms: N_8  and  C_9
REMARK    3  A    between atoms: C_9  and  C_10
REMARK                            x       y       z     vdW  Elec       q    Type
REMARK                         _______ _______ _______ _____ _____    ______ ____
ROOT
ATOM      1  C   UNL     1      44.994   3.775  10.027  0.00  0.00    +0.000 A 
ATOM      2  C   UNL     1      45.442   5.066   9.768  0.00  0.00    +0.000 A 
ATOM      3  C   UNL     1      45.829   5.882  10.835  0.00  0.00    +0.000 A 
ATOM      4  C   UNL     1      45.757   5.397  12.137  0.00  0.00    +0.000 A 
ATOM      5  N   UNL     1      46.056   6.166  13.263  0.00  0.00    +0.000 N 
ATOM      6  N   UNL     1      45.302   4.152  12.404  0.00  0.00    +0.000 NA
ATOM      7  C   UNL     1      44.924   3.374  11.352  0.00  0.00    +0.000 A 
ATOM      8  H   UNL     1      45.988   5.538  14.061  0.00  0.00    +0.000 HD
ENDROOT
BRANCH   1  10
ATOM      9  N   UNL     1      44.260   3.376   7.748  0.00  0.00    +0.000 N 
ATOM     10  C   UNL     1      44.577   2.838   8.965  0.00  0.00    +0.000 C 
ATOM     11  O   UNL     1      44.551   1.628   9.149  0.00  0.00    +0.000 OA
ATOM     12  H   UNL     1      44.081   2.718   6.999  0.00  0.00    +0.000 HD
ATOM     13  H   UNL     1      44.514   4.319   7.488  0.00  0.00    +0.000 HD
ENDBRANCH   1  10
BRANCH   5  14
ATOM     14  C   UNL     1      47.087   7.212  13.336  0.00  0.00    +0.000 C 
ATOM     15  C   UNL     1      48.493   6.737  12.974  0.00  0.00    +0.000 C 
ATOM     16  C   UNL     1      48.210   7.209  14.359  0.00  0.00    +0.000 C 
BRANCH  14  17
ATOM     17  C   UNL     1      46.649   8.582  12.813  0.00  0.00    +0.000 A 
ATOM     18  C   UNL     1      47.593   9.548  12.422  0.00  0.00    +0.000 A 
ATOM     19  C   UNL     1      47.203  10.756  11.835  0.00  0.00    +0.000 A 
ATOM     20  C   UNL     1      45.853  11.030  11.639  0.00  0.00    +0.000 A 
ATOM     21  C   UNL     1      44.895  10.112  12.056  0.00  0.00    +0.000 A 
ATOM     22  C   UNL     1      45.291   8.910  12.648  0.00  0.00    +0.000 A 
ENDBRANCH  14  17
ENDBRANCH   5  14
TORSDOF 3
ENDMDL
