MODEL 1
REMARK VINA RESULT:    -8.029      0.000      0.000
REMARK INTER + INTRA:         -11.795
REMARK INTER:                 -10.845
REMARK INTRA:                  -0.950
REMARK UNBOUND:                -0.950
REMARK  Name = 
REMARK  7 active torsions:
REMARK  status: ('A' for Active; 'I' for Inactive)
REMARK    1  A    between atoms: C_1  and  C_2
REMARK    2  A    between atoms: C_5  and  C_6
REMARK    3  A    between atoms: N_8  and  C_9
REMARK    4  A    between atoms: C_9  and  C_10
REMARK    5  A    between atoms: C_13  and  C_14
REMARK    6  A    between atoms: C_14  and  N_15
REMARK    7  A    between atoms: C_16  and  C_18
REMARK                            x       y       z     vdW  Elec       q    Type
REMARK                         _______ _______ _______ _____ _____    ______ ____
ROOT
ATOM      1  C   UNL     1      44.909   6.295  11.362  0.00  0.00    +0.000 A 
ATOM      2  C   UNL     1      44.562   7.608  11.710  0.00  0.00    +0.000 A 
ATOM      3  C   UNL     1      45.392   8.372  12.542  0.00  0.00    +0.000 A 
ATOM      4  C   UNL     1      46.600   7.850  13.025  0.00  0.00    +0.000 A 
ATOM      5  C   UNL     1      46.948   6.540  12.670  0.00  0.00    +0.000 A 
ATOM      6  C   UNL     1      46.120   5.776  11.838  0.00  0.00    +0.000 A 
ENDROOT
BRANCH   1   7
ATOM      7  C   UNL     1      44.011   5.467  10.473  0.00  0.00    +0.000 C 
BRANCH   7  10
ATOM      8  C   UNL     1      44.666   3.286   9.496  0.00  0.00    +0.000 C 
ATOM      9  O   UNL     1      43.888   2.667  10.223  0.00  0.00    +0.000 OA
ATOM     10  N   UNL     1      44.777   4.659   9.560  0.00  0.00    +0.000 N 
ATOM     11  H   UNL     1      45.395   5.116   8.900  0.00  0.00    +0.000 HD
BRANCH   8  16
ATOM     12  C   UNL     1      47.938   2.300   5.425  0.00  0.00    +0.000 C 
ATOM     13  C   UNL     1      47.060   2.155   6.620  0.00  0.00    +0.000 A 
ATOM     14  C   UNL     1      46.753   1.020   7.340  0.00  0.00    +0.000 A 
ATOM     15  C   UNL     1      45.871   1.299   8.429  0.00  0.00    +0.000 A 
ATOM     16  C   UNL     1      45.529   2.638   8.513  0.00  0.00    +0.000 A 
ATOM     17  S   UNL     1      46.285   3.535   7.259  0.00  0.00    +0.000 S 
ENDBRANCH   8  16
ENDBRANCH   7  10
ENDBRANCH   1   7
BRANCH   4  18
ATOM     18  C   UNL     1      47.492   8.662  13.931  0.00  0.00    +0.000 C 
BRANCH  18  19
ATOM     19  N   UNL     1      47.853   7.928  15.121  0.00  0.00    +0.000 N 
ATOM     20  C   UNL     1      49.104   7.388  15.281  0.00  0.00    +0.000 C 
ATOM     21  O   UNL     1      49.989   7.536  14.442  0.00  0.00    +0.000 OA
ATOM     22  H   UNL     1      47.090   7.597  15.704  0.00  0.00    +0.000 HD
BRANCH  20  23
ATOM     23  C   UNL     1      49.356   6.674  16.542  0.00  0.00    +0.000 A 
ATOM     24  C   UNL     1      50.206   7.228  17.491  0.00  0.00    +0.000 A 
ATOM     25  S   UNL     1      50.346   6.296  18.914  0.00  0.00    +0.000 S 
ATOM     26  C   UNL     1      49.320   5.091  18.290  0.00  0.00    +0.000 A 
ATOM     27  N   UNL     1      49.038   3.971  19.009  0.00  0.00    +0.000 NA
ATOM     28  C   UNL     1      48.275   3.125  18.402  0.00  0.00    +0.000 A 
ATOM     29  N   UNL     1      47.761   3.301  17.143  0.00  0.00    +0.000 N 
ATOM     30  C   UNL     1      47.988   4.432  16.395  0.00  0.00    +0.000 A 
ATOM     31  O   UNL     1      47.469   4.583  15.294  0.00  0.00    +0.000 OA
ATOM     32  C   UNL     1      48.858   5.407  17.024  0.00  0.00    +0.000 A 
ATOM     33  H   UNL     1      47.159   2.605  16.727  0.00  0.00    +0.000 HD
ENDBRANCH  20  23
ENDBRANCH  18  19
ENDBRANCH   4  18
TORSDOF 6
ENDMDL
MODEL 2
REMARK VINA RESULT:    -7.302      1.626      2.163
REMARK INTER + INTRA:         -10.813
REMARK INTER:                 -10.004
REMARK INTRA:                  -0.810
REMARK UNBOUND:                -0.950
REMARK  Name = 
REMARK  7 active torsions:
REMARK  status: ('A' for Active; 'I' for Inactive)
REMARK    1  A    between atoms: C_1  and  C_2
REMARK    2  A    between atoms: C_5  and  C_6
REMARK    3  A    between atoms: N_8  and  C_9
REMARK    4  A    between atoms: C_9  and  C_10
REMARK    5  A    between atoms: C_13  and  C_14
REMARK    6  A    between atoms: C_14  and  N_15
REMARK    7  A    between atoms: C_16  and  C_18
REMARK                            x       y       z     vdW  Elec       q    Type
REMARK                         _______ _______ _______ _____ _____    ______ ____
ROOT
ATOM      1  C   UNL     1      44.863   4.875  12.167  0.00  0.00    +0.000 A 
ATOM      2  C   UNL     1      46.096   4.977  12.825  0.00  0.00    +0.000 A 
ATOM      3  C   UNL     1      46.610   6.228  13.193  0.00  0.00    +0.000 A 
ATOM      4  C   UNL     1      45.893   7.404  12.934  0.00  0.00    +0.000 A 
ATOM      5  C   UNL     1      44.657   7.299  12.282  0.00  0.00    +0.000 A 
ATOM      6  C   UNL     1      44.142   6.049  11.914  0.00  0.00    +0.000 A 
ENDROOT
BRANCH   1   7
ATOM      7  C   UNL     1      44.311   3.529  11.761  0.00  0.00    +0.000 C 
BRANCH   7  10
ATOM      8  C   UNL     1      44.855   3.363   9.349  0.00  0.00    +0.000 C 
ATOM      9  O   UNL     1      44.036   4.233   9.051  0.00  0.00    +0.000 OA
ATOM     10  N   UNL     1      45.047   2.970  10.656  0.00  0.00    +0.000 N 
ATOM     11  H   UNL     1      45.772   2.288  10.846  0.00  0.00    +0.000 HD
BRANCH   8  16
ATOM     12  C   UNL     1      47.957   2.213   5.189  0.00  0.00    +0.000 C 
ATOM     13  C   UNL     1      47.141   2.120   6.432  0.00  0.00    +0.000 A 
ATOM     14  C   UNL     1      46.900   1.023   7.233  0.00  0.00    +0.000 A 
ATOM     15  C   UNL     1      46.063   1.345   8.345  0.00  0.00    +0.000 A 
ATOM     16  C   UNL     1      45.688   2.678   8.366  0.00  0.00    +0.000 A 
ATOM     17  S   UNL     1      46.359   3.516   7.025  0.00  0.00    +0.000 S 
ENDBRANCH   8  16
ENDBRANCH   7  10
ENDBRANCH   1   7
BRANCH   4  18
ATOM     18  C   UNL     1      46.446   8.755  13.315  0.00  0.00    +0.000 C 
BRANCH  18  19
ATOM     19  N   UNL     1      47.124   8.713  14.589  0.00  0.00    +0.000 N 
ATOM     20  C   UNL     1      48.470   8.964  14.697  0.00  0.00    +0.000 C 
ATOM     21  O   UNL     1      49.153   9.275  13.725  0.00  0.00    +0.000 OA
ATOM     22  H   UNL     1      46.645   8.237  15.348  0.00  0.00    +0.000 HD
BRANCH  20  23
ATOM     23  C   UNL     1      49.043   8.905  16.049  0.00  0.00    +0.000 A 
ATOM     24  C   UNL     1      49.394  10.079  16.703  0.00  0.00    +0.000 A 
ATOM     25  S   UNL     1      49.996   9.834  18.280  0.00  0.00    +0.000 S 
ATOM     26  C   UNL     1      49.863   8.145  18.127  0.00  0.00    +0.000 A 
ATOM     27  N   UNL     1      50.249   7.318  19.135  0.00  0.00    +0.000 NA
ATOM     28  C   UNL     1      50.126   6.060  18.871  0.00  0.00    +0.000 A 
ATOM     29  N   UNL     1      49.644   5.554  17.691  0.00  0.00    +0.000 N 
ATOM     30  C   UNL     1      49.208   6.351  16.659  0.00  0.00    +0.000 A 
ATOM     31  O   UNL     1      48.731   5.867  15.638  0.00  0.00    +0.000 OA
ATOM     32  C   UNL     1      49.344   7.775  16.897  0.00  0.00    +0.000 A 
ATOM     33  H   UNL     1      49.561   4.558  17.550  0.00  0.00    +0.000 HD
ENDBRANCH  20  23
ENDBRANCH  18  19
ENDBRANCH   4  18
TORSDOF 6
ENDMDL
MODEL 3
REMARK VINA RESULT:    -7.258      2.017      2.328
REMARK INTER + INTRA:         -10.753
REMARK INTER:                  -9.842
REMARK INTRA:                  -0.911
REMARK UNBOUND:                -0.950
REMARK  Name = 
REMARK  7 active torsions:
REMARK  status: ('A' for Active; 'I' for Inactive)
REMARK    1  A    between atoms: C_1  and  C_2
REMARK    2  A    between atoms: C_5  and  C_6
REMARK    3  A    between atoms: N_8  and  C_9
REMARK    4  A    between atoms: C_9  and  C_10
REMARK    5  A    between atoms: C_13  and  C_14
REMARK    6  A    between atoms: C_14  and  N_15
REMARK    7  A    between atoms: C_16  and  C_18
REMARK                            x       y       z     vdW  Elec       q    Type
REMARK                         _______ _______ _______ _____ _____    ______ ____
ROOT
ATOM      1  C   UNL     1      45.466   4.638  12.546  0.00  0.00    +0.000 A 
ATOM      2  C   UNL     1      46.440   4.256  13.479  0.00  0.00    +0.000 A 
ATOM      3  C   UNL     1      47.255   5.213  14.098  0.00  0.00    +0.000 A 
ATOM      4  C   UNL     1      47.098   6.578  13.817  0.00  0.00    +0.000 A 
ATOM      5  C   UNL     1      46.120   6.959  12.890  0.00  0.00    +0.000 A 
ATOM      6  C   UNL     1      45.305   6.002  12.271  0.00  0.00    +0.000 A 
ENDROOT
BRANCH   1   7
ATOM      7  C   UNL     1      44.593   3.607  11.871  0.00  0.00    +0.000 C 
BRANCH   7  10
ATOM      8  C   UNL     1      45.002   3.449   9.433  0.00  0.00    +0.000 C 
ATOM      9  O   UNL     1      44.202   4.353   9.187  0.00  0.00    +0.000 OA
ATOM     10  N   UNL     1      45.248   3.034  10.724  0.00  0.00    +0.000 N 
ATOM     11  H   UNL     1      45.955   2.323  10.867  0.00  0.00    +0.000 HD
BRANCH   8  16
ATOM     12  C   UNL     1      47.859   2.237   5.117  0.00  0.00    +0.000 C 
ATOM     13  C   UNL     1      47.093   2.157   6.393  0.00  0.00    +0.000 A 
ATOM     14  C   UNL     1      46.828   1.056   7.179  0.00  0.00    +0.000 A 
ATOM     15  C   UNL     1      46.057   1.395   8.334  0.00  0.00    +0.000 A 
ATOM     16  C   UNL     1      45.755   2.745   8.399  0.00  0.00    +0.000 A 
ATOM     17  S   UNL     1      46.412   3.578   7.049  0.00  0.00    +0.000 S 
ENDBRANCH   8  16
ENDBRANCH   7  10
ENDBRANCH   1   7
BRANCH   4  18
ATOM     18  C   UNL     1      47.981   7.614  14.470  0.00  0.00    +0.000 C 
BRANCH  18  19
ATOM     19  N   UNL     1      49.214   7.037  14.951  0.00  0.00    +0.000 N 
ATOM     20  C   UNL     1      49.490   6.945  16.292  0.00  0.00    +0.000 C 
ATOM     21  O   UNL     1      48.688   7.310  17.148  0.00  0.00    +0.000 OA
ATOM     22  H   UNL     1      49.972   6.951  14.280  0.00  0.00    +0.000 HD
BRANCH  20  23
ATOM     23  C   UNL     1      50.772   6.325  16.659  0.00  0.00    +0.000 A 
ATOM     24  C   UNL     1      51.955   7.034  16.490  0.00  0.00    +0.000 A 
ATOM     25  S   UNL     1      53.342   6.189  17.012  0.00  0.00    +0.000 S 
ATOM     26  C   UNL     1      52.419   4.823  17.431  0.00  0.00    +0.000 A 
ATOM     27  N   UNL     1      53.010   3.703  17.926  0.00  0.00    +0.000 NA
ATOM     28  C   UNL     1      52.196   2.731  18.169  0.00  0.00    +0.000 A 
ATOM     29  N   UNL     1      50.841   2.781  17.969  0.00  0.00    +0.000 N 
ATOM     30  C   UNL     1      50.194   3.903  17.507  0.00  0.00    +0.000 A 
ATOM     31  O   UNL     1      48.973   3.933  17.390  0.00  0.00    +0.000 OA
ATOM     32  C   UNL     1      51.068   5.019  17.198  0.00  0.00    +0.000 A 
ATOM     33  H   UNL     1      50.255   1.989  18.190  0.00  0.00    +0.000 HD
ENDBRANCH  20  23
ENDBRANCH  18  19
ENDBRANCH   4  18
TORSDOF 6
ENDMDL
MODEL 4
REMARK VINA RESULT:    -6.952      2.989      8.477
REMARK INTER + INTRA:         -10.341
REMARK INTER:                  -9.466
REMARK INTRA:                  -0.875
REMARK UNBOUND:                -0.950
REMARK  Name = 
REMARK  7 active torsions:
REMARK  status: ('A' for Active; 'I' for Inactive)
REMARK    1  A    between atoms: C_1  and  C_2
REMARK    2  A    between atoms: C_5  and  C_6
REMARK    3  A    between atoms: N_8  and  C_9
REMARK    4  A    between atoms: C_9  and  C_10
REMARK    5  A    between atoms: C_13  and  C_14
REMARK    6  A    between atoms: C_14  and  N_15
REMARK    7  A    between atoms: C_16  and  C_18
REMARK                            x       y       z     vdW  Elec       q    Type
REMARK                         _______ _______ _______ _____ _____    ______ ____
ROOT
ATOM      1  C   UNL     1      49.990   7.062  15.915  0.00  0.00    +0.000 A 
ATOM      2  C   UNL     1      48.708   6.640  15.539  0.00  0.00    +0.000 A 
ATOM      3  C   UNL     1      48.205   6.928  14.262  0.00  0.00    +0.000 A 
ATOM      4  C   UNL     1      48.982   7.621  13.324  0.00  0.00    +0.000 A 
ATOM      5  C   UNL     1      50.266   8.036  13.700  0.00  0.00    +0.000 A 
ATOM      6  C   UNL     1      50.770   7.749  14.975  0.00  0.00    +0.000 A 
ENDROOT
BRANCH   1   7
ATOM      7  C   UNL     1      50.531   6.761  17.293  0.00  0.00    +0.000 C 
BRANCH   7  10
ATOM      8  C   UNL     1      50.495   4.339  17.817  0.00  0.00    +0.000 C 
ATOM      9  O   UNL     1      49.332   4.390  18.219  0.00  0.00    +0.000 OA
ATOM     10  N   UNL     1      51.145   5.460  17.345  0.00  0.00    +0.000 N 
ATOM     11  H   UNL     1      52.082   5.345  16.978  0.00  0.00    +0.000 HD
BRANCH   8  16
ATOM     12  C   UNL     1      54.369   0.740  18.352  0.00  0.00    +0.000 C 
ATOM     13  C   UNL     1      53.075   1.412  18.043  0.00  0.00    +0.000 A 
ATOM     14  C   UNL     1      51.923   0.875  17.510  0.00  0.00    +0.000 A 
ATOM     15  C   UNL     1      50.892   1.854  17.368  0.00  0.00    +0.000 A 
ATOM     16  C   UNL     1      51.282   3.110  17.799  0.00  0.00    +0.000 A 
ATOM     17  S   UNL     1      52.903   3.080  18.364  0.00  0.00    +0.000 S 
ENDBRANCH   8  16
ENDBRANCH   7  10
ENDBRANCH   1   7
BRANCH   4  18
ATOM     18  C   UNL     1      48.442   7.946  11.953  0.00  0.00    +0.000 C 
BRANCH  18  19
ATOM     19  N   UNL     1      47.677   6.850  11.408  0.00  0.00    +0.000 N 
ATOM     20  C   UNL     1      46.305   6.878  11.372  0.00  0.00    +0.000 C 
ATOM     21  O   UNL     1      45.664   7.851  11.762  0.00  0.00    +0.000 OA
ATOM     22  H   UNL     1      48.159   5.962  11.303  0.00  0.00    +0.000 HD
BRANCH  20  23
ATOM     23  C   UNL     1      45.638   5.709  10.780  0.00  0.00    +0.000 A 
ATOM     24  C   UNL     1      45.734   5.477   9.414  0.00  0.00    +0.000 A 
ATOM     25  S   UNL     1      44.947   4.052   8.903  0.00  0.00    +0.000 S 
ATOM     26  C   UNL     1      44.401   3.723  10.480  0.00  0.00    +0.000 A 
ATOM     27  N   UNL     1      43.626   2.636  10.741  0.00  0.00    +0.000 NA
ATOM     28  C   UNL     1      43.256   2.526  11.972  0.00  0.00    +0.000 A 
ATOM     29  N   UNL     1      43.595   3.403  12.970  0.00  0.00    +0.000 N 
ATOM     30  C   UNL     1      44.406   4.495  12.762  0.00  0.00    +0.000 A 
ATOM     31  O   UNL     1      44.736   5.230  13.687  0.00  0.00    +0.000 OA
ATOM     32  C   UNL     1      44.834   4.675  11.388  0.00  0.00    +0.000 A 
ATOM     33  H   UNL     1      43.282   3.256  13.919  0.00  0.00    +0.000 HD
ENDBRANCH  20  23
ENDBRANCH  18  19
ENDBRANCH   4  18
TORSDOF 6
ENDMDL
MODEL 5
REMARK VINA RESULT:    -6.793      2.302      3.129
REMARK INTER + INTRA:         -10.126
REMARK INTER:                  -9.161
REMARK INTRA:                  -0.965
REMARK UNBOUND:                -0.950
REMARK  Name = 
REMARK  7 active torsions:
REMARK  status: ('A' for Active; 'I' for Inactive)
REMARK    1  A    between atoms: C_1  and  C_2
REMARK    2  A    between atoms: C_5  and  C_6
REMARK    3  A    between atoms: N_8  and  C_9
REMARK    4  A    between atoms: C_9  and  C_10
REMARK    5  A    between atoms: C_13  and  C_14
REMARK    6  A    between atoms: C_14  and  N_15
REMARK    7  A    between atoms: C_16  and  C_18
REMARK                            x       y       z     vdW  Elec       q    Type
REMARK                         _______ _______ _______ _____ _____    ______ ____
ROOT
ATOM      1  C   UNL     1      46.042   7.255  12.286  0.00  0.00    +0.000 A 
ATOM      2  C   UNL     1      47.048   6.313  12.542  0.00  0.00    +0.000 A 
ATOM      3  C   UNL     1      48.066   6.585  13.466  0.00  0.00    +0.000 A 
ATOM      4  C   UNL     1      48.088   7.795  14.175  0.00  0.00    +0.000 A 
ATOM      5  C   UNL     1      47.078   8.732  13.922  0.00  0.00    +0.000 A 
ATOM      6  C   UNL     1      46.060   8.461  12.998  0.00  0.00    +0.000 A 
ENDROOT
BRANCH   1   7
ATOM      7  C   UNL     1      44.950   6.967  11.283  0.00  0.00    +0.000 C 
BRANCH   7  10
ATOM      8  C   UNL     1      44.537   4.715  10.337  0.00  0.00    +0.000 C 
ATOM      9  O   UNL     1      43.497   4.576  10.983  0.00  0.00    +0.000 OA
ATOM     10  N   UNL     1      45.297   5.860  10.430  0.00  0.00    +0.000 N 
ATOM     11  H   UNL     1      46.113   5.938   9.834  0.00  0.00    +0.000 HD
BRANCH   8  16
ATOM     12  C   UNL     1      46.939   2.192   6.322  0.00  0.00    +0.000 C 
ATOM     13  C   UNL     1      46.171   2.499   7.562  0.00  0.00    +0.000 A 
ATOM     14  C   UNL     1      45.578   1.632   8.454  0.00  0.00    +0.000 A 
ATOM     15  C   UNL     1      44.934   2.322   9.526  0.00  0.00    +0.000 A 
ATOM     16  C   UNL     1      45.053   3.698   9.425  0.00  0.00    +0.000 A 
ATOM     17  S   UNL     1      45.944   4.127   8.021  0.00  0.00    +0.000 S 
ENDBRANCH   8  16
ENDBRANCH   7  10
ENDBRANCH   1   7
BRANCH   4  18
ATOM     18  C   UNL     1      49.188   8.100  15.161  0.00  0.00    +0.000 C 
BRANCH  18  19
ATOM     19  N   UNL     1      49.825   6.897  15.639  0.00  0.00    +0.000 N 
ATOM     20  C   UNL     1      49.426   6.284  16.802  0.00  0.00    +0.000 C 
ATOM     21  O   UNL     1      48.485   6.706  17.469  0.00  0.00    +0.000 OA
ATOM     22  H   UNL     1      50.734   6.671  15.245  0.00  0.00    +0.000 HD
BRANCH  20  23
ATOM     23  C   UNL     1      50.142   5.056  17.177  0.00  0.00    +0.000 A 
ATOM     24  C   UNL     1      49.437   3.872  17.351  0.00  0.00    +0.000 A 
ATOM     25  S   UNL     1      50.426   2.535  17.735  0.00  0.00    +0.000 S 
ATOM     26  C   UNL     1      51.826   3.502  17.738  0.00  0.00    +0.000 A 
ATOM     27  N   UNL     1      53.043   2.970  18.028  0.00  0.00    +0.000 NA
ATOM     28  C   UNL     1      54.013   3.823  18.028  0.00  0.00    +0.000 A 
ATOM     29  N   UNL     1      53.876   5.160  17.756  0.00  0.00    +0.000 N 
ATOM     30  C   UNL     1      52.672   5.735  17.421  0.00  0.00    +0.000 A 
ATOM     31  O   UNL     1      52.592   6.923  17.129  0.00  0.00    +0.000 OA
ATOM     32  C   UNL     1      51.545   4.822  17.427  0.00  0.00    +0.000 A 
ATOM     33  H   UNL     1      54.676   5.774  17.760  0.00  0.00    +0.000 HD
ENDBRANCH  20  23
ENDBRANCH  18  19
ENDBRANCH   4  18
TORSDOF 6
ENDMDL
MODEL 6
REMARK VINA RESULT:    -6.696      3.135      8.976
REMARK INTER + INTRA:          -9.994
REMARK INTER:                  -9.251
REMARK INTRA:                  -0.743
REMARK UNBOUND:                -0.950
REMARK  Name = 
REMARK  7 active torsions:
REMARK  status: ('A' for Active; 'I' for Inactive)
REMARK    1  A    between atoms: C_1  and  C_2
REMARK    2  A    between atoms: C_5  and  C_6
REMARK    3  A    between atoms: N_8  and  C_9
REMARK    4  A    between atoms: C_9  and  C_10
REMARK    5  A    between atoms: C_13  and  C_14
REMARK    6  A    between atoms: C_14  and  N_15
REMARK    7  A    between atoms: C_16  and  C_18
REMARK                            x       y       z     vdW  Elec       q    Type
REMARK                         _______ _______ _______ _____ _____    ______ ____
ROOT
ATOM      1  C   UNL     1      50.290   7.067  15.759  0.00  0.00    +0.000 A 
ATOM      2  C   UNL     1      49.048   6.420  15.779  0.00  0.00    +0.000 A 
ATOM      3  C   UNL     1      48.128   6.601  14.737  0.00  0.00    +0.000 A 
ATOM      4  C   UNL     1      48.441   7.413  13.637  0.00  0.00    +0.000 A 
ATOM      5  C   UNL     1      49.686   8.054  13.616  0.00  0.00    +0.000 A 
ATOM      6  C   UNL     1      50.606   7.873  14.657  0.00  0.00    +0.000 A 
ENDROOT
BRANCH   1   7
ATOM      7  C   UNL     1      51.279   6.880  16.886  0.00  0.00    +0.000 C 
BRANCH   7  10
ATOM      8  C   UNL     1      51.252   4.649  17.963  0.00  0.00    +0.000 C 
ATOM      9  O   UNL     1      50.435   5.009  18.811  0.00  0.00    +0.000 OA
ATOM     10  N   UNL     1      51.708   5.509  16.987  0.00  0.00    +0.000 N 
ATOM     11  H   UNL     1      52.340   5.141  16.286  0.00  0.00    +0.000 HD
BRANCH   8  16
ATOM     12  C   UNL     1      54.392   0.388  18.452  0.00  0.00    +0.000 C 
ATOM     13  C   UNL     1      53.255   1.296  18.132  0.00  0.00    +0.000 A 
ATOM     14  C   UNL     1      52.051   1.001  17.529  0.00  0.00    +0.000 A 
ATOM     15  C   UNL     1      51.218   2.155  17.400  0.00  0.00    +0.000 A 
ATOM     16  C   UNL     1      51.807   3.300  17.910  0.00  0.00    +0.000 A 
ATOM     17  S   UNL     1      53.369   2.951  18.532  0.00  0.00    +0.000 S 
ENDBRANCH   8  16
ENDBRANCH   7  10
ENDBRANCH   1   7
BRANCH   4  18
ATOM     18  C   UNL     1      47.451   7.624  12.518  0.00  0.00    +0.000 C 
BRANCH  18  19
ATOM     19  N   UNL     1      46.757   6.403  12.184  0.00  0.00    +0.000 N 
ATOM     20  C   UNL     1      45.458   6.412  11.740  0.00  0.00    +0.000 C 
ATOM     21  O   UNL     1      44.837   7.458  11.567  0.00  0.00    +0.000 OA
ATOM     22  H   UNL     1      47.155   5.537  12.536  0.00  0.00    +0.000 HD
BRANCH  20  23
ATOM     23  C   UNL     1      44.863   5.107  11.418  0.00  0.00    +0.000 A 
ATOM     24  C   UNL     1      44.100   4.442  12.370  0.00  0.00    +0.000 A 
ATOM     25  S   UNL     1      43.444   2.968  11.816  0.00  0.00    +0.000 S 
ATOM     26  C   UNL     1      44.202   3.136  10.303  0.00  0.00    +0.000 A 
ATOM     27  N   UNL     1      44.071   2.180   9.344  0.00  0.00    +0.000 NA
ATOM     28  C   UNL     1      44.726   2.420   8.258  0.00  0.00    +0.000 A 
ATOM     29  N   UNL     1      45.495   3.534   8.040  0.00  0.00    +0.000 N 
ATOM     30  C   UNL     1      45.627   4.543   8.965  0.00  0.00    +0.000 A 
ATOM     31  O   UNL     1      46.278   5.553   8.718  0.00  0.00    +0.000 OA
ATOM     32  C   UNL     1      44.926   4.313  10.213  0.00  0.00    +0.000 A 
ATOM     33  H   UNL     1      45.974   3.670   7.162  0.00  0.00    +0.000 HD
ENDBRANCH  20  23
ENDBRANCH  18  19
ENDBRANCH   4  18
TORSDOF 6
ENDMDL
MODEL 7
REMARK VINA RESULT:    -6.508      1.504      2.217
REMARK INTER + INTRA:          -9.740
REMARK INTER:                  -8.949
REMARK INTRA:                  -0.791
REMARK UNBOUND:                -0.950
REMARK  Name = 
REMARK  7 active torsions:
REMARK  status: ('A' for Active; 'I' for Inactive)
REMARK    1  A    between atoms: C_1  and  C_2
REMARK    2  A    between atoms: C_5  and  C_6
REMARK    3  A    between atoms: N_8  and  C_9
REMARK    4  A    between atoms: C_9  and  C_10
REMARK    5  A    between atoms: C_13  and  C_14
REMARK    6  A    between atoms: C_14  and  N_15
REMARK    7  A    between atoms: C_16  and  C_18
REMARK                            x       y       z     vdW  Elec       q    Type
REMARK                         _______ _______ _______ _____ _____    ______ ____
ROOT
ATOM      1  C   UNL     1      44.671   5.831  11.120  0.00  0.00    +0.000 A 
ATOM      2  C   UNL     1      44.330   6.082  12.456  0.00  0.00    +0.000 A 
ATOM      3  C   UNL     1      45.178   6.829  13.285  0.00  0.00    +0.000 A 
ATOM      4  C   UNL     1      46.376   7.364  12.790  0.00  0.00    +0.000 A 
ATOM      5  C   UNL     1      46.713   7.118  11.453  0.00  0.00    +0.000 A 
ATOM      6  C   UNL     1      45.865   6.372  10.624  0.00  0.00    +0.000 A 
ENDROOT
BRANCH   1   7
ATOM      7  C   UNL     1      43.763   5.019  10.228  0.00  0.00    +0.000 C 
BRANCH   7  10
ATOM      8  C   UNL     1      45.169   3.108   9.512  0.00  0.00    +0.000 C 
ATOM      9  O   UNL     1      45.143   2.601  10.634  0.00  0.00    +0.000 OA
ATOM     10  N   UNL     1      44.513   4.289   9.239  0.00  0.00    +0.000 N 
ATOM     11  H   UNL     1      44.527   4.630   8.285  0.00  0.00    +0.000 HD
BRANCH   8  16
ATOM     12  C   UNL     1      47.803   2.355   4.957  0.00  0.00    +0.000 C 
ATOM     13  C   UNL     1      47.118   2.144   6.264  0.00  0.00    +0.000 A 
ATOM     14  C   UNL     1      46.940   0.975   6.973  0.00  0.00    +0.000 A 
ATOM     15  C   UNL     1      46.228   1.191   8.192  0.00  0.00    +0.000 A 
ATOM     16  C   UNL     1      45.883   2.518   8.384  0.00  0.00    +0.000 A 
ATOM     17  S   UNL     1      46.428   3.481   7.070  0.00  0.00    +0.000 S 
ENDBRANCH   8  16
ENDBRANCH   7  10
ENDBRANCH   1   7
BRANCH   4  18
ATOM     18  C   UNL     1      47.301   8.158  13.680  0.00  0.00    +0.000 C 
BRANCH  18  19
ATOM     19  N   UNL     1      47.518   7.500  14.946  0.00  0.00    +0.000 N 
ATOM     20  C   UNL     1      48.637   6.740  15.179  0.00  0.00    +0.000 C 
ATOM     21  O   UNL     1      49.525   6.616  14.340  0.00  0.00    +0.000 OA
ATOM     22  H   UNL     1      46.710   7.393  15.552  0.00  0.00    +0.000 HD
BRANCH  20  23
ATOM     23  C   UNL     1      48.752   6.131  16.512  0.00  0.00    +0.000 A 
ATOM     24  C   UNL     1      48.292   4.837  16.723  0.00  0.00    +0.000 A 
ATOM     25  S   UNL     1      48.550   4.267  18.310  0.00  0.00    +0.000 S 
ATOM     26  C   UNL     1      49.234   5.749  18.790  0.00  0.00    +0.000 A 
ATOM     27  N   UNL     1      49.651   5.946  20.069  0.00  0.00    +0.000 NA
ATOM     28  C   UNL     1      50.119   7.126  20.303  0.00  0.00    +0.000 A 
ATOM     29  N   UNL     1      50.214   8.126  19.370  0.00  0.00    +0.000 N 
ATOM     30  C   UNL     1      49.839   7.962  18.057  0.00  0.00    +0.000 A 
ATOM     31  O   UNL     1      49.988   8.859  17.235  0.00  0.00    +0.000 OA
ATOM     32  C   UNL     1      49.287   6.657  17.746  0.00  0.00    +0.000 A 
ATOM     33  H   UNL     1      50.600   9.027  19.613  0.00  0.00    +0.000 HD
ENDBRANCH  20  23
ENDBRANCH  18  19
ENDBRANCH   4  18
TORSDOF 6
ENDMDL
MODEL 8
REMARK VINA RESULT:    -6.163      3.641      4.401
REMARK INTER + INTRA:          -9.275
REMARK INTER:                  -8.408
REMARK INTRA:                  -0.866
REMARK UNBOUND:                -0.950
REMARK  Name = 
REMARK  7 active torsions:
REMARK  status: ('A' for Active; 'I' for Inactive)
REMARK    1  A    between atoms: C_1  and  C_2
REMARK    2  A    between atoms: C_5  and  C_6
REMARK    3  A    between atoms: N_8  and  C_9
REMARK    4  A    between atoms: C_9  and  C_10
REMARK    5  A    between atoms: C_13  and  C_14
REMARK    6  A    between atoms: C_14  and  N_15
REMARK    7  A    between atoms: C_16  and  C_18
REMARK                            x       y       z     vdW  Elec       q    Type
REMARK                         _______ _______ _______ _____ _____    ______ ____
ROOT
ATOM      1  C   UNL     1      45.654   6.769  11.858  0.00  0.00    +0.000 A 
ATOM      2  C   UNL     1      45.200   7.942  12.475  0.00  0.00    +0.000 A 
ATOM      3  C   UNL     1      46.106   8.890  12.969  0.00  0.00    +0.000 A 
ATOM      4  C   UNL     1      47.489   8.699  12.834  0.00  0.00    +0.000 A 
ATOM      5  C   UNL     1      47.941   7.529  12.211  0.00  0.00    +0.000 A 
ATOM      6  C   UNL     1      47.036   6.581  11.717  0.00  0.00    +0.000 A 
ENDROOT
BRANCH   1   7
ATOM      7  C   UNL     1      44.679   5.742  11.334  0.00  0.00    +0.000 C 
BRANCH   7  10
ATOM      8  C   UNL     1      44.671   3.774   9.827  0.00  0.00    +0.000 C 
ATOM      9  O   UNL     1      43.535   3.447  10.174  0.00  0.00    +0.000 OA
ATOM     10  N   UNL     1      45.293   4.888  10.349  0.00  0.00    +0.000 N 
ATOM     11  H   UNL     1      46.206   5.136   9.987  0.00  0.00    +0.000 HD
BRANCH   8  16
ATOM     12  C   UNL     1      47.773   2.404   5.734  0.00  0.00    +0.000 C 
ATOM     13  C   UNL     1      46.903   2.366   6.944  0.00  0.00    +0.000 A 
ATOM     14  C   UNL     1      46.500   1.279   7.690  0.00  0.00    +0.000 A 
ATOM     15  C   UNL     1      45.664   1.661   8.784  0.00  0.00    +0.000 A 
ATOM     16  C   UNL     1      45.453   3.028   8.846  0.00  0.00    +0.000 A 
ATOM     17  S   UNL     1      46.273   3.825   7.565  0.00  0.00    +0.000 S 
ENDBRANCH   8  16
ENDBRANCH   7  10
ENDBRANCH   1   7
BRANCH   4  18
ATOM     18  C   UNL     1      48.471   9.709  13.375  0.00  0.00    +0.000 C 
BRANCH  18  19
ATOM     19  N   UNL     1      49.791   9.143  13.520  0.00  0.00    +0.000 N 
ATOM     20  C   UNL     1      50.767   9.772  14.253  0.00  0.00    +0.000 C 
ATOM     21  O   UNL     1      50.554  10.823  14.853  0.00  0.00    +0.000 OA
ATOM     22  H   UNL     1      50.056   8.420  12.857  0.00  0.00    +0.000 HD
BRANCH  20  23
ATOM     23  C   UNL     1      52.067   9.091  14.339  0.00  0.00    +0.000 A 
ATOM     24  C   UNL     1      52.696   8.955  15.570  0.00  0.00    +0.000 A 
ATOM     25  S   UNL     1      54.168   8.096  15.498  0.00  0.00    +0.000 S 
ATOM     26  C   UNL     1      54.048   7.924  13.810  0.00  0.00    +0.000 A 
ATOM     27  N   UNL     1      55.021   7.294  13.099  0.00  0.00    +0.000 NA
ATOM     28  C   UNL     1      54.818   7.264  11.825  0.00  0.00    +0.000 A 
ATOM     29  N   UNL     1      53.725   7.802  11.196  0.00  0.00    +0.000 N 
ATOM     30  C   UNL     1      52.698   8.415  11.876  0.00  0.00    +0.000 A 
ATOM     31  O   UNL     1      51.708   8.838  11.289  0.00  0.00    +0.000 OA
ATOM     32  C   UNL     1      52.887   8.493  13.312  0.00  0.00    +0.000 A 
ATOM     33  H   UNL     1      53.618   7.736  10.195  0.00  0.00    +0.000 HD
ENDBRANCH  20  23
ENDBRANCH  18  19
ENDBRANCH   4  18
TORSDOF 6
ENDMDL
MODEL 9
REMARK VINA RESULT:    -6.074      3.801      8.942
REMARK INTER + INTRA:          -9.153
REMARK INTER:                  -8.357
REMARK INTRA:                  -0.796
REMARK UNBOUND:                -0.950
REMARK  Name = 
REMARK  7 active torsions:
REMARK  status: ('A' for Active; 'I' for Inactive)
REMARK    1  A    between atoms: C_1  and  C_2
REMARK    2  A    between atoms: C_5  and  C_6
REMARK    3  A    between atoms: N_8  and  C_9
REMARK    4  A    between atoms: C_9  and  C_10
REMARK    5  A    between atoms: C_13  and  C_14
REMARK    6  A    between atoms: C_14  and  N_15
REMARK    7  A    between atoms: C_16  and  C_18
REMARK                            x       y       z     vdW  Elec       q    Type
REMARK                         _______ _______ _______ _____ _____    ______ ____
ROOT
ATOM      1  C   UNL     1      50.264   5.491  18.138  0.00  0.00    +0.000 A 
ATOM      2  C   UNL     1      51.184   6.376  17.559  0.00  0.00    +0.000 A 
ATOM      3  C   UNL     1      50.797   7.235  16.522  0.00  0.00    +0.000 A 
ATOM      4  C   UNL     1      49.474   7.249  16.057  0.00  0.00    +0.000 A 
ATOM      5  C   UNL     1      48.554   6.369  16.642  0.00  0.00    +0.000 A 
ATOM      6  C   UNL     1      48.940   5.510  17.679  0.00  0.00    +0.000 A 
ENDROOT
BRANCH   1   7
ATOM      7  C   UNL     1      50.682   4.558  19.250  0.00  0.00    +0.000 C 
BRANCH   7  10
ATOM      8  C   UNL     1      52.919   3.492  19.264  0.00  0.00    +0.000 C 
ATOM      9  O   UNL     1      53.335   4.257  20.136  0.00  0.00    +0.000 OA
ATOM     10  N   UNL     1      51.629   3.578  18.785  0.00  0.00    +0.000 N 
ATOM     11  H   UNL     1      51.328   2.889  18.106  0.00  0.00    +0.000 HD
BRANCH   8  16
ATOM     12  C   UNL     1      54.596  -0.764  16.557  0.00  0.00    +0.000 C 
ATOM     13  C   UNL     1      54.541   0.460  17.406  0.00  0.00    +0.000 A 
ATOM     14  C   UNL     1      55.572   1.132  18.028  0.00  0.00    +0.000 A 
ATOM     15  C   UNL     1      55.107   2.272  18.754  0.00  0.00    +0.000 A 
ATOM     16  C   UNL     1      53.735   2.440  18.667  0.00  0.00    +0.000 A 
ATOM     17  S   UNL     1      53.034   1.203  17.704  0.00  0.00    +0.000 S 
ENDBRANCH   8  16
ENDBRANCH   7  10
ENDBRANCH   1   7
BRANCH   4  18
ATOM     18  C   UNL     1      49.053   8.162  14.932  0.00  0.00    +0.000 C 
BRANCH  18  19
ATOM     19  N   UNL     1      47.832   7.711  14.308  0.00  0.00    +0.000 N 
ATOM     20  C   UNL     1      47.844   6.821  13.264  0.00  0.00    +0.000 C 
ATOM     21  O   UNL     1      48.887   6.334  12.836  0.00  0.00    +0.000 OA
ATOM     22  H   UNL     1      46.997   8.265  14.480  0.00  0.00    +0.000 HD
BRANCH  20  23
ATOM     23  C   UNL     1      46.536   6.426  12.721  0.00  0.00    +0.000 A 
ATOM     24  C   UNL     1      45.694   7.389  12.178  0.00  0.00    +0.000 A 
ATOM     25  S   UNL     1      44.241   6.754  11.548  0.00  0.00    +0.000 S 
ATOM     26  C   UNL     1      44.658   5.177  12.028  0.00  0.00    +0.000 A 
ATOM     27  N   UNL     1      43.815   4.132  11.809  0.00  0.00    +0.000 NA
ATOM     28  C   UNL     1      44.243   2.998  12.254  0.00  0.00    +0.000 A 
ATOM     29  N   UNL     1      45.442   2.812  12.893  0.00  0.00    +0.000 N 
ATOM     30  C   UNL     1      46.342   3.831  13.103  0.00  0.00    +0.000 A 
ATOM     31  O   UNL     1      47.430   3.621  13.628  0.00  0.00    +0.000 OA
ATOM     32  C   UNL     1      45.900   5.132  12.639  0.00  0.00    +0.000 A 
ATOM     33  H   UNL     1      45.725   1.896  13.207  0.00  0.00    +0.000 HD
ENDBRANCH  20  23
ENDBRANCH  18  19
ENDBRANCH   4  18
TORSDOF 6
ENDMDL
