MODEL 1
REMARK VINA RESULT:    -7.700      0.000      0.000
REMARK INTER + INTRA:         -10.163
REMARK INTER:                  -9.951
REMARK INTRA:                  -0.212
REMARK UNBOUND:                -0.212
REMARK  Name = 
REMARK  5 active torsions:
REMARK  status: ('A' for Active; 'I' for Inactive)
REMARK    1  A    between atoms: C_2  and  C_18
REMARK    2  A    between atoms: N_3  and  C_4
REMARK    3  A    between atoms: C_4  and  C_5
REMARK    4  A    between atoms: C_8  and  C_9
REMARK    5  A    between atoms: C_9  and  N_10
REMARK                            x       y       z     vdW  Elec       q    Type
REMARK                         _______ _______ _______ _____ _____    ______ ____
ROOT
ATOM      1  O   UNL     1      46.431   3.395  13.835  0.00  0.00    +0.000 OA
ATOM      2  C   UNL     1      46.359   4.574  14.174  0.00  0.00    +0.000 C 
ATOM      3  N   UNL     1      45.276   5.353  13.836  0.00  0.00    +0.000 N 
ATOM      4  H   UNL     1      45.338   6.361  13.948  0.00  0.00    +0.000 HD
ENDROOT
BRANCH   2   5
ATOM      5  C   UNL     1      47.415   5.198  14.981  0.00  0.00    +0.000 A 
ATOM      6  C   UNL     1      48.170   6.230  14.437  0.00  0.00    +0.000 A 
ATOM      7  S   UNL     1      49.345   6.860  15.496  0.00  0.00    +0.000 S 
ATOM      8  C   UNL     1      48.857   5.807  16.745  0.00  0.00    +0.000 A 
ATOM      9  N   UNL     1      49.443   5.864  17.970  0.00  0.00    +0.000 NA
ATOM     10  C   UNL     1      48.952   5.033  18.830  0.00  0.00    +0.000 A 
ATOM     11  N   UNL     1      47.940   4.148  18.573  0.00  0.00    +0.000 N 
ATOM     12  C   UNL     1      47.342   4.033  17.338  0.00  0.00    +0.000 A 
ATOM     13  O   UNL     1      46.470   3.195  17.123  0.00  0.00    +0.000 OA
ATOM     14  C   UNL     1      47.835   4.963  16.342  0.00  0.00    +0.000 A 
ATOM     15  H   UNL     1      47.617   3.515  19.287  0.00  0.00    +0.000 HD
ENDBRANCH   2   5
BRANCH   3  16
ATOM     16  C   UNL     1      44.245   4.829  12.966  0.00  0.00    +0.000 C 
BRANCH  16  17
ATOM     17  C   UNL     1      44.723   4.663  11.552  0.00  0.00    +0.000 A 
ATOM     18  C   UNL     1      45.479   5.671  10.951  0.00  0.00    +0.000 A 
ATOM     19  C   UNL     1      45.918   5.522   9.640  0.00  0.00    +0.000 A 
ATOM     20  C   UNL     1      45.567   4.382   8.919  0.00  0.00    +0.000 A 
ATOM     21  N   UNL     1      44.834   3.385   9.482  0.00  0.00    +0.000 NA
ATOM     22  C   UNL     1      44.441   3.545  10.777  0.00  0.00    +0.000 A 
BRANCH  20  23
ATOM     23  C   UNL     1      46.086   4.221   7.495  0.00  0.00    +0.000 C 
BRANCH  23  24
ATOM     24  N   UNL     1      45.977   2.926   6.800  0.00  0.00    +0.000 NA
ATOM     25  C   UNL     1      46.489   1.738   7.493  0.00  0.00    +0.000 C 
ATOM     26  C   UNL     1      47.986   1.449   7.269  0.00  0.00    +0.000 C 
ATOM     27  O   UNL     1      48.334   1.447   5.879  0.00  0.00    +0.000 OA
ATOM     28  C   UNL     1      47.943   2.674   5.245  0.00  0.00    +0.000 C 
ATOM     29  C   UNL     1      46.441   2.929   5.408  0.00  0.00    +0.000 C 
ENDBRANCH  23  24
ENDBRANCH  20  23
ENDBRANCH  16  17
ENDBRANCH   3  16
TORSDOF 5
ENDMDL
MODEL 2
REMARK VINA RESULT:    -7.496      3.906      6.285
REMARK INTER + INTRA:          -9.900
REMARK INTER:                  -8.963
REMARK INTRA:                  -0.937
REMARK UNBOUND:                -0.212
REMARK  Name = 
REMARK  5 active torsions:
REMARK  status: ('A' for Active; 'I' for Inactive)
REMARK    1  A    between atoms: C_2  and  C_18
REMARK    2  A    between atoms: N_3  and  C_4
REMARK    3  A    between atoms: C_4  and  C_5
REMARK    4  A    between atoms: C_8  and  C_9
REMARK    5  A    between atoms: C_9  and  N_10
REMARK                            x       y       z     vdW  Elec       q    Type
REMARK                         _______ _______ _______ _____ _____    ______ ____
ROOT
ATOM      1  O   UNL     1      51.651   5.921  16.704  0.00  0.00    +0.000 OA
ATOM      2  C   UNL     1      51.370   5.051  17.525  0.00  0.00    +0.000 C 
ATOM      3  N   UNL     1      50.086   4.898  17.997  0.00  0.00    +0.000 N 
ATOM      4  H   UNL     1      49.926   4.318  18.816  0.00  0.00    +0.000 HD
ENDROOT
BRANCH   2   5
ATOM      5  C   UNL     1      52.387   4.115  18.018  0.00  0.00    +0.000 A 
ATOM      6  C   UNL     1      53.482   4.606  18.720  0.00  0.00    +0.000 A 
ATOM      7  S   UNL     1      54.568   3.400  19.237  0.00  0.00    +0.000 S 
ATOM      8  C   UNL     1      53.590   2.166  18.582  0.00  0.00    +0.000 A 
ATOM      9  N   UNL     1      53.934   0.860  18.724  0.00  0.00    +0.000 NA
ATOM     10  C   UNL     1      53.086   0.031  18.209  0.00  0.00    +0.000 A 
ATOM     11  N   UNL     1      51.937   0.391  17.559  0.00  0.00    +0.000 N 
ATOM     12  C   UNL     1      51.567   1.704  17.363  0.00  0.00    +0.000 A 
ATOM     13  O   UNL     1      50.555   1.998  16.731  0.00  0.00    +0.000 OA
ATOM     14  C   UNL     1      52.470   2.675  17.946  0.00  0.00    +0.000 A 
ATOM     15  H   UNL     1      51.328  -0.307  17.164  0.00  0.00    +0.000 HD
ENDBRANCH   2   5
BRANCH   3  16
ATOM     16  C   UNL     1      49.055   5.843  17.623  0.00  0.00    +0.000 C 
BRANCH  16  17
ATOM     17  C   UNL     1      48.272   5.386  16.427  0.00  0.00    +0.000 A 
ATOM     18  C   UNL     1      48.280   6.149  15.258  0.00  0.00    +0.000 A 
ATOM     19  C   UNL     1      47.550   5.731  14.150  0.00  0.00    +0.000 A 
ATOM     20  C   UNL     1      46.782   4.571  14.227  0.00  0.00    +0.000 A 
ATOM     21  N   UNL     1      46.758   3.809  15.353  0.00  0.00    +0.000 NA
ATOM     22  C   UNL     1      47.504   4.228  16.413  0.00  0.00    +0.000 A 
BRANCH  20  23
ATOM     23  C   UNL     1      46.016   4.111  12.993  0.00  0.00    +0.000 C 
BRANCH  23  24
ATOM     24  N   UNL     1      44.542   4.121  12.978  0.00  0.00    +0.000 NA
ATOM     25  C   UNL     1      43.866   3.216  12.040  0.00  0.00    +0.000 C 
ATOM     26  C   UNL     1      43.635   3.795  10.631  0.00  0.00    +0.000 C 
ATOM     27  O   UNL     1      43.011   5.085  10.673  0.00  0.00    +0.000 OA
ATOM     28  C   UNL     1      43.759   5.997  11.490  0.00  0.00    +0.000 C 
ATOM     29  C   UNL     1      43.931   5.454  12.912  0.00  0.00    +0.000 C 
ENDBRANCH  23  24
ENDBRANCH  20  23
ENDBRANCH  16  17
ENDBRANCH   3  16
TORSDOF 5
ENDMDL
MODEL 3
REMARK VINA RESULT:    -7.277      4.203      9.654
REMARK INTER + INTRA:          -9.616
REMARK INTER:                  -8.993
REMARK INTRA:                  -0.623
REMARK UNBOUND:                -0.212
REMARK  Name = 
REMARK  5 active torsions:
REMARK  status: ('A' for Active; 'I' for Inactive)
REMARK    1  A    between atoms: C_2  and  C_18
REMARK    2  A    between atoms: N_3  and  C_4
REMARK    3  A    between atoms: C_4  and  C_5
REMARK    4  A    between atoms: C_8  and  C_9
REMARK    5  A    between atoms: C_9  and  N_10
REMARK                            x       y       z     vdW  Elec       q    Type
REMARK                         _______ _______ _______ _____ _____    ______ ____
ROOT
ATOM      1  O   UNL     1      47.158   3.046  14.003  0.00  0.00    +0.000 OA
ATOM      2  C   UNL     1      46.815   4.130  14.472  0.00  0.00    +0.000 C 
ATOM      3  N   UNL     1      46.904   4.387  15.820  0.00  0.00    +0.000 N 
ATOM      4  H   UNL     1      46.428   5.201  16.200  0.00  0.00    +0.000 HD
ENDROOT
BRANCH   2   5
ATOM      5  C   UNL     1      46.324   5.210  13.608  0.00  0.00    +0.000 A 
ATOM      6  C   UNL     1      47.159   6.284  13.318  0.00  0.00    +0.000 A 
ATOM      7  S   UNL     1      46.454   7.449  12.295  0.00  0.00    +0.000 S 
ATOM      8  C   UNL     1      45.019   6.538  12.160  0.00  0.00    +0.000 A 
ATOM      9  N   UNL     1      44.000   6.963  11.368  0.00  0.00    +0.000 NA
ATOM     10  C   UNL     1      42.988   6.159  11.332  0.00  0.00    +0.000 A 
ATOM     11  N   UNL     1      42.902   4.979  12.022  0.00  0.00    +0.000 N 
ATOM     12  C   UNL     1      43.897   4.528  12.861  0.00  0.00    +0.000 A 
ATOM     13  O   UNL     1      43.770   3.490  13.506  0.00  0.00    +0.000 OA
ATOM     14  C   UNL     1      45.068   5.379  12.916  0.00  0.00    +0.000 A 
ATOM     15  H   UNL     1      42.075   4.408  11.962  0.00  0.00    +0.000 HD
ENDBRANCH   2   5
BRANCH   3  16
ATOM     16  C   UNL     1      47.293   3.339  16.738  0.00  0.00    +0.000 C 
BRANCH  16  17
ATOM     17  C   UNL     1      48.762   3.369  17.048  0.00  0.00    +0.000 A 
ATOM     18  C   UNL     1      49.504   2.187  17.013  0.00  0.00    +0.000 A 
ATOM     19  C   UNL     1      50.864   2.211  17.305  0.00  0.00    +0.000 A 
ATOM     20  C   UNL     1      51.470   3.412  17.669  0.00  0.00    +0.000 A 
ATOM     21  N   UNL     1      50.771   4.577  17.709  0.00  0.00    +0.000 NA
ATOM     22  C   UNL     1      49.446   4.528  17.392  0.00  0.00    +0.000 A 
BRANCH  20  23
ATOM     23  C   UNL     1      52.968   3.425  17.953  0.00  0.00    +0.000 C 
BRANCH  23  24
ATOM     24  N   UNL     1      53.469   3.324  19.335  0.00  0.00    +0.000 NA
ATOM     25  C   UNL     1      52.816   4.150  20.357  0.00  0.00    +0.000 C 
ATOM     26  C   UNL     1      53.397   5.568  20.515  0.00  0.00    +0.000 C 
ATOM     27  O   UNL     1      54.822   5.554  20.672  0.00  0.00    +0.000 OA
ATOM     28  C   UNL     1      55.455   4.854  19.590  0.00  0.00    +0.000 C 
ATOM     29  C   UNL     1      54.927   3.420  19.474  0.00  0.00    +0.000 C 
ENDBRANCH  23  24
ENDBRANCH  20  23
ENDBRANCH  16  17
ENDBRANCH   3  16
TORSDOF 5
ENDMDL
MODEL 4
REMARK VINA RESULT:    -7.126      3.500      4.616
REMARK INTER + INTRA:          -9.422
REMARK INTER:                  -8.511
REMARK INTRA:                  -0.911
REMARK UNBOUND:                -0.212
REMARK  Name = 
REMARK  5 active torsions:
REMARK  status: ('A' for Active; 'I' for Inactive)
REMARK    1  A    between atoms: C_2  and  C_18
REMARK    2  A    between atoms: N_3  and  C_4
REMARK    3  A    between atoms: C_4  and  C_5
REMARK    4  A    between atoms: C_8  and  C_9
REMARK    5  A    between atoms: C_9  and  N_10
REMARK                            x       y       z     vdW  Elec       q    Type
REMARK                         _______ _______ _______ _____ _____    ______ ____
ROOT
ATOM      1  O   UNL     1      50.107   7.588  14.604  0.00  0.00    +0.000 OA
ATOM      2  C   UNL     1      49.212   7.400  15.425  0.00  0.00    +0.000 C 
ATOM      3  N   UNL     1      47.921   7.813  15.185  0.00  0.00    +0.000 N 
ATOM      4  H   UNL     1      47.257   7.830  15.954  0.00  0.00    +0.000 HD
ENDROOT
BRANCH   2   5
ATOM      5  C   UNL     1      49.474   6.698  16.687  0.00  0.00    +0.000 A 
ATOM      6  C   UNL     1      50.283   7.297  17.646  0.00  0.00    +0.000 A 
ATOM      7  S   UNL     1      50.484   6.368  19.059  0.00  0.00    +0.000 S 
ATOM      8  C   UNL     1      49.455   5.146  18.464  0.00  0.00    +0.000 A 
ATOM      9  N   UNL     1      49.158   4.059  19.222  0.00  0.00    +0.000 NA
ATOM     10  C   UNL     1      48.340   3.230  18.661  0.00  0.00    +0.000 A 
ATOM     11  N   UNL     1      47.804   3.386  17.411  0.00  0.00    +0.000 N 
ATOM     12  C   UNL     1      48.104   4.454  16.596  0.00  0.00    +0.000 A 
ATOM     13  O   UNL     1      47.647   4.542  15.458  0.00  0.00    +0.000 OA
ATOM     14  C   UNL     1      48.996   5.431  17.188  0.00  0.00    +0.000 A 
ATOM     15  H   UNL     1      47.185   2.691  17.026  0.00  0.00    +0.000 HD
ENDBRANCH   2   5
BRANCH   3  16
ATOM     16  C   UNL     1      47.612   8.589  14.004  0.00  0.00    +0.000 C 
BRANCH  16  17
ATOM     17  C   UNL     1      46.792   7.817  13.012  0.00  0.00    +0.000 A 
ATOM     18  C   UNL     1      47.175   6.525  12.650  0.00  0.00    +0.000 A 
ATOM     19  C   UNL     1      46.420   5.809  11.727  0.00  0.00    +0.000 A 
ATOM     20  C   UNL     1      45.304   6.402  11.139  0.00  0.00    +0.000 A 
ATOM     21  N   UNL     1      44.908   7.658  11.476  0.00  0.00    +0.000 NA
ATOM     22  C   UNL     1      45.651   8.325  12.403  0.00  0.00    +0.000 A 
BRANCH  20  23
ATOM     23  C   UNL     1      44.470   5.590  10.155  0.00  0.00    +0.000 C 
BRANCH  23  24
ATOM     24  N   UNL     1      43.370   4.734  10.634  0.00  0.00    +0.000 NA
ATOM     25  C   UNL     1      42.563   5.229  11.756  0.00  0.00    +0.000 C 
ATOM     26  C   UNL     1      43.109   4.881  13.153  0.00  0.00    +0.000 C 
ATOM     27  O   UNL     1      43.406   3.485  13.285  0.00  0.00    +0.000 OA
ATOM     28  C   UNL     1      44.304   3.047  12.255  0.00  0.00    +0.000 C 
ATOM     29  C   UNL     1      43.732   3.330  10.862  0.00  0.00    +0.000 C 
ENDBRANCH  23  24
ENDBRANCH  20  23
ENDBRANCH  16  17
ENDBRANCH   3  16
TORSDOF 5
ENDMDL
MODEL 5
REMARK VINA RESULT:    -6.825      1.752      2.646
REMARK INTER + INTRA:          -9.033
REMARK INTER:                  -8.651
REMARK INTRA:                  -0.382
REMARK UNBOUND:                -0.212
REMARK  Name = 
REMARK  5 active torsions:
REMARK  status: ('A' for Active; 'I' for Inactive)
REMARK    1  A    between atoms: C_2  and  C_18
REMARK    2  A    between atoms: N_3  and  C_4
REMARK    3  A    between atoms: C_4  and  C_5
REMARK    4  A    between atoms: C_8  and  C_9
REMARK    5  A    between atoms: C_9  and  N_10
REMARK                            x       y       z     vdW  Elec       q    Type
REMARK                         _______ _______ _______ _____ _____    ______ ____
ROOT
ATOM      1  O   UNL     1      46.753   3.573  14.443  0.00  0.00    +0.000 OA
ATOM      2  C   UNL     1      46.776   4.801  14.413  0.00  0.00    +0.000 C 
ATOM      3  N   UNL     1      45.768   5.523  13.815  0.00  0.00    +0.000 N 
ATOM      4  H   UNL     1      45.913   6.511  13.625  0.00  0.00    +0.000 HD
ENDROOT
BRANCH   2   5
ATOM      5  C   UNL     1      47.867   5.556  15.040  0.00  0.00    +0.000 A 
ATOM      6  C   UNL     1      48.204   5.295  16.364  0.00  0.00    +0.000 A 
ATOM      7  S   UNL     1      49.495   6.240  16.947  0.00  0.00    +0.000 S 
ATOM      8  C   UNL     1      49.688   7.003  15.435  0.00  0.00    +0.000 A 
ATOM      9  N   UNL     1      50.678   7.911  15.238  0.00  0.00    +0.000 NA
ATOM     10  C   UNL     1      50.730   8.385  14.036  0.00  0.00    +0.000 A 
ATOM     11  N   UNL     1      49.877   8.041  13.023  0.00  0.00    +0.000 N 
ATOM     12  C   UNL     1      48.839   7.150  13.188  0.00  0.00    +0.000 A 
ATOM     13  O   UNL     1      48.058   6.898  12.273  0.00  0.00    +0.000 OA
ATOM     14  C   UNL     1      48.753   6.566  14.511  0.00  0.00    +0.000 A 
ATOM     15  H   UNL     1      49.962   8.462  12.112  0.00  0.00    +0.000 HD
ENDBRANCH   2   5
BRANCH   3  16
ATOM     16  C   UNL     1      44.710   4.842  13.100  0.00  0.00    +0.000 C 
BRANCH  16  17
ATOM     17  C   UNL     1      45.033   4.659  11.645  0.00  0.00    +0.000 A 
ATOM     18  C   UNL     1      45.632   5.696  10.930  0.00  0.00    +0.000 A 
ATOM     19  C   UNL     1      45.927   5.531   9.581  0.00  0.00    +0.000 A 
ATOM     20  C   UNL     1      45.587   4.340   8.941  0.00  0.00    +0.000 A 
ATOM     21  N   UNL     1      45.006   3.312   9.615  0.00  0.00    +0.000 NA
ATOM     22  C   UNL     1      44.753   3.493  10.942  0.00  0.00    +0.000 A 
BRANCH  20  23
ATOM     23  C   UNL     1      45.949   4.164   7.471  0.00  0.00    +0.000 C 
BRANCH  23  24
ATOM     24  N   UNL     1      45.879   2.836   6.836  0.00  0.00    +0.000 NA
ATOM     25  C   UNL     1      46.439   1.699   7.577  0.00  0.00    +0.000 C 
ATOM     26  C   UNL     1      47.943   1.452   7.351  0.00  0.00    +0.000 C 
ATOM     27  O   UNL     1      48.278   1.398   5.959  0.00  0.00    +0.000 OA
ATOM     28  C   UNL     1      47.840   2.581   5.274  0.00  0.00    +0.000 C 
ATOM     29  C   UNL     1      46.331   2.791   5.440  0.00  0.00    +0.000 C 
ENDBRANCH  23  24
ENDBRANCH  20  23
ENDBRANCH  16  17
ENDBRANCH   3  16
TORSDOF 5
ENDMDL
MODEL 6
REMARK VINA RESULT:    -6.757      3.542      9.194
REMARK INTER + INTRA:          -8.944
REMARK INTER:                  -8.209
REMARK INTRA:                  -0.736
REMARK UNBOUND:                -0.212
REMARK  Name = 
REMARK  5 active torsions:
REMARK  status: ('A' for Active; 'I' for Inactive)
REMARK    1  A    between atoms: C_2  and  C_18
REMARK    2  A    between atoms: N_3  and  C_4
REMARK    3  A    between atoms: C_4  and  C_5
REMARK    4  A    between atoms: C_8  and  C_9
REMARK    5  A    between atoms: C_9  and  N_10
REMARK                            x       y       z     vdW  Elec       q    Type
REMARK                         _______ _______ _______ _____ _____    ______ ____
ROOT
ATOM      1  O   UNL     1      45.921   7.781  11.676  0.00  0.00    +0.000 OA
ATOM      2  C   UNL     1      46.342   6.626  11.680  0.00  0.00    +0.000 C 
ATOM      3  N   UNL     1      47.454   6.271  12.407  0.00  0.00    +0.000 N 
ATOM      4  H   UNL     1      47.895   5.372  12.230  0.00  0.00    +0.000 HD
ENDROOT
BRANCH   2   5
ATOM      5  C   UNL     1      45.657   5.565  10.931  0.00  0.00    +0.000 A 
ATOM      6  C   UNL     1      45.744   5.545   9.543  0.00  0.00    +0.000 A 
ATOM      7  S   UNL     1      44.909   4.250   8.817  0.00  0.00    +0.000 S 
ATOM      8  C   UNL     1      44.438   3.636  10.336  0.00  0.00    +0.000 A 
ATOM      9  N   UNL     1      43.723   2.484  10.427  0.00  0.00    +0.000 NA
ATOM     10  C   UNL     1      43.463   2.117  11.639  0.00  0.00    +0.000 A 
ATOM     11  N   UNL     1      43.844   2.801  12.761  0.00  0.00    +0.000 N 
ATOM     12  C   UNL     1      44.540   3.989  12.715  0.00  0.00    +0.000 A 
ATOM     13  O   UNL     1      44.825   4.607  13.738  0.00  0.00    +0.000 OA
ATOM     14  C   UNL     1      44.883   4.432  11.378  0.00  0.00    +0.000 A 
ATOM     15  H   UNL     1      43.592   2.467  13.678  0.00  0.00    +0.000 HD
ENDBRANCH   2   5
BRANCH   3  16
ATOM     16  C   UNL     1      48.229   7.282  13.094  0.00  0.00    +0.000 C 
BRANCH  16  17
ATOM     17  C   UNL     1      48.779   6.788  14.400  0.00  0.00    +0.000 A 
ATOM     18  C   UNL     1      49.957   7.336  14.910  0.00  0.00    +0.000 A 
ATOM     19  C   UNL     1      50.473   6.876  16.117  0.00  0.00    +0.000 A 
ATOM     20  C   UNL     1      49.828   5.841  16.793  0.00  0.00    +0.000 A 
ATOM     21  N   UNL     1      48.678   5.292  16.320  0.00  0.00    +0.000 NA
ATOM     22  C   UNL     1      48.182   5.781  15.149  0.00  0.00    +0.000 A 
BRANCH  20  23
ATOM     23  C   UNL     1      50.389   5.374  18.131  0.00  0.00    +0.000 C 
BRANCH  23  24
ATOM     24  N   UNL     1      50.070   6.101  19.372  0.00  0.00    +0.000 NA
ATOM     25  C   UNL     1      50.051   5.333  20.623  0.00  0.00    +0.000 C 
ATOM     26  C   UNL     1      48.700   4.672  20.960  0.00  0.00    +0.000 C 
ATOM     27  O   UNL     1      47.611   5.601  20.887  0.00  0.00    +0.000 OA
ATOM     28  C   UNL     1      47.566   6.247  19.606  0.00  0.00    +0.000 C 
ATOM     29  C   UNL     1      48.885   6.964  19.299  0.00  0.00    +0.000 C 
ENDBRANCH  23  24
ENDBRANCH  20  23
ENDBRANCH  16  17
ENDBRANCH   3  16
TORSDOF 5
ENDMDL
MODEL 7
REMARK VINA RESULT:    -6.735      4.036      8.409
REMARK INTER + INTRA:          -8.916
REMARK INTER:                  -8.281
REMARK INTRA:                  -0.635
REMARK UNBOUND:                -0.212
REMARK  Name = 
REMARK  5 active torsions:
REMARK  status: ('A' for Active; 'I' for Inactive)
REMARK    1  A    between atoms: C_2  and  C_18
REMARK    2  A    between atoms: N_3  and  C_4
REMARK    3  A    between atoms: C_4  and  C_5
REMARK    4  A    between atoms: C_8  and  C_9
REMARK    5  A    between atoms: C_9  and  N_10
REMARK                            x       y       z     vdW  Elec       q    Type
REMARK                         _______ _______ _______ _____ _____    ______ ____
ROOT
ATOM      1  O   UNL     1      47.653   7.037  11.788  0.00  0.00    +0.000 OA
ATOM      2  C   UNL     1      46.630   7.243  12.436  0.00  0.00    +0.000 C 
ATOM      3  N   UNL     1      46.607   8.149  13.472  0.00  0.00    +0.000 N 
ATOM      4  H   UNL     1      45.819   8.147  14.113  0.00  0.00    +0.000 HD
ENDROOT
BRANCH   2   5
ATOM      5  C   UNL     1      45.375   6.553  12.114  0.00  0.00    +0.000 A 
ATOM      6  C   UNL     1      44.340   7.263  11.518  0.00  0.00    +0.000 A 
ATOM      7  S   UNL     1      42.955   6.326  11.194  0.00  0.00    +0.000 S 
ATOM      8  C   UNL     1      43.705   4.918  11.796  0.00  0.00    +0.000 A 
ATOM      9  N   UNL     1      43.062   3.721  11.763  0.00  0.00    +0.000 NA
ATOM     10  C   UNL     1      43.760   2.733  12.220  0.00  0.00    +0.000 A 
ATOM     11  N   UNL     1      45.032   2.838  12.713  0.00  0.00    +0.000 N 
ATOM     12  C   UNL     1      45.708   4.035  12.796  0.00  0.00    +0.000 A 
ATOM     13  O   UNL     1      46.831   4.105  13.290  0.00  0.00    +0.000 OA
ATOM     14  C   UNL     1      44.981   5.172  12.270  0.00  0.00    +0.000 A 
ATOM     15  H   UNL     1      45.513   2.028  13.071  0.00  0.00    +0.000 HD
ENDBRANCH   2   5
BRANCH   3  16
ATOM     16  C   UNL     1      47.828   8.796  13.901  0.00  0.00    +0.000 C 
BRANCH  16  17
ATOM     17  C   UNL     1      48.495   8.063  15.028  0.00  0.00    +0.000 A 
ATOM     18  C   UNL     1      48.503   8.616  16.309  0.00  0.00    +0.000 A 
ATOM     19  C   UNL     1      49.125   7.942  17.355  0.00  0.00    +0.000 A 
ATOM     20  C   UNL     1      49.773   6.733  17.107  0.00  0.00    +0.000 A 
ATOM     21  N   UNL     1      49.779   6.170  15.870  0.00  0.00    +0.000 NA
ATOM     22  C   UNL     1      49.138   6.840  14.871  0.00  0.00    +0.000 A 
BRANCH  20  23
ATOM     23  C   UNL     1      50.420   5.992  18.271  0.00  0.00    +0.000 C 
BRANCH  23  24
ATOM     24  N   UNL     1      49.744   4.842  18.897  0.00  0.00    +0.000 NA
ATOM     25  C   UNL     1      49.860   3.540  18.228  0.00  0.00    +0.000 C 
ATOM     26  C   UNL     1      48.792   3.265  17.152  0.00  0.00    +0.000 C 
ATOM     27  O   UNL     1      47.463   3.499  17.637  0.00  0.00    +0.000 OA
ATOM     28  C   UNL     1      47.332   4.826  18.168  0.00  0.00    +0.000 C 
ATOM     29  C   UNL     1      48.349   5.079  19.286  0.00  0.00    +0.000 C 
ENDBRANCH  23  24
ENDBRANCH  20  23
ENDBRANCH  16  17
ENDBRANCH   3  16
TORSDOF 5
ENDMDL
MODEL 8
REMARK VINA RESULT:    -6.670      5.013      7.642
REMARK INTER + INTRA:          -8.832
REMARK INTER:                  -8.065
REMARK INTRA:                  -0.766
REMARK UNBOUND:                -0.212
REMARK  Name = 
REMARK  5 active torsions:
REMARK  status: ('A' for Active; 'I' for Inactive)
REMARK    1  A    between atoms: C_2  and  C_18
REMARK    2  A    between atoms: N_3  and  C_4
REMARK    3  A    between atoms: C_4  and  C_5
REMARK    4  A    between atoms: C_8  and  C_9
REMARK    5  A    between atoms: C_9  and  N_10
REMARK                            x       y       z     vdW  Elec       q    Type
REMARK                         _______ _______ _______ _____ _____    ______ ____
ROOT
ATOM      1  O   UNL     1      44.460   7.566  11.261  0.00  0.00    +0.000 OA
ATOM      2  C   UNL     1      44.994   6.605  11.812  0.00  0.00    +0.000 C 
ATOM      3  N   UNL     1      45.983   6.777  12.753  0.00  0.00    +0.000 N 
ATOM      4  H   UNL     1      46.542   5.976  13.034  0.00  0.00    +0.000 HD
ENDROOT
BRANCH   2   5
ATOM      5  C   UNL     1      44.578   5.230  11.512  0.00  0.00    +0.000 A 
ATOM      6  C   UNL     1      43.787   4.543  12.426  0.00  0.00    +0.000 A 
ATOM      7  S   UNL     1      43.375   2.965  11.934  0.00  0.00    +0.000 S 
ATOM      8  C   UNL     1      44.200   3.156  10.454  0.00  0.00    +0.000 A 
ATOM      9  N   UNL     1      44.196   2.165   9.524  0.00  0.00    +0.000 NA
ATOM     10  C   UNL     1      44.831   2.458   8.437  0.00  0.00    +0.000 A 
ATOM     11  N   UNL     1      45.474   3.643   8.202  0.00  0.00    +0.000 N 
ATOM     12  C   UNL     1      45.531   4.661   9.128  0.00  0.00    +0.000 A 
ATOM     13  O   UNL     1      46.159   5.694   8.909  0.00  0.00    +0.000 OA
ATOM     14  C   UNL     1      44.810   4.396  10.357  0.00  0.00    +0.000 A 
ATOM     15  H   UNL     1      45.966   3.799   7.337  0.00  0.00    +0.000 HD
ENDBRANCH   2   5
BRANCH   3  16
ATOM     16  C   UNL     1      46.504   8.099  13.029  0.00  0.00    +0.000 C 
BRANCH  16  17
ATOM     17  C   UNL     1      47.877   8.300  12.457  0.00  0.00    +0.000 A 
ATOM     18  C   UNL     1      48.247   9.552  11.961  0.00  0.00    +0.000 A 
ATOM     19  C   UNL     1      49.517   9.740  11.425  0.00  0.00    +0.000 A 
ATOM     20  C   UNL     1      50.401   8.664  11.351  0.00  0.00    +0.000 A 
ATOM     21  N   UNL     1      50.067   7.436  11.828  0.00  0.00    +0.000 NA
ATOM     22  C   UNL     1      48.826   7.288  12.372  0.00  0.00    +0.000 A 
BRANCH  20  23
ATOM     23  C   UNL     1      51.799   8.898  10.791  0.00  0.00    +0.000 C 
BRANCH  23  24
ATOM     24  N   UNL     1      52.672   7.758  10.458  0.00  0.00    +0.000 NA
ATOM     25  C   UNL     1      54.108   7.901  10.731  0.00  0.00    +0.000 C 
ATOM     26  C   UNL     1      54.926   8.539   9.592  0.00  0.00    +0.000 C 
ATOM     27  O   UNL     1      54.684   7.904   8.330  0.00  0.00    +0.000 OA
ATOM     28  C   UNL     1      53.283   7.892   8.017  0.00  0.00    +0.000 C 
ATOM     29  C   UNL     1      52.474   7.196   9.117  0.00  0.00    +0.000 C 
ENDBRANCH  23  24
ENDBRANCH  20  23
ENDBRANCH  16  17
ENDBRANCH   3  16
TORSDOF 5
ENDMDL
MODEL 9
REMARK VINA RESULT:    -6.656      3.031      8.852
REMARK INTER + INTRA:          -8.813
REMARK INTER:                  -8.088
REMARK INTRA:                  -0.726
REMARK UNBOUND:                -0.212
REMARK  Name = 
REMARK  5 active torsions:
REMARK  status: ('A' for Active; 'I' for Inactive)
REMARK    1  A    between atoms: C_2  and  C_18
REMARK    2  A    between atoms: N_3  and  C_4
REMARK    3  A    between atoms: C_4  and  C_5
REMARK    4  A    between atoms: C_8  and  C_9
REMARK    5  A    between atoms: C_9  and  N_10
REMARK                            x       y       z     vdW  Elec       q    Type
REMARK                         _______ _______ _______ _____ _____    ______ ____
ROOT
ATOM      1  O   UNL     1      44.959   7.471  12.097  0.00  0.00    +0.000 OA
ATOM      2  C   UNL     1      45.652   6.502  11.794  0.00  0.00    +0.000 C 
ATOM      3  N   UNL     1      47.021   6.604  11.691  0.00  0.00    +0.000 N 
ATOM      4  H   UNL     1      47.540   5.852  11.245  0.00  0.00    +0.000 HD
ENDROOT
BRANCH   2   5
ATOM      5  C   UNL     1      45.052   5.183  11.559  0.00  0.00    +0.000 A 
ATOM      6  C   UNL     1      44.337   4.568  12.580  0.00  0.00    +0.000 A 
ATOM      7  S   UNL     1      43.692   3.051  12.154  0.00  0.00    +0.000 S 
ATOM      8  C   UNL     1      44.304   3.178  10.568  0.00  0.00    +0.000 A 
ATOM      9  N   UNL     1      44.057   2.208   9.650  0.00  0.00    +0.000 NA
ATOM     10  C   UNL     1      44.552   2.449   8.480  0.00  0.00    +0.000 A 
ATOM     11  N   UNL     1      45.276   3.564   8.152  0.00  0.00    +0.000 N 
ATOM     12  C   UNL     1      45.577   4.555   9.060  0.00  0.00    +0.000 A 
ATOM     13  O   UNL     1      46.271   5.520   8.750  0.00  0.00    +0.000 OA
ATOM     14  C   UNL     1      45.021   4.348  10.382  0.00  0.00    +0.000 A 
ATOM     15  H   UNL     1      45.648   3.681   7.224  0.00  0.00    +0.000 HD
ENDBRANCH   2   5
BRANCH   3  16
ATOM     16  C   UNL     1      47.667   7.891  11.820  0.00  0.00    +0.000 C 
BRANCH  16  17
ATOM     17  C   UNL     1      48.321   8.069  13.160  0.00  0.00    +0.000 A 
ATOM     18  C   UNL     1      47.637   8.722  14.186  0.00  0.00    +0.000 A 
ATOM     19  C   UNL     1      48.243   8.892  15.426  0.00  0.00    +0.000 A 
ATOM     20  C   UNL     1      49.547   8.443  15.625  0.00  0.00    +0.000 A 
ATOM     21  N   UNL     1      50.235   7.802  14.644  0.00  0.00    +0.000 NA
ATOM     22  C   UNL     1      49.606   7.625  13.447  0.00  0.00    +0.000 A 
BRANCH  20  23
ATOM     23  C   UNL     1      50.182   8.609  17.001  0.00  0.00    +0.000 C 
BRANCH  23  24
ATOM     24  N   UNL     1      50.194   7.490  17.960  0.00  0.00    +0.000 NA
ATOM     25  C   UNL     1      51.398   6.651  18.010  0.00  0.00    +0.000 C 
ATOM     26  C   UNL     1      51.410   5.472  17.018  0.00  0.00    +0.000 C 
ATOM     27  O   UNL     1      50.211   4.690  17.093  0.00  0.00    +0.000 OA
ATOM     28  C   UNL     1      49.047   5.509  16.909  0.00  0.00    +0.000 C 
ATOM     29  C   UNL     1      48.996   6.642  17.939  0.00  0.00    +0.000 C 
ENDBRANCH  23  24
ENDBRANCH  20  23
ENDBRANCH  16  17
ENDBRANCH   3  16
TORSDOF 5
ENDMDL
