MODEL 1
REMARK VINA RESULT:    -7.653      0.000      0.000
REMARK INTER + INTRA:         -12.812
REMARK INTER:                 -11.679
REMARK INTRA:                  -1.133
REMARK UNBOUND:                -1.133
REMARK  Name = 
REMARK  10 active torsions:
REMARK  status: ('A' for Active; 'I' for Inactive)
REMARK    1  A    between atoms: C_1  and  C_2
REMARK    2  A    between atoms: C_2  and  C_3
REMARK    3  A    between atoms: C_3  and  N_4
REMARK    4  A    between atoms: C_3  and  C_20
REMARK    5  A    between atoms: N_4  and  C_5
REMARK    6  A    between atoms: C_5  and  C_6
REMARK    7  A    between atoms: C_9  and  C_10
REMARK    8  A    between atoms: C_10  and  N_11
REMARK    9  A    between atoms: N_11  and  C_12
REMARK   10  A    between atoms: C_12  and  C_13
REMARK                            x       y       z     vdW  Elec       q    Type
REMARK                         _______ _______ _______ _____ _____    ______ ____
ROOT
ATOM      1  C   UNL     1      47.751   5.668  14.291  0.00  0.00    +0.000 C 
ENDROOT
BRANCH   1   2
ATOM      2  C   UNL     1      46.758   5.304  13.227  0.00  0.00    +0.000 A 
ATOM      3  C   UNL     1      46.450   6.167  12.168  0.00  0.00    +0.000 A 
ATOM      4  C   UNL     1      45.557   5.758  11.177  0.00  0.00    +0.000 A 
ATOM      5  C   UNL     1      44.985   4.496  11.269  0.00  0.00    +0.000 A 
ATOM      6  N   UNL     1      45.261   3.639  12.289  0.00  0.00    +0.000 NA
ATOM      7  C   UNL     1      46.130   4.064  13.235  0.00  0.00    +0.000 A 
BRANCH   5   8
ATOM      8  C   UNL     1      43.937   4.042  10.265  0.00  0.00    +0.000 C 
BRANCH   8   9
ATOM      9  N   UNL     1      44.223   4.459   8.877  0.00  0.00    +0.000 NA
ATOM     10  H   UNL     1      44.984   5.142   8.938  0.00  0.00    +0.000 HD
BRANCH   9  11
ATOM     11  C   UNL     1      44.702   3.327   8.066  0.00  0.00    +0.000 C 
BRANCH  11  12
ATOM     12  C   UNL     1      46.249   3.301   7.987  0.00  0.00    +0.000 C 
ATOM     13  C   UNL     1      46.781   1.916   7.656  0.00  0.00    +0.000 C 
ATOM     14  C   UNL     1      46.685   1.858   6.144  0.00  0.00    +0.000 C 
ATOM     15  C   UNL     1      46.862   3.303   5.697  0.00  0.00    +0.000 C 
ATOM     16  N   UNL     1      46.770   4.140   6.896  0.00  0.00    +0.000 NA
ATOM     17  H   UNL     1      46.113   4.912   6.749  0.00  0.00    +0.000 HD
ENDBRANCH  11  12
ENDBRANCH   9  11
ENDBRANCH   8   9
ENDBRANCH   5   8
ENDBRANCH   1   2
BRANCH   1  18
ATOM     18  N   UNL     1      47.918   4.606  15.272  0.00  0.00    +0.000 NA
ATOM     19  H   UNL     1      48.621   3.927  14.965  0.00  0.00    +0.000 HD
BRANCH  18  20
ATOM     20  C   UNL     1      48.232   5.083  16.616  0.00  0.00    +0.000 C 
BRANCH  20  21
ATOM     21  C   UNL     1      49.677   4.811  17.005  0.00  0.00    +0.000 A 
ATOM     22  C   UNL     1      50.534   5.835  17.388  0.00  0.00    +0.000 A 
ATOM     23  S   UNL     1      52.047   5.294  17.949  0.00  0.00    +0.000 S 
ATOM     24  C   UNL     1      51.615   3.667  17.707  0.00  0.00    +0.000 A 
ATOM     25  N   UNL     1      52.446   2.657  18.089  0.00  0.00    +0.000 NA
ATOM     26  C   UNL     1      51.978   1.477  17.862  0.00  0.00    +0.000 A 
ATOM     27  N   UNL     1      50.783   1.211  17.244  0.00  0.00    +0.000 N 
ATOM     28  C   UNL     1      49.967   2.202  16.737  0.00  0.00    +0.000 A 
ATOM     29  O   UNL     1      49.020   1.949  15.998  0.00  0.00    +0.000 OA
ATOM     30  C   UNL     1      50.374   3.546  17.105  0.00  0.00    +0.000 A 
ATOM     31  H   UNL     1      50.527   0.261  17.021  0.00  0.00    +0.000 HD
ENDBRANCH  20  21
BRANCH  20  33
ATOM     32  C   UNL     1      46.987   5.325  18.854  0.00  0.00    +0.000 C 
ATOM     33  C   UNL     1      47.189   4.501  17.588  0.00  0.00    +0.000 C 
ENDBRANCH  20  33
ENDBRANCH  18  20
ENDBRANCH   1  18
TORSDOF 9
ENDMDL
MODEL 2
REMARK VINA RESULT:    -6.883      2.121      2.798
REMARK INTER + INTRA:         -11.637
REMARK INTER:                 -10.691
REMARK INTRA:                  -0.946
REMARK UNBOUND:                -1.133
REMARK  Name = 
REMARK  10 active torsions:
REMARK  status: ('A' for Active; 'I' for Inactive)
REMARK    1  A    between atoms: C_1  and  C_2
REMARK    2  A    between atoms: C_2  and  C_3
REMARK    3  A    between atoms: C_3  and  N_4
REMARK    4  A    between atoms: C_3  and  C_20
REMARK    5  A    between atoms: N_4  and  C_5
REMARK    6  A    between atoms: C_5  and  C_6
REMARK    7  A    between atoms: C_9  and  C_10
REMARK    8  A    between atoms: C_10  and  N_11
REMARK    9  A    between atoms: N_11  and  C_12
REMARK   10  A    between atoms: C_12  and  C_13
REMARK                            x       y       z     vdW  Elec       q    Type
REMARK                         _______ _______ _______ _____ _____    ______ ____
ROOT
ATOM      1  C   UNL     1      47.704   7.002  13.611  0.00  0.00    +0.000 C 
ENDROOT
BRANCH   1   2
ATOM      2  C   UNL     1      46.781   6.260  12.689  0.00  0.00    +0.000 A 
ATOM      3  C   UNL     1      46.555   6.671  11.370  0.00  0.00    +0.000 A 
ATOM      4  C   UNL     1      45.727   5.916  10.540  0.00  0.00    +0.000 A 
ATOM      5  C   UNL     1      45.136   4.766  11.048  0.00  0.00    +0.000 A 
ATOM      6  N   UNL     1      45.333   4.346  12.327  0.00  0.00    +0.000 NA
ATOM      7  C   UNL     1      46.141   5.099  13.108  0.00  0.00    +0.000 A 
BRANCH   5   8
ATOM      8  C   UNL     1      44.153   3.962  10.211  0.00  0.00    +0.000 C 
BRANCH   8   9
ATOM      9  N   UNL     1      44.150   4.330   8.781  0.00  0.00    +0.000 NA
ATOM     10  H   UNL     1      44.772   5.140   8.696  0.00  0.00    +0.000 HD
BRANCH   9  11
ATOM     11  C   UNL     1      44.705   3.249   7.949  0.00  0.00    +0.000 C 
BRANCH  11  12
ATOM     12  C   UNL     1      46.253   3.306   7.906  0.00  0.00    +0.000 C 
ATOM     13  C   UNL     1      46.867   1.945   7.620  0.00  0.00    +0.000 C 
ATOM     14  C   UNL     1      46.811   1.847   6.109  0.00  0.00    +0.000 C 
ATOM     15  C   UNL     1      46.921   3.288   5.631  0.00  0.00    +0.000 C 
ATOM     16  N   UNL     1      46.755   4.146   6.807  0.00  0.00    +0.000 NA
ATOM     17  H   UNL     1      46.061   4.878   6.627  0.00  0.00    +0.000 HD
ENDBRANCH  11  12
ENDBRANCH   9  11
ENDBRANCH   8   9
ENDBRANCH   5   8
ENDBRANCH   1   2
BRANCH   1  18
ATOM     18  N   UNL     1      47.896   6.304  14.873  0.00  0.00    +0.000 NA
ATOM     19  H   UNL     1      47.825   5.289  14.749  0.00  0.00    +0.000 HD
BRANCH  18  20
ATOM     20  C   UNL     1      49.142   6.643  15.556  0.00  0.00    +0.000 C 
BRANCH  20  21
ATOM     21  C   UNL     1      48.952   6.825  17.053  0.00  0.00    +0.000 A 
ATOM     22  C   UNL     1      48.580   8.048  17.597  0.00  0.00    +0.000 A 
ATOM     23  S   UNL     1      48.251   7.988  19.267  0.00  0.00    +0.000 S 
ATOM     24  C   UNL     1      48.589   6.323  19.328  0.00  0.00    +0.000 A 
ATOM     25  N   UNL     1      48.402   5.612  20.474  0.00  0.00    +0.000 NA
ATOM     26  C   UNL     1      48.680   4.356  20.367  0.00  0.00    +0.000 A 
ATOM     27  N   UNL     1      49.175   3.756  19.238  0.00  0.00    +0.000 N 
ATOM     28  C   UNL     1      49.490   4.460  18.094  0.00  0.00    +0.000 A 
ATOM     29  O   UNL     1      50.134   3.957  17.178  0.00  0.00    +0.000 OA
ATOM     30  C   UNL     1      49.051   5.844  18.113  0.00  0.00    +0.000 A 
ATOM     31  H   UNL     1      49.453   2.787  19.258  0.00  0.00    +0.000 HD
ENDBRANCH  20  21
BRANCH  20  33
ATOM     32  C   UNL     1      51.290   7.899  14.905  0.00  0.00    +0.000 C 
ATOM     33  C   UNL     1      49.769   7.852  14.839  0.00  0.00    +0.000 C 
ENDBRANCH  20  33
ENDBRANCH  18  20
ENDBRANCH   1  18
TORSDOF 9
ENDMDL
MODEL 3
REMARK VINA RESULT:    -6.612      1.984      2.696
REMARK INTER + INTRA:         -11.224
REMARK INTER:                 -10.418
REMARK INTRA:                  -0.806
REMARK UNBOUND:                -1.133
REMARK  Name = 
REMARK  10 active torsions:
REMARK  status: ('A' for Active; 'I' for Inactive)
REMARK    1  A    between atoms: C_1  and  C_2
REMARK    2  A    between atoms: C_2  and  C_3
REMARK    3  A    between atoms: C_3  and  N_4
REMARK    4  A    between atoms: C_3  and  C_20
REMARK    5  A    between atoms: N_4  and  C_5
REMARK    6  A    between atoms: C_5  and  C_6
REMARK    7  A    between atoms: C_9  and  C_10
REMARK    8  A    between atoms: C_10  and  N_11
REMARK    9  A    between atoms: N_11  and  C_12
REMARK   10  A    between atoms: C_12  and  C_13
REMARK                            x       y       z     vdW  Elec       q    Type
REMARK                         _______ _______ _______ _____ _____    ______ ____
ROOT
ATOM      1  C   UNL     1      47.615   5.847  14.247  0.00  0.00    +0.000 C 
ENDROOT
BRANCH   1   2
ATOM      2  C   UNL     1      46.699   5.259  13.214  0.00  0.00    +0.000 A 
ATOM      3  C   UNL     1      46.243   3.937  13.286  0.00  0.00    +0.000 A 
ATOM      4  C   UNL     1      45.352   3.457  12.327  0.00  0.00    +0.000 A 
ATOM      5  C   UNL     1      44.938   4.308  11.309  0.00  0.00    +0.000 A 
ATOM      6  N   UNL     1      45.369   5.594  11.211  0.00  0.00    +0.000 NA
ATOM      7  C   UNL     1      46.233   6.031  12.156  0.00  0.00    +0.000 A 
BRANCH   5   8
ATOM      8  C   UNL     1      44.042   3.803  10.189  0.00  0.00    +0.000 C 
BRANCH   8   9
ATOM      9  N   UNL     1      44.680   2.786   9.330  0.00  0.00    +0.000 NA
ATOM     10  H   UNL     1      43.992   2.035   9.220  0.00  0.00    +0.000 HD
BRANCH   9  11
ATOM     11  C   UNL     1      44.973   3.324   7.990  0.00  0.00    +0.000 C 
BRANCH  11  12
ATOM     12  C   UNL     1      46.499   3.408   7.735  0.00  0.00    +0.000 C 
ATOM     13  C   UNL     1      47.125   2.033   7.561  0.00  0.00    +0.000 C 
ATOM     14  C   UNL     1      46.878   1.719   6.099  0.00  0.00    +0.000 C 
ATOM     15  C   UNL     1      46.868   3.079   5.416  0.00  0.00    +0.000 C 
ATOM     16  N   UNL     1      46.820   4.093   6.472  0.00  0.00    +0.000 NA
ATOM     17  H   UNL     1      46.080   4.776   6.286  0.00  0.00    +0.000 HD
ENDBRANCH  11  12
ENDBRANCH   9  11
ENDBRANCH   8   9
ENDBRANCH   5   8
ENDBRANCH   1   2
BRANCH   1  18
ATOM     18  N   UNL     1      48.060   4.855  15.214  0.00  0.00    +0.000 NA
ATOM     19  H   UNL     1      48.912   4.384  14.895  0.00  0.00    +0.000 HD
BRANCH  18  20
ATOM     20  C   UNL     1      48.252   5.385  16.562  0.00  0.00    +0.000 C 
BRANCH  20  21
ATOM     21  C   UNL     1      49.707   5.336  17.002  0.00  0.00    +0.000 A 
ATOM     22  C   UNL     1      50.150   4.430  17.957  0.00  0.00    +0.000 A 
ATOM     23  S   UNL     1      51.839   4.426  18.171  0.00  0.00    +0.000 S 
ATOM     24  C   UNL     1      52.046   5.632  16.991  0.00  0.00    +0.000 A 
ATOM     25  N   UNL     1      53.291   6.030  16.608  0.00  0.00    +0.000 NA
ATOM     26  C   UNL     1      53.294   6.938  15.690  0.00  0.00    +0.000 A 
ATOM     27  N   UNL     1      52.172   7.519  15.159  0.00  0.00    +0.000 N 
ATOM     28  C   UNL     1      50.898   7.230  15.602  0.00  0.00    +0.000 A 
ATOM     29  O   UNL     1      49.928   7.909  15.279  0.00  0.00    +0.000 OA
ATOM     30  C   UNL     1      50.833   6.107  16.520  0.00  0.00    +0.000 A 
ATOM     31  H   UNL     1      52.257   8.286  14.509  0.00  0.00    +0.000 HD
ENDBRANCH  20  21
BRANCH  20  33
ATOM     32  C   UNL     1      47.151   3.165  17.250  0.00  0.00    +0.000 C 
ATOM     33  C   UNL     1      47.275   4.662  17.506  0.00  0.00    +0.000 C 
ENDBRANCH  20  33
ENDBRANCH  18  20
ENDBRANCH   1  18
TORSDOF 9
ENDMDL
MODEL 4
REMARK VINA RESULT:    -6.489      1.901      2.436
REMARK INTER + INTRA:         -11.037
REMARK INTER:                 -10.054
REMARK INTRA:                  -0.983
REMARK UNBOUND:                -1.133
REMARK  Name = 
REMARK  10 active torsions:
REMARK  status: ('A' for Active; 'I' for Inactive)
REMARK    1  A    between atoms: C_1  and  C_2
REMARK    2  A    between atoms: C_2  and  C_3
REMARK    3  A    between atoms: C_3  and  N_4
REMARK    4  A    between atoms: C_3  and  C_20
REMARK    5  A    between atoms: N_4  and  C_5
REMARK    6  A    between atoms: C_5  and  C_6
REMARK    7  A    between atoms: C_9  and  C_10
REMARK    8  A    between atoms: C_10  and  N_11
REMARK    9  A    between atoms: N_11  and  C_12
REMARK   10  A    between atoms: C_12  and  C_13
REMARK                            x       y       z     vdW  Elec       q    Type
REMARK                         _______ _______ _______ _____ _____    ______ ____
ROOT
ATOM      1  C   UNL     1      47.417   7.185  13.719  0.00  0.00    +0.000 C 
ENDROOT
BRANCH   1   2
ATOM      2  C   UNL     1      46.575   6.382  12.770  0.00  0.00    +0.000 A 
ATOM      3  C   UNL     1      46.474   6.700  11.411  0.00  0.00    +0.000 A 
ATOM      4  C   UNL     1      45.719   5.890  10.563  0.00  0.00    +0.000 A 
ATOM      5  C   UNL     1      45.074   4.780  11.094  0.00  0.00    +0.000 A 
ATOM      6  N   UNL     1      45.149   4.450  12.412  0.00  0.00    +0.000 NA
ATOM      7  C   UNL     1      45.890   5.255  13.209  0.00  0.00    +0.000 A 
BRANCH   5   8
ATOM      8  C   UNL     1      44.165   3.921  10.229  0.00  0.00    +0.000 C 
BRANCH   8   9
ATOM      9  N   UNL     1      44.143   4.322   8.808  0.00  0.00    +0.000 NA
ATOM     10  H   UNL     1      44.759   5.138   8.735  0.00  0.00    +0.000 HD
BRANCH   9  11
ATOM     11  C   UNL     1      44.696   3.265   7.945  0.00  0.00    +0.000 C 
BRANCH  11  12
ATOM     12  C   UNL     1      46.245   3.287   7.944  0.00  0.00    +0.000 C 
ATOM     13  C   UNL     1      46.836   1.915   7.663  0.00  0.00    +0.000 C 
ATOM     14  C   UNL     1      46.818   1.830   6.150  0.00  0.00    +0.000 C 
ATOM     15  C   UNL     1      46.972   3.272   5.687  0.00  0.00    +0.000 C 
ATOM     16  N   UNL     1      46.794   4.125   6.865  0.00  0.00    +0.000 NA
ATOM     17  H   UNL     1      46.121   4.873   6.672  0.00  0.00    +0.000 HD
ENDBRANCH  11  12
ENDBRANCH   9  11
ENDBRANCH   8   9
ENDBRANCH   5   8
ENDBRANCH   1   2
BRANCH   1  18
ATOM     18  N   UNL     1      48.679   6.528  14.024  0.00  0.00    +0.000 NA
ATOM     19  H   UNL     1      49.316   6.562  13.222  0.00  0.00    +0.000 HD
BRANCH  18  20
ATOM     20  C   UNL     1      49.343   7.043  15.218  0.00  0.00    +0.000 C 
BRANCH  20  21
ATOM     21  C   UNL     1      49.498   5.984  16.298  0.00  0.00    +0.000 A 
ATOM     22  C   UNL     1      48.413   5.249  16.759  0.00  0.00    +0.000 A 
ATOM     23  S   UNL     1      48.835   4.000  17.836  0.00  0.00    +0.000 S 
ATOM     24  C   UNL     1      50.486   4.388  17.725  0.00  0.00    +0.000 A 
ATOM     25  N   UNL     1      51.429   3.623  18.342  0.00  0.00    +0.000 NA
ATOM     26  C   UNL     1      52.640   4.026  18.153  0.00  0.00    +0.000 A 
ATOM     27  N   UNL     1      52.993   5.149  17.450  0.00  0.00    +0.000 N 
ATOM     28  C   UNL     1      52.065   6.015  16.910  0.00  0.00    +0.000 A 
ATOM     29  O   UNL     1      52.381   7.121  16.480  0.00  0.00    +0.000 OA
ATOM     30  C   UNL     1      50.700   5.524  16.961  0.00  0.00    +0.000 A 
ATOM     31  H   UNL     1      53.956   5.449  17.422  0.00  0.00    +0.000 HD
ENDBRANCH  20  21
BRANCH  20  33
ATOM     32  C   UNL     1      49.001   8.813  17.053  0.00  0.00    +0.000 C 
ATOM     33  C   UNL     1      48.600   8.313  15.670  0.00  0.00    +0.000 C 
ENDBRANCH  20  33
ENDBRANCH  18  20
ENDBRANCH   1  18
TORSDOF 9
ENDMDL
MODEL 5
REMARK VINA RESULT:    -6.473      2.752      3.894
REMARK INTER + INTRA:         -11.011
REMARK INTER:                  -9.532
REMARK INTRA:                  -1.479
REMARK UNBOUND:                -1.133
REMARK  Name = 
REMARK  10 active torsions:
REMARK  status: ('A' for Active; 'I' for Inactive)
REMARK    1  A    between atoms: C_1  and  C_2
REMARK    2  A    between atoms: C_2  and  C_3
REMARK    3  A    between atoms: C_3  and  N_4
REMARK    4  A    between atoms: C_3  and  C_20
REMARK    5  A    between atoms: N_4  and  C_5
REMARK    6  A    between atoms: C_5  and  C_6
REMARK    7  A    between atoms: C_9  and  C_10
REMARK    8  A    between atoms: C_10  and  N_11
REMARK    9  A    between atoms: N_11  and  C_12
REMARK   10  A    between atoms: C_12  and  C_13
REMARK                            x       y       z     vdW  Elec       q    Type
REMARK                         _______ _______ _______ _____ _____    ______ ____
ROOT
ATOM      1  C   UNL     1      49.685   8.172  14.007  0.00  0.00    +0.000 C 
ENDROOT
BRANCH   1   2
ATOM      2  C   UNL     1      48.382   7.920  13.307  0.00  0.00    +0.000 A 
ATOM      3  C   UNL     1      48.260   6.984  12.273  0.00  0.00    +0.000 A 
ATOM      4  C   UNL     1      47.014   6.752  11.691  0.00  0.00    +0.000 A 
ATOM      5  C   UNL     1      45.915   7.466  12.151  0.00  0.00    +0.000 A 
ATOM      6  N   UNL     1      46.005   8.385  13.149  0.00  0.00    +0.000 NA
ATOM      7  C   UNL     1      47.227   8.588  13.695  0.00  0.00    +0.000 A 
BRANCH   5   8
ATOM      8  C   UNL     1      44.556   7.315  11.485  0.00  0.00    +0.000 C 
BRANCH   8   9
ATOM      9  N   UNL     1      44.497   6.222  10.495  0.00  0.00    +0.000 NA
ATOM     10  H   UNL     1      45.340   5.659  10.643  0.00  0.00    +0.000 HD
BRANCH   9  11
ATOM     11  C   UNL     1      43.332   5.351  10.727  0.00  0.00    +0.000 C 
BRANCH  11  12
ATOM     12  C   UNL     1      43.693   3.858  10.526  0.00  0.00    +0.000 C 
ATOM     13  C   UNL     1      45.147   3.572  10.864  0.00  0.00    +0.000 C 
ATOM     14  C   UNL     1      45.126   3.384  12.368  0.00  0.00    +0.000 C 
ATOM     15  C   UNL     1      43.740   2.827  12.661  0.00  0.00    +0.000 C 
ATOM     16  N   UNL     1      42.948   2.973  11.436  0.00  0.00    +0.000 NA
ATOM     17  H   UNL     1      42.046   3.414  11.639  0.00  0.00    +0.000 HD
ENDBRANCH  11  12
ENDBRANCH   9  11
ENDBRANCH   8   9
ENDBRANCH   5   8
ENDBRANCH   1   2
BRANCH   1  18
ATOM     18  N   UNL     1      50.151   7.003  14.738  0.00  0.00    +0.000 NA
ATOM     19  H   UNL     1      51.027   6.647  14.345  0.00  0.00    +0.000 HD
BRANCH  18  20
ATOM     20  C   UNL     1      50.296   7.220  16.175  0.00  0.00    +0.000 C 
BRANCH  20  21
ATOM     21  C   UNL     1      50.256   5.921  16.965  0.00  0.00    +0.000 A 
ATOM     22  C   UNL     1      51.265   5.578  17.856  0.00  0.00    +0.000 A 
ATOM     23  S   UNL     1      50.937   4.173  18.760  0.00  0.00    +0.000 S 
ATOM     24  C   UNL     1      49.430   3.971  18.000  0.00  0.00    +0.000 A 
ATOM     25  N   UNL     1      48.574   2.986  18.392  0.00  0.00    +0.000 NA
ATOM     26  C   UNL     1      47.461   2.966  17.740  0.00  0.00    +0.000 A 
ATOM     27  N   UNL     1      47.145   3.802  16.701  0.00  0.00    +0.000 N 
ATOM     28  C   UNL     1      48.028   4.735  16.196  0.00  0.00    +0.000 A 
ATOM     29  O   UNL     1      47.821   5.318  15.136  0.00  0.00    +0.000 OA
ATOM     30  C   UNL     1      49.230   4.901  16.993  0.00  0.00    +0.000 A 
ATOM     31  H   UNL     1      46.290   3.667  16.181  0.00  0.00    +0.000 HD
ENDBRANCH  20  21
BRANCH  20  33
ATOM     32  C   UNL     1      49.670   9.101  17.814  0.00  0.00    +0.000 C 
ATOM     33  C   UNL     1      49.253   8.265  16.611  0.00  0.00    +0.000 C 
ENDBRANCH  20  33
ENDBRANCH  18  20
ENDBRANCH   1  18
TORSDOF 9
ENDMDL
MODEL 6
REMARK VINA RESULT:    -6.341      2.402      3.266
REMARK INTER + INTRA:         -10.810
REMARK INTER:                 -10.291
REMARK INTRA:                  -0.520
REMARK UNBOUND:                -1.133
REMARK  Name = 
REMARK  10 active torsions:
REMARK  status: ('A' for Active; 'I' for Inactive)
REMARK    1  A    between atoms: C_1  and  C_2
REMARK    2  A    between atoms: C_2  and  C_3
REMARK    3  A    between atoms: C_3  and  N_4
REMARK    4  A    between atoms: C_3  and  C_20
REMARK    5  A    between atoms: N_4  and  C_5
REMARK    6  A    between atoms: C_5  and  C_6
REMARK    7  A    between atoms: C_9  and  C_10
REMARK    8  A    between atoms: C_10  and  N_11
REMARK    9  A    between atoms: N_11  and  C_12
REMARK   10  A    between atoms: C_12  and  C_13
REMARK                            x       y       z     vdW  Elec       q    Type
REMARK                         _______ _______ _______ _____ _____    ______ ____
ROOT
ATOM      1  C   UNL     1      49.307   6.547  15.477  0.00  0.00    +0.000 C 
ENDROOT
BRANCH   1   2
ATOM      2  C   UNL     1      48.287   6.892  14.431  0.00  0.00    +0.000 A 
ATOM      3  C   UNL     1      47.882   5.975  13.454  0.00  0.00    +0.000 A 
ATOM      4  C   UNL     1      46.892   6.330  12.537  0.00  0.00    +0.000 A 
ATOM      5  C   UNL     1      46.331   7.599  12.613  0.00  0.00    +0.000 A 
ATOM      6  N   UNL     1      46.710   8.512  13.548  0.00  0.00    +0.000 NA
ATOM      7  C   UNL     1      47.672   8.138  14.423  0.00  0.00    +0.000 A 
BRANCH   5   8
ATOM      8  C   UNL     1      45.318   8.064  11.579  0.00  0.00    +0.000 C 
BRANCH   8   9
ATOM      9  N   UNL     1      44.001   7.405  11.699  0.00  0.00    +0.000 NA
ATOM     10  H   UNL     1      43.543   7.520  10.790  0.00  0.00    +0.000 HD
BRANCH   9  11
ATOM     11  C   UNL     1      44.146   5.961  11.948  0.00  0.00    +0.000 C 
BRANCH  11  12
ATOM     12  C   UNL     1      43.388   5.125  10.887  0.00  0.00    +0.000 C 
ATOM     13  C   UNL     1      44.336   4.392   9.952  0.00  0.00    +0.000 C 
ATOM     14  C   UNL     1      44.683   3.134  10.723  0.00  0.00    +0.000 C 
ATOM     15  C   UNL     1      43.448   2.855  11.568  0.00  0.00    +0.000 C 
ATOM     16  N   UNL     1      42.593   4.042  11.488  0.00  0.00    +0.000 NA
ATOM     17  H   UNL     1      42.304   4.343  12.423  0.00  0.00    +0.000 HD
ENDBRANCH  11  12
ENDBRANCH   9  11
ENDBRANCH   8   9
ENDBRANCH   5   8
ENDBRANCH   1   2
BRANCH   1  18
ATOM     18  N   UNL     1      49.031   5.268  16.112  0.00  0.00    +0.000 NA
ATOM     19  H   UNL     1      49.489   4.500  15.612  0.00  0.00    +0.000 HD
BRANCH  18  20
ATOM     20  C   UNL     1      49.379   5.222  17.531  0.00  0.00    +0.000 C 
BRANCH  20  21
ATOM     21  C   UNL     1      50.762   4.637  17.770  0.00  0.00    +0.000 A 
ATOM     22  C   UNL     1      51.794   5.398  18.303  0.00  0.00    +0.000 A 
ATOM     23  S   UNL     1      53.201   4.505  18.651  0.00  0.00    +0.000 S 
ATOM     24  C   UNL     1      52.484   3.062  18.108  0.00  0.00    +0.000 A 
ATOM     25  N   UNL     1      53.132   1.870  18.226  0.00  0.00    +0.000 NA
ATOM     26  C   UNL     1      52.458   0.859  17.791  0.00  0.00    +0.000 A 
ATOM     27  N   UNL     1      51.222   0.934  17.203  0.00  0.00    +0.000 N 
ATOM     28  C   UNL     1      50.582   2.132  16.958  0.00  0.00    +0.000 A 
ATOM     29  O   UNL     1      49.589   2.204  16.240  0.00  0.00    +0.000 OA
ATOM     30  C   UNL     1      51.227   3.281  17.568  0.00  0.00    +0.000 A 
ATOM     31  H   UNL     1      50.797   0.110  16.806  0.00  0.00    +0.000 HD
ENDBRANCH  20  21
BRANCH  20  33
ATOM     32  C   UNL     1      47.097   4.046  17.388  0.00  0.00    +0.000 C 
ATOM     33  C   UNL     1      48.243   4.505  18.281  0.00  0.00    +0.000 C 
ENDBRANCH  20  33
ENDBRANCH  18  20
ENDBRANCH   1  18
TORSDOF 9
ENDMDL
MODEL 7
REMARK VINA RESULT:    -6.227      1.591      2.094
REMARK INTER + INTRA:         -10.636
REMARK INTER:                  -9.827
REMARK INTRA:                  -0.809
REMARK UNBOUND:                -1.133
REMARK  Name = 
REMARK  10 active torsions:
REMARK  status: ('A' for Active; 'I' for Inactive)
REMARK    1  A    between atoms: C_1  and  C_2
REMARK    2  A    between atoms: C_2  and  C_3
REMARK    3  A    between atoms: C_3  and  N_4
REMARK    4  A    between atoms: C_3  and  C_20
REMARK    5  A    between atoms: N_4  and  C_5
REMARK    6  A    between atoms: C_5  and  C_6
REMARK    7  A    between atoms: C_9  and  C_10
REMARK    8  A    between atoms: C_10  and  N_11
REMARK    9  A    between atoms: N_11  and  C_12
REMARK   10  A    between atoms: C_12  and  C_13
REMARK                            x       y       z     vdW  Elec       q    Type
REMARK                         _______ _______ _______ _____ _____    ______ ____
ROOT
ATOM      1  C   UNL     1      47.817   4.244  15.551  0.00  0.00    +0.000 C 
ENDROOT
BRANCH   1   2
ATOM      2  C   UNL     1      47.103   4.723  14.320  0.00  0.00    +0.000 A 
ATOM      3  C   UNL     1      46.065   3.994  13.729  0.00  0.00    +0.000 A 
ATOM      4  C   UNL     1      45.401   4.510  12.616  0.00  0.00    +0.000 A 
ATOM      5  C   UNL     1      45.793   5.743  12.113  0.00  0.00    +0.000 A 
ATOM      6  N   UNL     1      46.803   6.471  12.663  0.00  0.00    +0.000 NA
ATOM      7  C   UNL     1      47.427   5.945  13.742  0.00  0.00    +0.000 A 
BRANCH   5   8
ATOM      8  C   UNL     1      45.163   6.304  10.847  0.00  0.00    +0.000 C 
BRANCH   8   9
ATOM      9  N   UNL     1      44.576   5.272   9.969  0.00  0.00    +0.000 NA
ATOM     10  H   UNL     1      43.829   5.738   9.445  0.00  0.00    +0.000 HD
BRANCH   9  11
ATOM     11  C   UNL     1      45.562   4.774   8.995  0.00  0.00    +0.000 C 
BRANCH  11  12
ATOM     12  C   UNL     1      44.919   3.778   7.997  0.00  0.00    +0.000 C 
ATOM     13  C   UNL     1      45.930   3.234   7.001  0.00  0.00    +0.000 C 
ATOM     14  C   UNL     1      46.581   2.090   7.752  0.00  0.00    +0.000 C 
ATOM     15  C   UNL     1      45.492   1.583   8.688  0.00  0.00    +0.000 C 
ATOM     16  N   UNL     1      44.408   2.568   8.662  0.00  0.00    +0.000 NA
ATOM     17  H   UNL     1      44.129   2.825   9.614  0.00  0.00    +0.000 HD
ENDBRANCH  11  12
ENDBRANCH   9  11
ENDBRANCH   8   9
ENDBRANCH   5   8
ENDBRANCH   1   2
BRANCH   1  18
ATOM     18  N   UNL     1      47.154   4.674  16.772  0.00  0.00    +0.000 NA
ATOM     19  H   UNL     1      46.972   3.880  17.393  0.00  0.00    +0.000 HD
BRANCH  18  20
ATOM     20  C   UNL     1      47.865   5.726  17.495  0.00  0.00    +0.000 C 
BRANCH  20  21
ATOM     21  C   UNL     1      49.346   5.764  17.154  0.00  0.00    +0.000 A 
ATOM     22  C   UNL     1      49.918   6.850  16.504  0.00  0.00    +0.000 A 
ATOM     23  S   UNL     1      51.614   6.763  16.378  0.00  0.00    +0.000 S 
ATOM     24  C   UNL     1      51.652   5.273  17.195  0.00  0.00    +0.000 A 
ATOM     25  N   UNL     1      52.835   4.679  17.514  0.00  0.00    +0.000 NA
ATOM     26  C   UNL     1      52.710   3.563  18.150  0.00  0.00    +0.000 A 
ATOM     27  N   UNL     1      51.516   2.961  18.450  0.00  0.00    +0.000 N 
ATOM     28  C   UNL     1      50.299   3.468  18.042  0.00  0.00    +0.000 A 
ATOM     29  O   UNL     1      49.263   2.815  18.121  0.00  0.00    +0.000 OA
ATOM     30  C   UNL     1      50.379   4.797  17.462  0.00  0.00    +0.000 A 
ATOM     31  H   UNL     1      51.501   2.044  18.870  0.00  0.00    +0.000 HD
ENDBRANCH  20  21
BRANCH  20  33
ATOM     32  C   UNL     1      47.510   6.885  19.763  0.00  0.00    +0.000 C 
ATOM     33  C   UNL     1      47.557   5.570  18.995  0.00  0.00    +0.000 C 
ENDBRANCH  20  33
ENDBRANCH  18  20
ENDBRANCH   1  18
TORSDOF 9
ENDMDL
MODEL 8
REMARK VINA RESULT:    -6.115      2.842      3.960
REMARK INTER + INTRA:         -10.465
REMARK INTER:                  -9.289
REMARK INTRA:                  -1.176
REMARK UNBOUND:                -1.133
REMARK  Name = 
REMARK  10 active torsions:
REMARK  status: ('A' for Active; 'I' for Inactive)
REMARK    1  A    between atoms: C_1  and  C_2
REMARK    2  A    between atoms: C_2  and  C_3
REMARK    3  A    between atoms: C_3  and  N_4
REMARK    4  A    between atoms: C_3  and  C_20
REMARK    5  A    between atoms: N_4  and  C_5
REMARK    6  A    between atoms: C_5  and  C_6
REMARK    7  A    between atoms: C_9  and  C_10
REMARK    8  A    between atoms: C_10  and  N_11
REMARK    9  A    between atoms: N_11  and  C_12
REMARK   10  A    between atoms: C_12  and  C_13
REMARK                            x       y       z     vdW  Elec       q    Type
REMARK                         _______ _______ _______ _____ _____    ______ ____
ROOT
ATOM      1  C   UNL     1      48.259   6.832  13.641  0.00  0.00    +0.000 C 
ENDROOT
BRANCH   1   2
ATOM      2  C   UNL     1      47.011   6.029  13.415  0.00  0.00    +0.000 A 
ATOM      3  C   UNL     1      45.824   6.608  12.952  0.00  0.00    +0.000 A 
ATOM      4  C   UNL     1      44.709   5.807  12.711  0.00  0.00    +0.000 A 
ATOM      5  C   UNL     1      44.802   4.440  12.942  0.00  0.00    +0.000 A 
ATOM      6  N   UNL     1      45.940   3.850  13.397  0.00  0.00    +0.000 NA
ATOM      7  C   UNL     1      47.005   4.654  13.622  0.00  0.00    +0.000 A 
BRANCH   5   8
ATOM      8  C   UNL     1      43.586   3.540  12.782  0.00  0.00    +0.000 C 
BRANCH   8   9
ATOM      9  N   UNL     1      43.079   3.466  11.398  0.00  0.00    +0.000 NA
ATOM     10  H   UNL     1      42.699   4.393  11.185  0.00  0.00    +0.000 HD
BRANCH   9  11
ATOM     11  C   UNL     1      44.168   3.199  10.442  0.00  0.00    +0.000 C 
BRANCH  11  12
ATOM     12  C   UNL     1      44.170   4.229   9.285  0.00  0.00    +0.000 C 
ATOM     13  C   UNL     1      45.472   5.010   9.219  0.00  0.00    +0.000 C 
ATOM     14  C   UNL     1      46.390   4.096   8.431  0.00  0.00    +0.000 C 
ATOM     15  C   UNL     1      45.455   3.326   7.508  0.00  0.00    +0.000 C 
ATOM     16  N   UNL     1      44.087   3.588   7.962  0.00  0.00    +0.000 NA
ATOM     17  H   UNL     1      43.566   2.713   8.067  0.00  0.00    +0.000 HD
ENDBRANCH  11  12
ENDBRANCH   9  11
ENDBRANCH   8   9
ENDBRANCH   5   8
ENDBRANCH   1   2
BRANCH   1  18
ATOM     18  N   UNL     1      48.364   7.309  15.012  0.00  0.00    +0.000 NA
ATOM     19  H   UNL     1      47.471   7.213  15.505  0.00  0.00    +0.000 HD
BRANCH  18  20
ATOM     20  C   UNL     1      49.435   6.678  15.779  0.00  0.00    +0.000 C 
BRANCH  20  21
ATOM     21  C   UNL     1      48.913   5.932  16.997  0.00  0.00    +0.000 A 
ATOM     22  C   UNL     1      49.003   4.550  17.100  0.00  0.00    +0.000 A 
ATOM     23  S   UNL     1      48.521   3.938  18.614  0.00  0.00    +0.000 S 
ATOM     24  C   UNL     1      48.178   5.499  19.195  0.00  0.00    +0.000 A 
ATOM     25  N   UNL     1      47.808   5.698  20.491  0.00  0.00    +0.000 NA
ATOM     26  C   UNL     1      47.600   6.934  20.795  0.00  0.00    +0.000 A 
ATOM     27  N   UNL     1      47.677   7.982  19.914  0.00  0.00    +0.000 N 
ATOM     28  C   UNL     1      47.933   7.812  18.569  0.00  0.00    +0.000 A 
ATOM     29  O   UNL     1      47.781   8.721  17.758  0.00  0.00    +0.000 OA
ATOM     30  C   UNL     1      48.326   6.461  18.210  0.00  0.00    +0.000 A 
ATOM     31  H   UNL     1      47.412   8.911  20.206  0.00  0.00    +0.000 HD
ENDBRANCH  20  21
BRANCH  20  33
ATOM     32  C   UNL     1      50.889   8.607  14.895  0.00  0.00    +0.000 C 
ATOM     33  C   UNL     1      50.496   7.748  16.092  0.00  0.00    +0.000 C 
ENDBRANCH  20  33
ENDBRANCH  18  20
ENDBRANCH   1  18
TORSDOF 9
ENDMDL
MODEL 9
REMARK VINA RESULT:    -6.080      3.128      4.365
REMARK INTER + INTRA:         -10.412
REMARK INTER:                  -9.128
REMARK INTRA:                  -1.283
REMARK UNBOUND:                -1.133
REMARK  Name = 
REMARK  10 active torsions:
REMARK  status: ('A' for Active; 'I' for Inactive)
REMARK    1  A    between atoms: C_1  and  C_2
REMARK    2  A    between atoms: C_2  and  C_3
REMARK    3  A    between atoms: C_3  and  N_4
REMARK    4  A    between atoms: C_3  and  C_20
REMARK    5  A    between atoms: N_4  and  C_5
REMARK    6  A    between atoms: C_5  and  C_6
REMARK    7  A    between atoms: C_9  and  C_10
REMARK    8  A    between atoms: C_10  and  N_11
REMARK    9  A    between atoms: N_11  and  C_12
REMARK   10  A    between atoms: C_12  and  C_13
REMARK                            x       y       z     vdW  Elec       q    Type
REMARK                         _______ _______ _______ _____ _____    ______ ____
ROOT
ATOM      1  C   UNL     1      49.566   8.173  17.177  0.00  0.00    +0.000 C 
ENDROOT
BRANCH   1   2
ATOM      2  C   UNL     1      48.928   7.936  15.839  0.00  0.00    +0.000 A 
ATOM      3  C   UNL     1      48.173   8.918  15.188  0.00  0.00    +0.000 A 
ATOM      4  C   UNL     1      47.645   8.662  13.923  0.00  0.00    +0.000 A 
ATOM      5  C   UNL     1      47.878   7.425  13.336  0.00  0.00    +0.000 A 
ATOM      6  N   UNL     1      48.603   6.449  13.948  0.00  0.00    +0.000 NA
ATOM      7  C   UNL     1      49.102   6.727  15.175  0.00  0.00    +0.000 A 
BRANCH   5   8
ATOM      8  C   UNL     1      47.246   7.066  12.000  0.00  0.00    +0.000 C 
BRANCH   8   9
ATOM      9  N   UNL     1      45.897   6.477  12.120  0.00  0.00    +0.000 NA
ATOM     10  H   UNL     1      45.374   6.798  11.299  0.00  0.00    +0.000 HD
BRANCH   9  11
ATOM     11  C   UNL     1      45.948   5.006  12.070  0.00  0.00    +0.000 C 
BRANCH  11  12
ATOM     12  C   UNL     1      44.840   4.372  12.947  0.00  0.00    +0.000 C 
ATOM     13  C   UNL     1      43.506   5.083  12.785  0.00  0.00    +0.000 C 
ATOM     14  C   UNL     1      42.917   4.443  11.544  0.00  0.00    +0.000 C 
ATOM     15  C   UNL     1      43.480   3.029  11.543  0.00  0.00    +0.000 C 
ATOM     16  N   UNL     1      44.539   2.985  12.556  0.00  0.00    +0.000 NA
ATOM     17  H   UNL     1      45.393   2.573  12.169  0.00  0.00    +0.000 HD
ENDBRANCH  11  12
ENDBRANCH   9  11
ENDBRANCH   8   9
ENDBRANCH   5   8
ENDBRANCH   1   2
BRANCH   1  18
ATOM     18  N   UNL     1      48.769   7.634  18.269  0.00  0.00    +0.000 NA
ATOM     19  H   UNL     1      47.829   7.380  17.950  0.00  0.00    +0.000 HD
BRANCH  18  20
ATOM     20  C   UNL     1      49.390   6.504  18.955  0.00  0.00    +0.000 C 
BRANCH  20  21
ATOM     21  C   UNL     1      48.981   5.167  18.357  0.00  0.00    +0.000 A 
ATOM     22  C   UNL     1      47.685   4.930  17.918  0.00  0.00    +0.000 A 
ATOM     23  S   UNL     1      47.488   3.437  17.124  0.00  0.00    +0.000 S 
ATOM     24  C   UNL     1      49.131   3.050  17.330  0.00  0.00    +0.000 A 
ATOM     25  N   UNL     1      49.658   1.920  16.781  0.00  0.00    +0.000 NA
ATOM     26  C   UNL     1      50.920   1.767  17.003  0.00  0.00    +0.000 A 
ATOM     27  N   UNL     1      51.691   2.608  17.764  0.00  0.00    +0.000 N 
ATOM     28  C   UNL     1      51.172   3.697  18.434  0.00  0.00    +0.000 A 
ATOM     29  O   UNL     1      51.818   4.307  19.281  0.00  0.00    +0.000 OA
ATOM     30  C   UNL     1      49.794   3.999  18.090  0.00  0.00    +0.000 A 
ATOM     31  H   UNL     1      52.651   2.373  17.966  0.00  0.00    +0.000 HD
ENDBRANCH  20  21
BRANCH  20  33
ATOM     32  C   UNL     1      47.835   7.415  20.790  0.00  0.00    +0.000 C 
ATOM     33  C   UNL     1      49.107   6.643  20.462  0.00  0.00    +0.000 C 
ENDBRANCH  20  33
ENDBRANCH  18  20
ENDBRANCH   1  18
TORSDOF 9
ENDMDL
