MODEL 1
REMARK VINA RESULT:    -7.717      0.000      0.000
REMARK INTER + INTRA:         -13.085
REMARK INTER:                 -12.003
REMARK INTRA:                  -1.082
REMARK UNBOUND:                -1.082
REMARK  Name = 
REMARK  11 active torsions:
REMARK  status: ('A' for Active; 'I' for Inactive)
REMARK    1  A    between atoms: C_1  and  C_2
REMARK    2  A    between atoms: C_2  and  C_3
REMARK    3  A    between atoms: C_3  and  N_4
REMARK    4  A    between atoms: C_3  and  C_20
REMARK    5  A    between atoms: N_4  and  C_5
REMARK    6  A    between atoms: C_5  and  C_6
REMARK    7  A    between atoms: C_9  and  C_10
REMARK    8  A    between atoms: C_10  and  O_11
REMARK    9  A    between atoms: C_10  and  C_12
REMARK   10  A    between atoms: C_12  and  N_13
REMARK   11  A    between atoms: C_20  and  C_22
REMARK                            x       y       z     vdW  Elec       q    Type
REMARK                         _______ _______ _______ _____ _____    ______ ____
ROOT
ATOM      1  N   UNL     1      48.612   5.168  15.838  0.00  0.00    +0.000 NA
ATOM      2  H   UNL     1      48.023   4.424  15.470  0.00  0.00    +0.000 HD
ENDROOT
BRANCH   1   3
ATOM      3  C   UNL     1      48.268   5.392  17.255  0.00  0.00    +0.000 C 
BRANCH   3   5
ATOM      4  C   UNL     1      47.707   7.306  18.890  0.00  0.00    +0.000 C 
ATOM      5  C   UNL     1      48.594   6.820  17.747  0.00  0.00    +0.000 C 
ENDBRANCH   3   5
BRANCH   3   6
ATOM      6  C   UNL     1      48.883   4.306  18.182  0.00  0.00    +0.000 C 
ATOM      7  O   UNL     1      48.150   3.595  18.873  0.00  0.00    +0.000 OA
BRANCH   6   8
ATOM      8  C   UNL     1      50.349   4.150  18.265  0.00  0.00    +0.000 A 
ATOM      9  C   UNL     1      51.199   5.061  18.866  0.00  0.00    +0.000 A 
ATOM     10  S   UNL     1      52.812   4.509  18.994  0.00  0.00    +0.000 S 
ATOM     11  C   UNL     1      52.432   3.047  18.215  0.00  0.00    +0.000 A 
ATOM     12  N   UNL     1      53.371   2.082  18.036  0.00  0.00    +0.000 NA
ATOM     13  C   UNL     1      52.935   1.022  17.440  0.00  0.00    +0.000 A 
ATOM     14  N   UNL     1      51.650   0.854  16.977  0.00  0.00    +0.000 N 
ATOM     15  C   UNL     1      50.706   1.859  17.021  0.00  0.00    +0.000 A 
ATOM     16  O   UNL     1      49.678   1.787  16.360  0.00  0.00    +0.000 OA
ATOM     17  C   UNL     1      51.110   3.008  17.810  0.00  0.00    +0.000 A 
ATOM     18  H   UNL     1      51.402   0.045  16.424  0.00  0.00    +0.000 HD
ENDBRANCH   6   8
ENDBRANCH   3   6
ENDBRANCH   1   3
BRANCH   1  19
ATOM     19  C   UNL     1      48.491   6.341  14.969  0.00  0.00    +0.000 C 
BRANCH  19  20
ATOM     20  C   UNL     1      47.521   6.038  13.847  0.00  0.00    +0.000 A 
ATOM     21  C   UNL     1      46.748   4.866  13.869  0.00  0.00    +0.000 A 
ATOM     22  C   UNL     1      45.916   4.539  12.799  0.00  0.00    +0.000 A 
ATOM     23  C   UNL     1      45.816   5.389  11.690  0.00  0.00    +0.000 A 
ATOM     24  C   UNL     1      46.537   6.594  11.701  0.00  0.00    +0.000 A 
ATOM     25  C   UNL     1      47.387   6.911  12.763  0.00  0.00    +0.000 A 
BRANCH  23  26
ATOM     26  C   UNL     1      44.943   4.993  10.516  0.00  0.00    +0.000 C 
BRANCH  26  27
ATOM     27  O   UNL     1      43.801   5.849  10.507  0.00  0.00    +0.000 OA
ATOM     28  H   UNL     1      43.483   5.892   9.592  0.00  0.00    +0.000 HD
ENDBRANCH  26  27
BRANCH  26  29
ATOM     29  C   UNL     1      45.730   5.033   9.169  0.00  0.00    +0.000 C 
BRANCH  29  30
ATOM     30  N   UNL     1      45.225   4.139   8.107  0.00  0.00    +0.000 NA
ATOM     31  C   UNL     1      44.584   2.921   8.619  0.00  0.00    +0.000 C 
ATOM     32  C   UNL     1      45.691   1.891   8.722  0.00  0.00    +0.000 C 
ATOM     33  C   UNL     1      46.580   2.210   7.539  0.00  0.00    +0.000 C 
ATOM     34  C   UNL     1      46.322   3.681   7.233  0.00  0.00    +0.000 C 
ENDBRANCH  29  30
ENDBRANCH  26  29
ENDBRANCH  23  26
ENDBRANCH  19  20
ENDBRANCH   1  19
TORSDOF 10
ENDMDL
MODEL 2
REMARK VINA RESULT:    -7.248      2.928      4.044
REMARK INTER + INTRA:         -12.356
REMARK INTER:                 -10.724
REMARK INTRA:                  -1.633
REMARK UNBOUND:                -1.082
REMARK  Name = 
REMARK  11 active torsions:
REMARK  status: ('A' for Active; 'I' for Inactive)
REMARK    1  A    between atoms: C_1  and  C_2
REMARK    2  A    between atoms: C_2  and  C_3
REMARK    3  A    between atoms: C_3  and  N_4
REMARK    4  A    between atoms: C_3  and  C_20
REMARK    5  A    between atoms: N_4  and  C_5
REMARK    6  A    between atoms: C_5  and  C_6
REMARK    7  A    between atoms: C_9  and  C_10
REMARK    8  A    between atoms: C_10  and  O_11
REMARK    9  A    between atoms: C_10  and  C_12
REMARK   10  A    between atoms: C_12  and  N_13
REMARK   11  A    between atoms: C_20  and  C_22
REMARK                            x       y       z     vdW  Elec       q    Type
REMARK                         _______ _______ _______ _____ _____    ______ ____
ROOT
ATOM      1  N   UNL     1      46.720   8.517  14.119  0.00  0.00    +0.000 NA
ATOM      2  H   UNL     1      46.389   9.186  14.810  0.00  0.00    +0.000 HD
ENDROOT
BRANCH   1   3
ATOM      3  C   UNL     1      48.177   8.681  13.957  0.00  0.00    +0.000 C 
BRANCH   3   5
ATOM      4  C   UNL     1      48.825  10.954  12.923  0.00  0.00    +0.000 C 
ATOM      5  C   UNL     1      48.569   9.468  12.685  0.00  0.00    +0.000 C 
ENDBRANCH   3   5
BRANCH   3   6
ATOM      6  C   UNL     1      48.931   7.325  14.052  0.00  0.00    +0.000 C 
ATOM      7  O   UNL     1      49.338   6.768  13.030  0.00  0.00    +0.000 OA
BRANCH   6   8
ATOM      8  C   UNL     1      49.128   6.681  15.366  0.00  0.00    +0.000 A 
ATOM      9  C   UNL     1      49.994   7.142  16.340  0.00  0.00    +0.000 A 
ATOM     10  S   UNL     1      49.851   6.315  17.830  0.00  0.00    +0.000 S 
ATOM     11  C   UNL     1      48.650   5.287  17.207  0.00  0.00    +0.000 A 
ATOM     12  N   UNL     1      48.052   4.350  17.989  0.00  0.00    +0.000 NA
ATOM     13  C   UNL     1      47.151   3.651  17.382  0.00  0.00    +0.000 A 
ATOM     14  N   UNL     1      46.817   3.782  16.054  0.00  0.00    +0.000 N 
ATOM     15  C   UNL     1      47.491   4.627  15.197  0.00  0.00    +0.000 A 
ATOM     16  O   UNL     1      47.369   4.522  13.983  0.00  0.00    +0.000 OA
ATOM     17  C   UNL     1      48.407   5.531  15.867  0.00  0.00    +0.000 A 
ATOM     18  H   UNL     1      46.179   3.131  15.615  0.00  0.00    +0.000 HD
ENDBRANCH   6   8
ENDBRANCH   3   6
ENDBRANCH   1   3
BRANCH   1  19
ATOM     19  C   UNL     1      45.930   8.670  12.895  0.00  0.00    +0.000 C 
BRANCH  19  20
ATOM     20  C   UNL     1      45.626   7.305  12.318  0.00  0.00    +0.000 A 
ATOM     21  C   UNL     1      46.274   6.861  11.155  0.00  0.00    +0.000 A 
ATOM     22  C   UNL     1      45.937   5.641  10.569  0.00  0.00    +0.000 A 
ATOM     23  C   UNL     1      44.959   4.821  11.148  0.00  0.00    +0.000 A 
ATOM     24  C   UNL     1      44.360   5.236  12.348  0.00  0.00    +0.000 A 
ATOM     25  C   UNL     1      44.683   6.467  12.922  0.00  0.00    +0.000 A 
BRANCH  23  26
ATOM     26  C   UNL     1      44.572   3.522  10.471  0.00  0.00    +0.000 C 
BRANCH  26  27
ATOM     27  O   UNL     1      43.422   3.772   9.661  0.00  0.00    +0.000 OA
ATOM     28  H   UNL     1      43.729   4.234   8.865  0.00  0.00    +0.000 HD
ENDBRANCH  26  27
BRANCH  26  29
ATOM     29  C   UNL     1      45.757   2.917   9.654  0.00  0.00    +0.000 C 
BRANCH  29  30
ATOM     30  N   UNL     1      45.396   2.311   8.357  0.00  0.00    +0.000 NA
ATOM     31  C   UNL     1      46.217   1.146   8.002  0.00  0.00    +0.000 C 
ATOM     32  C   UNL     1      47.392   1.700   7.222  0.00  0.00    +0.000 C 
ATOM     33  C   UNL     1      46.789   2.854   6.448  0.00  0.00    +0.000 C 
ATOM     34  C   UNL     1      45.565   3.276   7.254  0.00  0.00    +0.000 C 
ENDBRANCH  29  30
ENDBRANCH  26  29
ENDBRANCH  23  26
ENDBRANCH  19  20
ENDBRANCH   1  19
TORSDOF 10
ENDMDL
MODEL 3
REMARK VINA RESULT:    -6.142      3.940      5.131
REMARK INTER + INTRA:         -10.635
REMARK INTER:                  -9.032
REMARK INTRA:                  -1.603
REMARK UNBOUND:                -1.082
REMARK  Name = 
REMARK  11 active torsions:
REMARK  status: ('A' for Active; 'I' for Inactive)
REMARK    1  A    between atoms: C_1  and  C_2
REMARK    2  A    between atoms: C_2  and  C_3
REMARK    3  A    between atoms: C_3  and  N_4
REMARK    4  A    between atoms: C_3  and  C_20
REMARK    5  A    between atoms: N_4  and  C_5
REMARK    6  A    between atoms: C_5  and  C_6
REMARK    7  A    between atoms: C_9  and  C_10
REMARK    8  A    between atoms: C_10  and  O_11
REMARK    9  A    between atoms: C_10  and  C_12
REMARK   10  A    between atoms: C_12  and  N_13
REMARK   11  A    between atoms: C_20  and  C_22
REMARK                            x       y       z     vdW  Elec       q    Type
REMARK                         _______ _______ _______ _____ _____    ______ ____
ROOT
ATOM      1  N   UNL     1      46.143   8.783  12.000  0.00  0.00    +0.000 NA
ATOM      2  H   UNL     1      46.342   8.282  11.137  0.00  0.00    +0.000 HD
ENDROOT
BRANCH   1   3
ATOM      3  C   UNL     1      47.414   9.261  12.578  0.00  0.00    +0.000 C 
BRANCH   3   5
ATOM      4  C   UNL     1      48.740  11.456  12.854  0.00  0.00    +0.000 C 
ATOM      5  C   UNL     1      47.942  10.554  11.916  0.00  0.00    +0.000 C 
ENDBRANCH   3   5
BRANCH   3   6
ATOM      6  C   UNL     1      48.496   8.144  12.609  0.00  0.00    +0.000 C 
ATOM      7  O   UNL     1      48.838   7.584  11.565  0.00  0.00    +0.000 OA
BRANCH   6   8
ATOM      8  C   UNL     1      49.089   7.727  13.895  0.00  0.00    +0.000 A 
ATOM      9  C   UNL     1      48.381   7.143  14.929  0.00  0.00    +0.000 A 
ATOM     10  S   UNL     1      49.371   6.577  16.202  0.00  0.00    +0.000 S 
ATOM     11  C   UNL     1      50.779   7.129  15.426  0.00  0.00    +0.000 A 
ATOM     12  N   UNL     1      52.008   6.922  15.969  0.00  0.00    +0.000 NA
ATOM     13  C   UNL     1      52.984   7.387  15.262  0.00  0.00    +0.000 A 
ATOM     14  N   UNL     1      52.840   8.069  14.076  0.00  0.00    +0.000 N 
ATOM     15  C   UNL     1      51.607   8.415  13.561  0.00  0.00    +0.000 A 
ATOM     16  O   UNL     1      51.508   9.252  12.673  0.00  0.00    +0.000 OA
ATOM     17  C   UNL     1      50.491   7.789  14.245  0.00  0.00    +0.000 A 
ATOM     18  H   UNL     1      53.638   8.499  13.627  0.00  0.00    +0.000 HD
ENDBRANCH   6   8
ENDBRANCH   3   6
ENDBRANCH   1   3
BRANCH   1  19
ATOM     19  C   UNL     1      45.340   7.923  12.872  0.00  0.00    +0.000 C 
BRANCH  19  20
ATOM     20  C   UNL     1      45.204   6.554  12.241  0.00  0.00    +0.000 A 
ATOM     21  C   UNL     1      44.302   6.341  11.187  0.00  0.00    +0.000 A 
ATOM     22  C   UNL     1      44.109   5.065  10.659  0.00  0.00    +0.000 A 
ATOM     23  C   UNL     1      44.832   3.973  11.155  0.00  0.00    +0.000 A 
ATOM     24  C   UNL     1      45.782   4.200  12.163  0.00  0.00    +0.000 A 
ATOM     25  C   UNL     1      45.961   5.474  12.707  0.00  0.00    +0.000 A 
BRANCH  23  26
ATOM     26  C   UNL     1      44.573   2.586  10.601  0.00  0.00    +0.000 C 
BRANCH  26  27
ATOM     27  O   UNL     1      43.249   2.203  10.973  0.00  0.00    +0.000 OA
ATOM     28  H   UNL     1      42.640   2.823  10.540  0.00  0.00    +0.000 HD
ENDBRANCH  26  27
BRANCH  26  29
ATOM     29  C   UNL     1      44.802   2.525   9.058  0.00  0.00    +0.000 C 
BRANCH  29  30
ATOM     30  N   UNL     1      46.204   2.660   8.614  0.00  0.00    +0.000 NA
ATOM     31  C   UNL     1      46.420   3.768   7.674  0.00  0.00    +0.000 C 
ATOM     32  C   UNL     1      46.219   3.175   6.294  0.00  0.00    +0.000 C 
ATOM     33  C   UNL     1      46.770   1.771   6.430  0.00  0.00    +0.000 C 
ATOM     34  C   UNL     1      46.659   1.443   7.916  0.00  0.00    +0.000 C 
ENDBRANCH  29  30
ENDBRANCH  26  29
ENDBRANCH  23  26
ENDBRANCH  19  20
ENDBRANCH   1  19
TORSDOF 10
ENDMDL
MODEL 4
REMARK VINA RESULT:    -5.930      3.099      4.919
REMARK INTER + INTRA:         -10.305
REMARK INTER:                  -8.810
REMARK INTRA:                  -1.495
REMARK UNBOUND:                -1.082
REMARK  Name = 
REMARK  11 active torsions:
REMARK  status: ('A' for Active; 'I' for Inactive)
REMARK    1  A    between atoms: C_1  and  C_2
REMARK    2  A    between atoms: C_2  and  C_3
REMARK    3  A    between atoms: C_3  and  N_4
REMARK    4  A    between atoms: C_3  and  C_20
REMARK    5  A    between atoms: N_4  and  C_5
REMARK    6  A    between atoms: C_5  and  C_6
REMARK    7  A    between atoms: C_9  and  C_10
REMARK    8  A    between atoms: C_10  and  O_11
REMARK    9  A    between atoms: C_10  and  C_12
REMARK   10  A    between atoms: C_12  and  N_13
REMARK   11  A    between atoms: C_20  and  C_22
REMARK                            x       y       z     vdW  Elec       q    Type
REMARK                         _______ _______ _______ _____ _____    ______ ____
ROOT
ATOM      1  N   UNL     1      45.338   8.123  13.149  0.00  0.00    +0.000 NA
ATOM      2  H   UNL     1      44.820   8.751  13.760  0.00  0.00    +0.000 HD
ENDROOT
BRANCH   1   3
ATOM      3  C   UNL     1      46.744   8.567  13.092  0.00  0.00    +0.000 C 
BRANCH   3   5
ATOM      4  C   UNL     1      47.767  10.840  12.429  0.00  0.00    +0.000 C 
ATOM      5  C   UNL     1      47.018   9.593  11.969  0.00  0.00    +0.000 C 
ENDBRANCH   3   5
BRANCH   3   6
ATOM      6  C   UNL     1      47.732   7.369  13.034  0.00  0.00    +0.000 C 
ATOM      7  O   UNL     1      48.566   7.296  12.129  0.00  0.00    +0.000 OA
BRANCH   6   8
ATOM      8  C   UNL     1      47.649   6.294  14.043  0.00  0.00    +0.000 A 
ATOM      9  C   UNL     1      46.866   5.161  13.916  0.00  0.00    +0.000 A 
ATOM     10  S   UNL     1      47.137   4.001  15.141  0.00  0.00    +0.000 S 
ATOM     11  C   UNL     1      48.286   4.995  15.905  0.00  0.00    +0.000 A 
ATOM     12  N   UNL     1      48.951   4.576  17.014  0.00  0.00    +0.000 NA
ATOM     13  C   UNL     1      49.800   5.433  17.476  0.00  0.00    +0.000 A 
ATOM     14  N   UNL     1      50.020   6.684  16.949  0.00  0.00    +0.000 N 
ATOM     15  C   UNL     1      49.273   7.195  15.907  0.00  0.00    +0.000 A 
ATOM     16  O   UNL     1      49.292   8.391  15.646  0.00  0.00    +0.000 OA
ATOM     17  C   UNL     1      48.413   6.217  15.268  0.00  0.00    +0.000 A 
ATOM     18  H   UNL     1      50.621   7.346  17.422  0.00  0.00    +0.000 HD
ENDBRANCH   6   8
ENDBRANCH   3   6
ENDBRANCH   1   3
BRANCH   1  19
ATOM     19  C   UNL     1      44.650   8.044  11.859  0.00  0.00    +0.000 C 
BRANCH  19  20
ATOM     20  C   UNL     1      44.690   6.619  11.353  0.00  0.00    +0.000 A 
ATOM     21  C   UNL     1      45.692   6.205  10.462  0.00  0.00    +0.000 A 
ATOM     22  C   UNL     1      45.685   4.918   9.926  0.00  0.00    +0.000 A 
ATOM     23  C   UNL     1      44.689   4.002  10.288  0.00  0.00    +0.000 A 
ATOM     24  C   UNL     1      43.726   4.396  11.231  0.00  0.00    +0.000 A 
ATOM     25  C   UNL     1      43.721   5.692  11.751  0.00  0.00    +0.000 A 
BRANCH  23  26
ATOM     26  C   UNL     1      44.670   2.624   9.657  0.00  0.00    +0.000 C 
BRANCH  26  27
ATOM     27  O   UNL     1      43.584   2.578   8.731  0.00  0.00    +0.000 OA
ATOM     28  H   UNL     1      42.826   2.194   9.199  0.00  0.00    +0.000 HD
ENDBRANCH  26  27
BRANCH  26  29
ATOM     29  C   UNL     1      46.037   2.271   8.993  0.00  0.00    +0.000 C 
BRANCH  29  30
ATOM     30  N   UNL     1      45.976   1.893   7.567  0.00  0.00    +0.000 NA
ATOM     31  C   UNL     1      47.098   1.050   7.132  0.00  0.00    +0.000 C 
ATOM     32  C   UNL     1      48.168   2.011   6.656  0.00  0.00    +0.000 C 
ATOM     33  C   UNL     1      47.376   3.137   6.026  0.00  0.00    +0.000 C 
ATOM     34  C   UNL     1      46.008   3.087   6.700  0.00  0.00    +0.000 C 
ENDBRANCH  29  30
ENDBRANCH  26  29
ENDBRANCH  23  26
ENDBRANCH  19  20
ENDBRANCH   1  19
TORSDOF 10
ENDMDL
MODEL 5
REMARK VINA RESULT:    -5.179      5.170      6.355
REMARK INTER + INTRA:          -9.138
REMARK INTER:                  -7.990
REMARK INTRA:                  -1.148
REMARK UNBOUND:                -1.082
REMARK  Name = 
REMARK  11 active torsions:
REMARK  status: ('A' for Active; 'I' for Inactive)
REMARK    1  A    between atoms: C_1  and  C_2
REMARK    2  A    between atoms: C_2  and  C_3
REMARK    3  A    between atoms: C_3  and  N_4
REMARK    4  A    between atoms: C_3  and  C_20
REMARK    5  A    between atoms: N_4  and  C_5
REMARK    6  A    between atoms: C_5  and  C_6
REMARK    7  A    between atoms: C_9  and  C_10
REMARK    8  A    between atoms: C_10  and  O_11
REMARK    9  A    between atoms: C_10  and  C_12
REMARK   10  A    between atoms: C_12  and  N_13
REMARK   11  A    between atoms: C_20  and  C_22
REMARK                            x       y       z     vdW  Elec       q    Type
REMARK                         _______ _______ _______ _____ _____    ______ ____
ROOT
ATOM      1  N   UNL     1      45.134   7.937  12.341  0.00  0.00    +0.000 NA
ATOM      2  H   UNL     1      44.847   8.025  11.368  0.00  0.00    +0.000 HD
ENDROOT
BRANCH   1   3
ATOM      3  C   UNL     1      46.607   7.891  12.402  0.00  0.00    +0.000 C 
BRANCH   3   5
ATOM      4  C   UNL     1      48.126   5.941  13.140  0.00  0.00    +0.000 C 
ATOM      5  C   UNL     1      47.146   7.030  13.567  0.00  0.00    +0.000 C 
ENDBRANCH   3   5
BRANCH   3   6
ATOM      6  C   UNL     1      47.236   9.312  12.394  0.00  0.00    +0.000 C 
ATOM      7  O   UNL     1      46.512  10.310  12.357  0.00  0.00    +0.000 OA
BRANCH   6   8
ATOM      8  C   UNL     1      48.704   9.471  12.392  0.00  0.00    +0.000 A 
ATOM      9  C   UNL     1      49.504   9.322  11.274  0.00  0.00    +0.000 A 
ATOM     10  S   UNL     1      51.132   9.773  11.534  0.00  0.00    +0.000 S 
ATOM     11  C   UNL     1      50.826  10.147  13.163  0.00  0.00    +0.000 A 
ATOM     12  N   UNL     1      51.805  10.640  13.967  0.00  0.00    +0.000 NA
ATOM     13  C   UNL     1      51.423  10.888  15.175  0.00  0.00    +0.000 A 
ATOM     14  N   UNL     1      50.157  10.656  15.663  0.00  0.00    +0.000 N 
ATOM     15  C   UNL     1      49.176  10.034  14.918  0.00  0.00    +0.000 A 
ATOM     16  O   UNL     1      48.168   9.588  15.452  0.00  0.00    +0.000 OA
ATOM     17  C   UNL     1      49.517   9.873  13.517  0.00  0.00    +0.000 A 
ATOM     18  H   UNL     1      49.953  10.772  16.646  0.00  0.00    +0.000 HD
ENDBRANCH   6   8
ENDBRANCH   3   6
ENDBRANCH   1   3
BRANCH   1  19
ATOM     19  C   UNL     1      44.443   6.791  12.936  0.00  0.00    +0.000 C 
BRANCH  19  20
ATOM     20  C   UNL     1      44.665   5.567  12.074  0.00  0.00    +0.000 A 
ATOM     21  C   UNL     1      44.746   5.682  10.677  0.00  0.00    +0.000 A 
ATOM     22  C   UNL     1      44.864   4.549   9.873  0.00  0.00    +0.000 A 
ATOM     23  C   UNL     1      44.932   3.273  10.446  0.00  0.00    +0.000 A 
ATOM     24  C   UNL     1      44.920   3.165  11.846  0.00  0.00    +0.000 A 
ATOM     25  C   UNL     1      44.779   4.298  12.651  0.00  0.00    +0.000 A 
BRANCH  23  26
ATOM     26  C   UNL     1      45.012   2.052   9.553  0.00  0.00    +0.000 C 
BRANCH  26  27
ATOM     27  O   UNL     1      43.779   1.340   9.667  0.00  0.00    +0.000 OA
ATOM     28  H   UNL     1      43.081   1.922   9.327  0.00  0.00    +0.000 HD
ENDBRANCH  26  27
BRANCH  26  29
ATOM     29  C   UNL     1      45.347   2.433   8.077  0.00  0.00    +0.000 C 
BRANCH  29  30
ATOM     30  N   UNL     1      46.780   2.633   7.778  0.00  0.00    +0.000 NA
ATOM     31  C   UNL     1      47.037   3.733   6.840  0.00  0.00    +0.000 C 
ATOM     32  C   UNL     1      47.013   3.105   5.461  0.00  0.00    +0.000 C 
ATOM     33  C   UNL     1      47.616   1.735   5.687  0.00  0.00    +0.000 C 
ATOM     34  C   UNL     1      47.366   1.428   7.160  0.00  0.00    +0.000 C 
ENDBRANCH  29  30
ENDBRANCH  26  29
ENDBRANCH  23  26
ENDBRANCH  19  20
ENDBRANCH   1  19
TORSDOF 10
ENDMDL
MODEL 6
REMARK VINA RESULT:    -5.013     10.910     13.620
REMARK INTER + INTRA:          -8.880
REMARK INTER:                  -5.452
REMARK INTRA:                  -3.428
REMARK UNBOUND:                -1.082
REMARK  Name = 
REMARK  11 active torsions:
REMARK  status: ('A' for Active; 'I' for Inactive)
REMARK    1  A    between atoms: C_1  and  C_2
REMARK    2  A    between atoms: C_2  and  C_3
REMARK    3  A    between atoms: C_3  and  N_4
REMARK    4  A    between atoms: C_3  and  C_20
REMARK    5  A    between atoms: N_4  and  C_5
REMARK    6  A    between atoms: C_5  and  C_6
REMARK    7  A    between atoms: C_9  and  C_10
REMARK    8  A    between atoms: C_10  and  O_11
REMARK    9  A    between atoms: C_10  and  C_12
REMARK   10  A    between atoms: C_12  and  N_13
REMARK   11  A    between atoms: C_20  and  C_22
REMARK                            x       y       z     vdW  Elec       q    Type
REMARK                         _______ _______ _______ _____ _____    ______ ____
ROOT
ATOM      1  N   UNL     1      39.305  -0.857  15.833  0.00  0.00    +0.000 NA
ATOM      2  H   UNL     1      39.693   0.084  15.808  0.00  0.00    +0.000 HD
ENDROOT
BRANCH   1   3
ATOM      3  C   UNL     1      37.977  -0.842  15.190  0.00  0.00    +0.000 C 
BRANCH   3   5
ATOM      4  C   UNL     1      35.970   0.152  16.468  0.00  0.00    +0.000 C 
ATOM      5  C   UNL     1      36.814  -1.085  16.179  0.00  0.00    +0.000 C 
ENDBRANCH   3   5
BRANCH   3   6
ATOM      6  C   UNL     1      37.910  -1.803  13.970  0.00  0.00    +0.000 C 
ATOM      7  O   UNL     1      37.530  -1.386  12.873  0.00  0.00    +0.000 OA
BRANCH   6   8
ATOM      8  C   UNL     1      38.264  -3.227  14.131  0.00  0.00    +0.000 A 
ATOM      9  C   UNL     1      37.387  -4.206  14.560  0.00  0.00    +0.000 A 
ATOM     10  S   UNL     1      38.022  -5.790  14.445  0.00  0.00    +0.000 S 
ATOM     11  C   UNL     1      39.505  -5.212  13.851  0.00  0.00    +0.000 A 
ATOM     12  N   UNL     1      40.502  -6.066  13.499  0.00  0.00    +0.000 NA
ATOM     13  C   UNL     1      41.566  -5.484  13.054  0.00  0.00    +0.000 A 
ATOM     14  N   UNL     1      41.735  -4.121  12.959  0.00  0.00    +0.000 N 
ATOM     15  C   UNL     1      40.800  -3.221  13.429  0.00  0.00    +0.000 A 
ATOM     16  O   UNL     1      41.088  -2.042  13.592  0.00  0.00    +0.000 OA
ATOM     17  C   UNL     1      39.536  -3.829  13.800  0.00  0.00    +0.000 A 
ATOM     18  H   UNL     1      42.631  -3.728  12.703  0.00  0.00    +0.000 HD
ENDBRANCH   6   8
ENDBRANCH   3   6
ENDBRANCH   1   3
BRANCH   1  19
ATOM     19  C   UNL     1      39.329  -1.342  17.215  0.00  0.00    +0.000 C 
BRANCH  19  20
ATOM     20  C   UNL     1      40.019  -2.688  17.264  0.00  0.00    +0.000 A 
ATOM     21  C   UNL     1      41.373  -2.810  16.916  0.00  0.00    +0.000 A 
ATOM     22  C   UNL     1      41.992  -4.059  16.875  0.00  0.00    +0.000 A 
ATOM     23  C   UNL     1      41.278  -5.217  17.208  0.00  0.00    +0.000 A 
ATOM     24  C   UNL     1      39.942  -5.086  17.621  0.00  0.00    +0.000 A 
ATOM     25  C   UNL     1      39.316  -3.838  17.640  0.00  0.00    +0.000 A 
BRANCH  23  26
ATOM     26  C   UNL     1      41.953  -6.570  17.112  0.00  0.00    +0.000 C 
BRANCH  26  27
ATOM     27  O   UNL     1      41.261  -7.340  16.129  0.00  0.00    +0.000 OA
ATOM     28  H   UNL     1      41.831  -8.091  15.901  0.00  0.00    +0.000 HD
ENDBRANCH  26  27
BRANCH  26  29
ATOM     29  C   UNL     1      43.477  -6.437  16.802  0.00  0.00    +0.000 C 
BRANCH  29  30
ATOM     30  N   UNL     1      44.389  -6.828  17.896  0.00  0.00    +0.000 NA
ATOM     31  C   UNL     1      44.460  -5.843  18.983  0.00  0.00    +0.000 C 
ATOM     32  C   UNL     1      45.589  -4.905  18.608  0.00  0.00    +0.000 C 
ATOM     33  C   UNL     1      46.590  -5.812  17.927  0.00  0.00    +0.000 C 
ATOM     34  C   UNL     1      45.770  -6.988  17.404  0.00  0.00    +0.000 C 
ENDBRANCH  29  30
ENDBRANCH  26  29
ENDBRANCH  23  26
ENDBRANCH  19  20
ENDBRANCH   1  19
TORSDOF 10
ENDMDL
MODEL 7
REMARK VINA RESULT:    -4.927     10.880     13.078
REMARK INTER + INTRA:          -8.745
REMARK INTER:                  -6.013
REMARK INTRA:                  -2.732
REMARK UNBOUND:                -1.082
REMARK  Name = 
REMARK  11 active torsions:
REMARK  status: ('A' for Active; 'I' for Inactive)
REMARK    1  A    between atoms: C_1  and  C_2
REMARK    2  A    between atoms: C_2  and  C_3
REMARK    3  A    between atoms: C_3  and  N_4
REMARK    4  A    between atoms: C_3  and  C_20
REMARK    5  A    between atoms: N_4  and  C_5
REMARK    6  A    between atoms: C_5  and  C_6
REMARK    7  A    between atoms: C_9  and  C_10
REMARK    8  A    between atoms: C_10  and  O_11
REMARK    9  A    between atoms: C_10  and  C_12
REMARK   10  A    between atoms: C_12  and  N_13
REMARK   11  A    between atoms: C_20  and  C_22
REMARK                            x       y       z     vdW  Elec       q    Type
REMARK                         _______ _______ _______ _____ _____    ______ ____
ROOT
ATOM      1  N   UNL     1      42.604  -4.420  17.176  0.00  0.00    +0.000 NA
ATOM      2  H   UNL     1      42.331  -3.923  16.331  0.00  0.00    +0.000 HD
ENDROOT
BRANCH   1   3
ATOM      3  C   UNL     1      42.665  -5.864  16.881  0.00  0.00    +0.000 C 
BRANCH   3   5
ATOM      4  C   UNL     1      44.922  -5.834  18.129  0.00  0.00    +0.000 C 
ATOM      5  C   UNL     1      44.085  -6.458  17.016  0.00  0.00    +0.000 C 
ENDBRANCH   3   5
BRANCH   3   6
ATOM      6  C   UNL     1      42.024  -6.205  15.506  0.00  0.00    +0.000 C 
ATOM      7  O   UNL     1      42.667  -6.830  14.660  0.00  0.00    +0.000 OA
BRANCH   6   8
ATOM      8  C   UNL     1      40.654  -5.749  15.197  0.00  0.00    +0.000 A 
ATOM      9  C   UNL     1      39.511  -6.247  15.794  0.00  0.00    +0.000 A 
ATOM     10  S   UNL     1      38.094  -5.380  15.390  0.00  0.00    +0.000 S 
ATOM     11  C   UNL     1      38.961  -4.331  14.372  0.00  0.00    +0.000 A 
ATOM     12  N   UNL     1      38.343  -3.303  13.731  0.00  0.00    +0.000 NA
ATOM     13  C   UNL     1      39.130  -2.584  13.002  0.00  0.00    +0.000 A 
ATOM     14  N   UNL     1      40.474  -2.820  12.829  0.00  0.00    +0.000 N 
ATOM     15  C   UNL     1      41.110  -3.927  13.354  0.00  0.00    +0.000 A 
ATOM     16  O   UNL     1      42.220  -4.262  12.959  0.00  0.00    +0.000 OA
ATOM     17  C   UNL     1      40.298  -4.676  14.295  0.00  0.00    +0.000 A 
ATOM     18  H   UNL     1      41.011  -2.283  12.161  0.00  0.00    +0.000 HD
ENDBRANCH   6   8
ENDBRANCH   3   6
ENDBRANCH   1   3
BRANCH   1  19
ATOM     19  C   UNL     1      41.698  -4.039  18.263  0.00  0.00    +0.000 C 
BRANCH  19  20
ATOM     20  C   UNL     1      40.682  -3.044  17.745  0.00  0.00    +0.000 A 
ATOM     21  C   UNL     1      39.362  -3.059  18.222  0.00  0.00    +0.000 A 
ATOM     22  C   UNL     1      38.400  -2.202  17.687  0.00  0.00    +0.000 A 
ATOM     23  C   UNL     1      38.740  -1.290  16.681  0.00  0.00    +0.000 A 
ATOM     24  C   UNL     1      40.076  -1.229  16.254  0.00  0.00    +0.000 A 
ATOM     25  C   UNL     1      41.035  -2.102  16.773  0.00  0.00    +0.000 A 
BRANCH  23  26
ATOM     26  C   UNL     1      37.670  -0.401  16.080  0.00  0.00    +0.000 C 
BRANCH  26  27
ATOM     27  O   UNL     1      36.811  -1.220  15.287  0.00  0.00    +0.000 OA
ATOM     28  H   UNL     1      35.999  -1.363  15.799  0.00  0.00    +0.000 HD
ENDBRANCH  26  27
BRANCH  26  29
ATOM     29  C   UNL     1      36.893   0.394  17.175  0.00  0.00    +0.000 C 
BRANCH  29  30
ATOM     30  N   UNL     1      37.684   1.394  17.921  0.00  0.00    +0.000 NA
ATOM     31  C   UNL     1      36.873   2.261  18.786  0.00  0.00    +0.000 C 
ATOM     32  C   UNL     1      36.495   3.451  17.929  0.00  0.00    +0.000 C 
ATOM     33  C   UNL     1      37.714   3.660  17.056  0.00  0.00    +0.000 C 
ATOM     34  C   UNL     1      38.400   2.299  17.001  0.00  0.00    +0.000 C 
ENDBRANCH  29  30
ENDBRANCH  26  29
ENDBRANCH  23  26
ENDBRANCH  19  20
ENDBRANCH   1  19
TORSDOF 10
ENDMDL
MODEL 8
REMARK VINA RESULT:    -4.828     11.121     13.444
REMARK INTER + INTRA:          -8.592
REMARK INTER:                  -5.622
REMARK INTRA:                  -2.970
REMARK UNBOUND:                -1.082
REMARK  Name = 
REMARK  11 active torsions:
REMARK  status: ('A' for Active; 'I' for Inactive)
REMARK    1  A    between atoms: C_1  and  C_2
REMARK    2  A    between atoms: C_2  and  C_3
REMARK    3  A    between atoms: C_3  and  N_4
REMARK    4  A    between atoms: C_3  and  C_20
REMARK    5  A    between atoms: N_4  and  C_5
REMARK    6  A    between atoms: C_5  and  C_6
REMARK    7  A    between atoms: C_9  and  C_10
REMARK    8  A    between atoms: C_10  and  O_11
REMARK    9  A    between atoms: C_10  and  C_12
REMARK   10  A    between atoms: C_12  and  N_13
REMARK   11  A    between atoms: C_20  and  C_22
REMARK                            x       y       z     vdW  Elec       q    Type
REMARK                         _______ _______ _______ _____ _____    ______ ____
ROOT
ATOM      1  N   UNL     1      40.122  -4.886  15.893  0.00  0.00    +0.000 NA
ATOM      2  H   UNL     1      39.214  -4.637  15.507  0.00  0.00    +0.000 HD
ENDROOT
BRANCH   1   3
ATOM      3  C   UNL     1      41.011  -3.710  15.816  0.00  0.00    +0.000 C 
BRANCH   3   5
ATOM      4  C   UNL     1      42.955  -4.300  17.406  0.00  0.00    +0.000 C 
ATOM      5  C   UNL     1      41.744  -3.408  17.143  0.00  0.00    +0.000 C 
ENDBRANCH   3   5
BRANCH   3   6
ATOM      6  C   UNL     1      40.274  -2.458  15.265  0.00  0.00    +0.000 C 
ATOM      7  O   UNL     1      40.608  -1.329  15.633  0.00  0.00    +0.000 OA
BRANCH   6   8
ATOM      8  C   UNL     1      39.146  -2.619  14.326  0.00  0.00    +0.000 A 
ATOM      9  C   UNL     1      37.821  -2.732  14.708  0.00  0.00    +0.000 A 
ATOM     10  S   UNL     1      36.725  -2.693  13.397  0.00  0.00    +0.000 S 
ATOM     11  C   UNL     1      37.992  -2.561  12.271  0.00  0.00    +0.000 A 
ATOM     12  N   UNL     1      37.739  -2.439  10.941  0.00  0.00    +0.000 NA
ATOM     13  C   UNL     1      38.798  -2.337  10.209  0.00  0.00    +0.000 A 
ATOM     14  N   UNL     1      40.089  -2.377  10.683  0.00  0.00    +0.000 N 
ATOM     15  C   UNL     1      40.388  -2.632  12.006  0.00  0.00    +0.000 A 
ATOM     16  O   UNL     1      41.522  -2.941  12.348  0.00  0.00    +0.000 OA
ATOM     17  C   UNL     1      39.232  -2.608  12.883  0.00  0.00    +0.000 A 
ATOM     18  H   UNL     1      40.874  -2.398  10.046  0.00  0.00    +0.000 HD
ENDBRANCH   6   8
ENDBRANCH   3   6
ENDBRANCH   1   3
BRANCH   1  19
ATOM     19  C   UNL     1      40.610  -6.088  15.214  0.00  0.00    +0.000 C 
BRANCH  19  20
ATOM     20  C   UNL     1      39.993  -6.174  13.835  0.00  0.00    +0.000 A 
ATOM     21  C   UNL     1      40.806  -6.206  12.691  0.00  0.00    +0.000 A 
ATOM     22  C   UNL     1      40.243  -6.197  11.415  0.00  0.00    +0.000 A 
ATOM     23  C   UNL     1      38.852  -6.184  11.251  0.00  0.00    +0.000 A 
ATOM     24  C   UNL     1      38.041  -6.220  12.396  0.00  0.00    +0.000 A 
ATOM     25  C   UNL     1      38.604  -6.207  13.674  0.00  0.00    +0.000 A 
BRANCH  23  26
ATOM     26  C   UNL     1      38.261  -6.126   9.857  0.00  0.00    +0.000 C 
BRANCH  26  27
ATOM     27  O   UNL     1      37.040  -5.390   9.926  0.00  0.00    +0.000 OA
ATOM     28  H   UNL     1      37.245  -4.473   9.682  0.00  0.00    +0.000 HD
ENDBRANCH  26  27
BRANCH  26  29
ATOM     29  C   UNL     1      39.265  -5.524   8.825  0.00  0.00    +0.000 C 
BRANCH  29  30
ATOM     30  N   UNL     1      39.529  -6.353   7.631  0.00  0.00    +0.000 NA
ATOM     31  C   UNL     1      40.290  -7.575   7.920  0.00  0.00    +0.000 C 
ATOM     32  C   UNL     1      41.748  -7.193   7.767  0.00  0.00    +0.000 C 
ATOM     33  C   UNL     1      41.732  -6.192   6.631  0.00  0.00    +0.000 C 
ATOM     34  C   UNL     1      40.323  -5.609   6.634  0.00  0.00    +0.000 C 
ENDBRANCH  29  30
ENDBRANCH  26  29
ENDBRANCH  23  26
ENDBRANCH  19  20
ENDBRANCH   1  19
TORSDOF 10
ENDMDL
MODEL 9
REMARK VINA RESULT:    -4.734     11.169     13.890
REMARK INTER + INTRA:          -8.446
REMARK INTER:                  -5.888
REMARK INTRA:                  -2.558
REMARK UNBOUND:                -1.082
REMARK  Name = 
REMARK  11 active torsions:
REMARK  status: ('A' for Active; 'I' for Inactive)
REMARK    1  A    between atoms: C_1  and  C_2
REMARK    2  A    between atoms: C_2  and  C_3
REMARK    3  A    between atoms: C_3  and  N_4
REMARK    4  A    between atoms: C_3  and  C_20
REMARK    5  A    between atoms: N_4  and  C_5
REMARK    6  A    between atoms: C_5  and  C_6
REMARK    7  A    between atoms: C_9  and  C_10
REMARK    8  A    between atoms: C_10  and  O_11
REMARK    9  A    between atoms: C_10  and  C_12
REMARK   10  A    between atoms: C_12  and  N_13
REMARK   11  A    between atoms: C_20  and  C_22
REMARK                            x       y       z     vdW  Elec       q    Type
REMARK                         _______ _______ _______ _____ _____    ______ ____
ROOT
ATOM      1  N   UNL     1      38.905  -1.044  11.404  0.00  0.00    +0.000 NA
ATOM      2  H   UNL     1      39.065  -1.215  12.395  0.00  0.00    +0.000 HD
ENDROOT
BRANCH   1   3
ATOM      3  C   UNL     1      37.515  -0.585  11.219  0.00  0.00    +0.000 C 
BRANCH   3   5
ATOM      4  C   UNL     1      36.972   1.045   9.295  0.00  0.00    +0.000 C 
ATOM      5  C   UNL     1      37.411   0.883  10.748  0.00  0.00    +0.000 C 
ENDBRANCH   3   5
BRANCH   3   6
ATOM      6  C   UNL     1      36.641  -0.852  12.476  0.00  0.00    +0.000 C 
ATOM      7  O   UNL     1      35.848   0.005  12.874  0.00  0.00    +0.000 OA
BRANCH   6   8
ATOM      8  C   UNL     1      36.785  -2.119  13.220  0.00  0.00    +0.000 A 
ATOM      9  C   UNL     1      36.163  -3.305  12.871  0.00  0.00    +0.000 A 
ATOM     10  S   UNL     1      36.685  -4.647  13.792  0.00  0.00    +0.000 S 
ATOM     11  C   UNL     1      37.734  -3.677  14.714  0.00  0.00    +0.000 A 
ATOM     12  N   UNL     1      38.531  -4.218  15.672  0.00  0.00    +0.000 NA
ATOM     13  C   UNL     1      39.282  -3.362  16.281  0.00  0.00    +0.000 A 
ATOM     14  N   UNL     1      39.285  -2.008  16.040  0.00  0.00    +0.000 N 
ATOM     15  C   UNL     1      38.398  -1.405  15.172  0.00  0.00    +0.000 A 
ATOM     16  O   UNL     1      38.229  -0.192  15.186  0.00  0.00    +0.000 OA
ATOM     17  C   UNL     1      37.641  -2.342  14.364  0.00  0.00    +0.000 A 
ATOM     18  H   UNL     1      39.819  -1.380  16.626  0.00  0.00    +0.000 HD
ENDBRANCH   6   8
ENDBRANCH   3   6
ENDBRANCH   1   3
BRANCH   1  19
ATOM     19  C   UNL     1      39.277  -2.243  10.650  0.00  0.00    +0.000 C 
BRANCH  19  20
ATOM     20  C   UNL     1      39.968  -3.224  11.573  0.00  0.00    +0.000 A 
ATOM     21  C   UNL     1      39.642  -4.589  11.538  0.00  0.00    +0.000 A 
ATOM     22  C   UNL     1      40.212  -5.483  12.443  0.00  0.00    +0.000 A 
ATOM     23  C   UNL     1      41.143  -5.040  13.391  0.00  0.00    +0.000 A 
ATOM     24  C   UNL     1      41.519  -3.687  13.380  0.00  0.00    +0.000 A 
ATOM     25  C   UNL     1      40.932  -2.787  12.488  0.00  0.00    +0.000 A 
BRANCH  23  26
ATOM     26  C   UNL     1      41.715  -6.018  14.397  0.00  0.00    +0.000 C 
BRANCH  26  27
ATOM     27  O   UNL     1      42.676  -6.831  13.724  0.00  0.00    +0.000 OA
ATOM     28  H   UNL     1      43.547  -6.435  13.883  0.00  0.00    +0.000 HD
ENDBRANCH  26  27
BRANCH  26  29
ATOM     29  C   UNL     1      42.314  -5.289  15.639  0.00  0.00    +0.000 C 
BRANCH  29  30
ATOM     30  N   UNL     1      42.493  -6.123  16.845  0.00  0.00    +0.000 NA
ATOM     31  C   UNL     1      41.574  -5.781  17.939  0.00  0.00    +0.000 C 
ATOM     32  C   UNL     1      42.296  -4.735  18.764  0.00  0.00    +0.000 C 
ATOM     33  C   UNL     1      43.746  -5.163  18.686  0.00  0.00    +0.000 C 
ATOM     34  C   UNL     1      43.852  -5.972  17.398  0.00  0.00    +0.000 C 
ENDBRANCH  29  30
ENDBRANCH  26  29
ENDBRANCH  23  26
ENDBRANCH  19  20
ENDBRANCH   1  19
TORSDOF 10
ENDMDL
