MODEL 1
REMARK VINA RESULT:    -7.988      0.000      0.000
REMARK INTER + INTRA:         -10.353
REMARK INTER:                  -9.856
REMARK INTRA:                  -0.497
REMARK UNBOUND:                -0.497
REMARK  Name = 
REMARK  5 active torsions:
REMARK  status: ('A' for Active; 'I' for Inactive)
REMARK    1  A    between atoms: C_1  and  C_2
REMARK    2  A    between atoms: C_4  and  C_5
REMARK    3  A    between atoms: N_10  and  C_11
REMARK    4  A    between atoms: C_11  and  C_12
REMARK    5  A    between atoms: C_17  and  N_18
REMARK                            x       y       z     vdW  Elec       q    Type
REMARK                         _______ _______ _______ _____ _____    ______ ____
ROOT
ATOM      1  C   UNL     1      49.895   1.423  16.854  0.00  0.00    +0.000 C 
ATOM      2  C   UNL     1      48.969   2.597  16.756  0.00  0.00    +0.000 A 
ATOM      3  C   UNL     1      48.800   3.459  17.806  0.00  0.00    +0.000 A 
ATOM      4  C   UNL     1      47.912   4.487  17.581  0.00  0.00    +0.000 A 
ATOM      5  N   UNL     1      47.226   4.676  16.425  0.00  0.00    +0.000 NA
ATOM      6  C   UNL     1      47.456   3.779  15.461  0.00  0.00    +0.000 A 
ATOM      7  N   UNL     1      46.777   3.818  14.263  0.00  0.00    +0.000 N 
ATOM      8  N   UNL     1      48.308   2.752  15.588  0.00  0.00    +0.000 NA
ATOM      9  H   UNL     1      47.267   3.221  13.607  0.00  0.00    +0.000 HD
ENDROOT
BRANCH   4  10
ATOM     10  C   UNL     1      47.670   5.477  18.675  0.00  0.00    +0.000 C 
ATOM     11  N   UNL     1      46.357   5.739  18.958  0.00  0.00    +0.000 N 
ATOM     12  O   UNL     1      48.580   6.021  19.290  0.00  0.00    +0.000 OA
ATOM     13  H   UNL     1      45.629   5.213  18.489  0.00  0.00    +0.000 HD
ATOM     14  H   UNL     1      46.132   6.351  19.730  0.00  0.00    +0.000 HD
ENDBRANCH   4  10
BRANCH   7  15
ATOM     15  C   UNL     1      46.292   5.074  13.748  0.00  0.00    +0.000 C 
BRANCH  15  16
ATOM     16  C   UNL     1      45.210   4.882  12.713  0.00  0.00    +0.000 A 
ATOM     17  C   UNL     1      43.909   5.347  12.909  0.00  0.00    +0.000 A 
ATOM     18  C   UNL     1      42.961   5.173  11.908  0.00  0.00    +0.000 A 
ATOM     19  F   UNL     1      41.716   5.636  12.092  0.00  0.00    +0.000 F 
ATOM     20  C   UNL     1      43.284   4.547  10.705  0.00  0.00    +0.000 A 
ATOM     21  C   UNL     1      44.575   4.069  10.466  0.00  0.00    +0.000 A 
ATOM     22  C   UNL     1      45.513   4.233  11.504  0.00  0.00    +0.000 A 
BRANCH  21  23
ATOM     23  N   UNL     1      44.931   3.453   9.289  0.00  0.00    +0.000 N 
ATOM     24  C   UNL     1      44.756   2.015   9.038  0.00  0.00    +0.000 C 
ATOM     25  C   UNL     1      46.044   1.467   8.397  0.00  0.00    +0.000 C 
ATOM     26  O   UNL     1      46.414   2.196   7.212  0.00  0.00    +0.000 OA
ATOM     27  C   UNL     1      46.609   3.588   7.519  0.00  0.00    +0.000 C 
ATOM     28  C   UNL     1      45.331   4.211   8.093  0.00  0.00    +0.000 C 
ENDBRANCH  21  23
ENDBRANCH  15  16
ENDBRANCH   7  15
TORSDOF 4
ENDMDL
MODEL 2
REMARK VINA RESULT:    -7.665      2.832      3.876
REMARK INTER + INTRA:          -9.955
REMARK INTER:                  -9.119
REMARK INTRA:                  -0.836
REMARK UNBOUND:                -0.497
REMARK  Name = 
REMARK  5 active torsions:
REMARK  status: ('A' for Active; 'I' for Inactive)
REMARK    1  A    between atoms: C_1  and  C_2
REMARK    2  A    between atoms: C_4  and  C_5
REMARK    3  A    between atoms: N_10  and  C_11
REMARK    4  A    between atoms: C_11  and  C_12
REMARK    5  A    between atoms: C_17  and  N_18
REMARK                            x       y       z     vdW  Elec       q    Type
REMARK                         _______ _______ _______ _____ _____    ______ ____
ROOT
ATOM      1  C   UNL     1      48.229   7.711  18.966  0.00  0.00    +0.000 C 
ATOM      2  C   UNL     1      48.311   6.822  17.764  0.00  0.00    +0.000 A 
ATOM      3  C   UNL     1      48.046   5.482  17.850  0.00  0.00    +0.000 A 
ATOM      4  C   UNL     1      48.168   4.784  16.670  0.00  0.00    +0.000 A 
ATOM      5  N   UNL     1      48.526   5.334  15.481  0.00  0.00    +0.000 NA
ATOM      6  C   UNL     1      48.768   6.648  15.500  0.00  0.00    +0.000 A 
ATOM      7  N   UNL     1      49.202   7.318  14.377  0.00  0.00    +0.000 N 
ATOM      8  N   UNL     1      48.667   7.408  16.599  0.00  0.00    +0.000 NA
ATOM      9  H   UNL     1      49.087   8.311  14.541  0.00  0.00    +0.000 HD
ENDROOT
BRANCH   4  10
ATOM     10  C   UNL     1      47.893   3.315  16.673  0.00  0.00    +0.000 C 
ATOM     11  N   UNL     1      46.878   2.903  17.495  0.00  0.00    +0.000 N 
ATOM     12  O   UNL     1      48.523   2.520  15.985  0.00  0.00    +0.000 OA
ATOM     13  H   UNL     1      46.322   3.592  17.988  0.00  0.00    +0.000 HD
ATOM     14  H   UNL     1      46.604   1.930  17.490  0.00  0.00    +0.000 HD
ENDBRANCH   4  10
BRANCH   7  15
ATOM     15  C   UNL     1      48.842   6.838  13.066  0.00  0.00    +0.000 C 
BRANCH  15  16
ATOM     16  C   UNL     1      47.402   7.139  12.728  0.00  0.00    +0.000 A 
ATOM     17  C   UNL     1      46.888   8.436  12.770  0.00  0.00    +0.000 A 
ATOM     18  C   UNL     1      45.563   8.659  12.416  0.00  0.00    +0.000 A 
ATOM     19  F   UNL     1      45.077   9.909  12.440  0.00  0.00    +0.000 F 
ATOM     20  C   UNL     1      44.734   7.614  12.013  0.00  0.00    +0.000 A 
ATOM     21  C   UNL     1      45.209   6.300  11.955  0.00  0.00    +0.000 A 
ATOM     22  C   UNL     1      46.546   6.093  12.342  0.00  0.00    +0.000 A 
BRANCH  21  23
ATOM     23  N   UNL     1      44.421   5.246  11.555  0.00  0.00    +0.000 N 
ATOM     24  C   UNL     1      43.348   4.674  12.381  0.00  0.00    +0.000 C 
ATOM     25  C   UNL     1      43.458   3.138  12.336  0.00  0.00    +0.000 C 
ATOM     26  O   UNL     1      43.451   2.632  10.989  0.00  0.00    +0.000 OA
ATOM     27  C   UNL     1      44.540   3.194  10.235  0.00  0.00    +0.000 C 
ATOM     28  C   UNL     1      44.443   4.723  10.180  0.00  0.00    +0.000 C 
ENDBRANCH  21  23
ENDBRANCH  15  16
ENDBRANCH   7  15
TORSDOF 4
ENDMDL
MODEL 3
REMARK VINA RESULT:    -7.445      3.037      7.646
REMARK INTER + INTRA:          -9.682
REMARK INTER:                  -8.871
REMARK INTRA:                  -0.812
REMARK UNBOUND:                -0.497
REMARK  Name = 
REMARK  5 active torsions:
REMARK  status: ('A' for Active; 'I' for Inactive)
REMARK    1  A    between atoms: C_1  and  C_2
REMARK    2  A    between atoms: C_4  and  C_5
REMARK    3  A    between atoms: N_10  and  C_11
REMARK    4  A    between atoms: C_11  and  C_12
REMARK    5  A    between atoms: C_17  and  N_18
REMARK                            x       y       z     vdW  Elec       q    Type
REMARK                         _______ _______ _______ _____ _____    ______ ____
ROOT
ATOM      1  C   UNL     1      46.005   3.003   7.493  0.00  0.00    +0.000 C 
ATOM      2  C   UNL     1      45.429   3.536   8.769  0.00  0.00    +0.000 A 
ATOM      3  C   UNL     1      44.730   2.730   9.627  0.00  0.00    +0.000 A 
ATOM      4  C   UNL     1      44.251   3.354  10.756  0.00  0.00    +0.000 A 
ATOM      5  N   UNL     1      44.426   4.669  11.046  0.00  0.00    +0.000 NA
ATOM      6  C   UNL     1      45.119   5.373  10.146  0.00  0.00    +0.000 A 
ATOM      7  N   UNL     1      45.313   6.730  10.286  0.00  0.00    +0.000 N 
ATOM      8  N   UNL     1      45.629   4.849   9.023  0.00  0.00    +0.000 NA
ATOM      9  H   UNL     1      46.048   7.008   9.647  0.00  0.00    +0.000 HD
ENDROOT
BRANCH   4  10
ATOM     10  C   UNL     1      43.478   2.546  11.749  0.00  0.00    +0.000 C 
ATOM     11  N   UNL     1      43.565   2.963  13.050  0.00  0.00    +0.000 N 
ATOM     12  O   UNL     1      42.801   1.575  11.430  0.00  0.00    +0.000 OA
ATOM     13  H   UNL     1      44.065   3.816  13.270  0.00  0.00    +0.000 HD
ATOM     14  H   UNL     1      43.013   2.494  13.755  0.00  0.00    +0.000 HD
ENDBRANCH   4  10
BRANCH   7  15
ATOM     15  C   UNL     1      45.346   7.323  11.599  0.00  0.00    +0.000 C 
BRANCH  15  16
ATOM     16  C   UNL     1      46.686   7.142  12.270  0.00  0.00    +0.000 A 
ATOM     17  C   UNL     1      47.858   7.681  11.737  0.00  0.00    +0.000 A 
ATOM     18  C   UNL     1      49.059   7.511  12.414  0.00  0.00    +0.000 A 
ATOM     19  F   UNL     1      50.181   8.046  11.910  0.00  0.00    +0.000 F 
ATOM     20  C   UNL     1      49.120   6.818  13.621  0.00  0.00    +0.000 A 
ATOM     21  C   UNL     1      47.970   6.263  14.191  0.00  0.00    +0.000 A 
ATOM     22  C   UNL     1      46.769   6.424  13.476  0.00  0.00    +0.000 A 
BRANCH  21  23
ATOM     23  N   UNL     1      47.992   5.578  15.384  0.00  0.00    +0.000 N 
ATOM     24  C   UNL     1      48.701   6.051  16.581  0.00  0.00    +0.000 C 
ATOM     25  C   UNL     1      49.482   4.871  17.189  0.00  0.00    +0.000 C 
ATOM     26  O   UNL     1      48.634   3.740  17.458  0.00  0.00    +0.000 OA
ATOM     27  C   UNL     1      47.993   3.293  16.250  0.00  0.00    +0.000 C 
ATOM     28  C   UNL     1      47.136   4.407  15.635  0.00  0.00    +0.000 C 
ENDBRANCH  21  23
ENDBRANCH  15  16
ENDBRANCH   7  15
TORSDOF 4
ENDMDL
MODEL 4
REMARK VINA RESULT:    -6.821      3.852      9.177
REMARK INTER + INTRA:          -8.913
REMARK INTER:                  -8.316
REMARK INTRA:                  -0.597
REMARK UNBOUND:                -0.497
REMARK  Name = 
REMARK  5 active torsions:
REMARK  status: ('A' for Active; 'I' for Inactive)
REMARK    1  A    between atoms: C_1  and  C_2
REMARK    2  A    between atoms: C_4  and  C_5
REMARK    3  A    between atoms: N_10  and  C_11
REMARK    4  A    between atoms: C_11  and  C_12
REMARK    5  A    between atoms: C_17  and  N_18
REMARK                            x       y       z     vdW  Elec       q    Type
REMARK                         _______ _______ _______ _____ _____    ______ ____
ROOT
ATOM      1  C   UNL     1      47.388   7.410  11.766  0.00  0.00    +0.000 C 
ATOM      2  C   UNL     1      46.895   6.214  12.522  0.00  0.00    +0.000 A 
ATOM      3  C   UNL     1      46.017   5.328  11.958  0.00  0.00    +0.000 A 
ATOM      4  C   UNL     1      45.641   4.280  12.768  0.00  0.00    +0.000 A 
ATOM      5  N   UNL     1      46.077   4.094  14.041  0.00  0.00    +0.000 NA
ATOM      6  C   UNL     1      46.929   5.014  14.503  0.00  0.00    +0.000 A 
ATOM      7  N   UNL     1      47.395   4.979  15.799  0.00  0.00    +0.000 N 
ATOM      8  N   UNL     1      47.354   6.062  13.784  0.00  0.00    +0.000 NA
ATOM      9  H   UNL     1      48.192   5.601  15.860  0.00  0.00    +0.000 HD
ENDROOT
BRANCH   4  10
ATOM     10  C   UNL     1      44.687   3.264  12.230  0.00  0.00    +0.000 C 
ATOM     11  N   UNL     1      44.934   2.835  10.954  0.00  0.00    +0.000 N 
ATOM     12  O   UNL     1      43.744   2.829  12.882  0.00  0.00    +0.000 OA
ATOM     13  H   UNL     1      45.767   3.151  10.472  0.00  0.00    +0.000 HD
ATOM     14  H   UNL     1      44.361   2.101  10.561  0.00  0.00    +0.000 HD
ENDBRANCH   4  10
BRANCH   7  15
ATOM     15  C   UNL     1      47.509   3.720  16.492  0.00  0.00    +0.000 C 
BRANCH  15  16
ATOM     16  C   UNL     1      48.917   3.461  16.970  0.00  0.00    +0.000 A 
ATOM     17  C   UNL     1      49.476   2.181  16.962  0.00  0.00    +0.000 A 
ATOM     18  C   UNL     1      50.788   2.006  17.382  0.00  0.00    +0.000 A 
ATOM     19  F   UNL     1      51.329   0.779  17.356  0.00  0.00    +0.000 F 
ATOM     20  C   UNL     1      51.564   3.083  17.807  0.00  0.00    +0.000 A 
ATOM     21  C   UNL     1      51.045   4.380  17.829  0.00  0.00    +0.000 A 
ATOM     22  C   UNL     1      49.705   4.532  17.424  0.00  0.00    +0.000 A 
BRANCH  21  23
ATOM     23  N   UNL     1      51.784   5.467  18.236  0.00  0.00    +0.000 N 
ATOM     24  C   UNL     1      53.252   5.477  18.292  0.00  0.00    +0.000 C 
ATOM     25  C   UNL     1      53.690   6.106  19.628  0.00  0.00    +0.000 C 
ATOM     26  O   UNL     1      53.118   7.412  19.826  0.00  0.00    +0.000 OA
ATOM     27  C   UNL     1      51.681   7.341  19.800  0.00  0.00    +0.000 C 
ATOM     28  C   UNL     1      51.180   6.790  18.459  0.00  0.00    +0.000 C 
ENDBRANCH  21  23
ENDBRANCH  15  16
ENDBRANCH   7  15
TORSDOF 4
ENDMDL
MODEL 5
REMARK VINA RESULT:    -6.713      4.752      7.596
REMARK INTER + INTRA:          -8.779
REMARK INTER:                  -8.049
REMARK INTRA:                  -0.730
REMARK UNBOUND:                -0.497
REMARK  Name = 
REMARK  5 active torsions:
REMARK  status: ('A' for Active; 'I' for Inactive)
REMARK    1  A    between atoms: C_1  and  C_2
REMARK    2  A    between atoms: C_4  and  C_5
REMARK    3  A    between atoms: N_10  and  C_11
REMARK    4  A    between atoms: C_11  and  C_12
REMARK    5  A    between atoms: C_17  and  N_18
REMARK                            x       y       z     vdW  Elec       q    Type
REMARK                         _______ _______ _______ _____ _____    ______ ____
ROOT
ATOM      1  C   UNL     1      45.946   3.390   7.597  0.00  0.00    +0.000 C 
ATOM      2  C   UNL     1      45.407   3.877   8.907  0.00  0.00    +0.000 A 
ATOM      3  C   UNL     1      44.711   3.047   9.744  0.00  0.00    +0.000 A 
ATOM      4  C   UNL     1      44.267   3.629  10.909  0.00  0.00    +0.000 A 
ATOM      5  N   UNL     1      44.472   4.927  11.251  0.00  0.00    +0.000 NA
ATOM      6  C   UNL     1      45.157   5.658  10.366  0.00  0.00    +0.000 A 
ATOM      7  N   UNL     1      45.378   7.004  10.560  0.00  0.00    +0.000 N 
ATOM      8  N   UNL     1      45.635   5.174   9.211  0.00  0.00    +0.000 NA
ATOM      9  H   UNL     1      46.105   7.297   9.918  0.00  0.00    +0.000 HD
ENDROOT
BRANCH   4  10
ATOM     10  C   UNL     1      43.501   2.791  11.882  0.00  0.00    +0.000 C 
ATOM     11  N   UNL     1      43.569   3.191  13.190  0.00  0.00    +0.000 N 
ATOM     12  O   UNL     1      42.845   1.813  11.543  0.00  0.00    +0.000 OA
ATOM     13  H   UNL     1      44.051   4.050  13.427  0.00  0.00    +0.000 HD
ATOM     14  H   UNL     1      43.020   2.702  13.884  0.00  0.00    +0.000 HD
ENDBRANCH   4  10
BRANCH   7  15
ATOM     15  C   UNL     1      45.449   7.539  11.897  0.00  0.00    +0.000 C 
BRANCH  15  16
ATOM     16  C   UNL     1      46.839   7.434  12.477  0.00  0.00    +0.000 A 
ATOM     17  C   UNL     1      47.093   6.749  13.666  0.00  0.00    +0.000 A 
ATOM     18  C   UNL     1      48.397   6.656  14.136  0.00  0.00    +0.000 A 
ATOM     19  F   UNL     1      48.642   5.981  15.269  0.00  0.00    +0.000 F 
ATOM     20  C   UNL     1      49.462   7.229  13.442  0.00  0.00    +0.000 A 
ATOM     21  C   UNL     1      49.251   7.923  12.247  0.00  0.00    +0.000 A 
ATOM     22  C   UNL     1      47.920   8.027  11.802  0.00  0.00    +0.000 A 
BRANCH  21  23
ATOM     23  N   UNL     1      50.278   8.495  11.532  0.00  0.00    +0.000 N 
ATOM     24  C   UNL     1      51.299   7.720  10.814  0.00  0.00    +0.000 C 
ATOM     25  C   UNL     1      52.682   8.327  11.117  0.00  0.00    +0.000 C 
ATOM     26  O   UNL     1      52.736   9.733  10.812  0.00  0.00    +0.000 OA
ATOM     27  C   UNL     1      51.743  10.450  11.567  0.00  0.00    +0.000 C 
ATOM     28  C   UNL     1      50.333   9.938  11.250  0.00  0.00    +0.000 C 
ENDBRANCH  21  23
ENDBRANCH  15  16
ENDBRANCH   7  15
TORSDOF 4
ENDMDL
MODEL 6
REMARK VINA RESULT:    -6.448      3.692      8.742
REMARK INTER + INTRA:          -8.453
REMARK INTER:                  -7.894
REMARK INTRA:                  -0.559
REMARK UNBOUND:                -0.497
REMARK  Name = 
REMARK  5 active torsions:
REMARK  status: ('A' for Active; 'I' for Inactive)
REMARK    1  A    between atoms: C_1  and  C_2
REMARK    2  A    between atoms: C_4  and  C_5
REMARK    3  A    between atoms: N_10  and  C_11
REMARK    4  A    between atoms: C_11  and  C_12
REMARK    5  A    between atoms: C_17  and  N_18
REMARK                            x       y       z     vdW  Elec       q    Type
REMARK                         _______ _______ _______ _____ _____    ______ ____
ROOT
ATOM      1  C   UNL     1      44.579   2.817  10.454  0.00  0.00    +0.000 C 
ATOM      2  C   UNL     1      45.041   3.793  11.492  0.00  0.00    +0.000 A 
ATOM      3  C   UNL     1      44.827   5.137  11.352  0.00  0.00    +0.000 A 
ATOM      4  C   UNL     1      45.311   5.918  12.377  0.00  0.00    +0.000 A 
ATOM      5  N   UNL     1      45.965   5.441  13.467  0.00  0.00    +0.000 NA
ATOM      6  C   UNL     1      46.129   4.115  13.512  0.00  0.00    +0.000 A 
ATOM      7  N   UNL     1      46.832   3.510  14.530  0.00  0.00    +0.000 N 
ATOM      8  N   UNL     1      45.684   3.278  12.564  0.00  0.00    +0.000 NA
ATOM      9  H   UNL     1      46.627   2.518  14.503  0.00  0.00    +0.000 HD
ENDROOT
BRANCH   4  10
ATOM     10  C   UNL     1      45.117   7.398  12.305  0.00  0.00    +0.000 C 
ATOM     11  N   UNL     1      44.218   7.834  11.368  0.00  0.00    +0.000 N 
ATOM     12  O   UNL     1      45.712   8.181  13.036  0.00  0.00    +0.000 OA
ATOM     13  H   UNL     1      43.682   7.158  10.837  0.00  0.00    +0.000 HD
ATOM     14  H   UNL     1      43.997   8.818  11.318  0.00  0.00    +0.000 HD
ENDBRANCH   4  10
BRANCH   7  15
ATOM     15  C   UNL     1      46.881   4.119  15.835  0.00  0.00    +0.000 C 
BRANCH  15  16
ATOM     16  C   UNL     1      48.216   3.910  16.509  0.00  0.00    +0.000 A 
ATOM     17  C   UNL     1      48.756   2.637  16.700  0.00  0.00    +0.000 A 
ATOM     18  C   UNL     1      50.004   2.505  17.296  0.00  0.00    +0.000 A 
ATOM     19  F   UNL     1      50.529   1.283  17.462  0.00  0.00    +0.000 F 
ATOM     20  C   UNL     1      50.735   3.620  17.703  0.00  0.00    +0.000 A 
ATOM     21  C   UNL     1      50.232   4.913  17.529  0.00  0.00    +0.000 A 
ATOM     22  C   UNL     1      48.955   5.022  16.946  0.00  0.00    +0.000 A 
BRANCH  21  23
ATOM     23  N   UNL     1      50.929   6.036  17.912  0.00  0.00    +0.000 N 
ATOM     24  C   UNL     1      52.213   5.992  18.623  0.00  0.00    +0.000 C 
ATOM     25  C   UNL     1      52.169   7.005  19.784  0.00  0.00    +0.000 C 
ATOM     26  O   UNL     1      51.828   8.329  19.334  0.00  0.00    +0.000 OA
ATOM     27  C   UNL     1      50.547   8.324  18.679  0.00  0.00    +0.000 C 
ATOM     28  C   UNL     1      50.552   7.387  17.465  0.00  0.00    +0.000 C 
ENDBRANCH  21  23
ENDBRANCH  15  16
ENDBRANCH   7  15
TORSDOF 4
ENDMDL
MODEL 7
REMARK VINA RESULT:    -6.330      3.659      4.210
REMARK INTER + INTRA:          -8.307
REMARK INTER:                  -7.740
REMARK INTRA:                  -0.567
REMARK UNBOUND:                -0.497
REMARK  Name = 
REMARK  5 active torsions:
REMARK  status: ('A' for Active; 'I' for Inactive)
REMARK    1  A    between atoms: C_1  and  C_2
REMARK    2  A    between atoms: C_4  and  C_5
REMARK    3  A    between atoms: N_10  and  C_11
REMARK    4  A    between atoms: C_11  and  C_12
REMARK    5  A    between atoms: C_17  and  N_18
REMARK                            x       y       z     vdW  Elec       q    Type
REMARK                         _______ _______ _______ _____ _____    ______ ____
ROOT
ATOM      1  C   UNL     1      52.301   8.563  11.021  0.00  0.00    +0.000 C 
ATOM      2  C   UNL     1      51.164   8.337  11.970  0.00  0.00    +0.000 A 
ATOM      3  C   UNL     1      51.319   8.505  13.320  0.00  0.00    +0.000 A 
ATOM      4  C   UNL     1      50.195   8.256  14.074  0.00  0.00    +0.000 A 
ATOM      5  N   UNL     1      48.997   7.866  13.568  0.00  0.00    +0.000 NA
ATOM      6  C   UNL     1      48.946   7.725  12.240  0.00  0.00    +0.000 A 
ATOM      7  N   UNL     1      47.811   7.272  11.606  0.00  0.00    +0.000 N 
ATOM      8  N   UNL     1      49.987   7.953  11.427  0.00  0.00    +0.000 NA
ATOM      9  H   UNL     1      47.905   7.472  10.617  0.00  0.00    +0.000 HD
ENDROOT
BRANCH   4  10
ATOM     10  C   UNL     1      50.276   8.419  15.558  0.00  0.00    +0.000 C 
ATOM     11  N   UNL     1      49.113   8.192  16.244  0.00  0.00    +0.000 N 
ATOM     12  O   UNL     1      51.312   8.728  16.135  0.00  0.00    +0.000 OA
ATOM     13  H   UNL     1      48.296   7.858  15.747  0.00  0.00    +0.000 HD
ATOM     14  H   UNL     1      49.123   8.225  17.254  0.00  0.00    +0.000 HD
ENDBRANCH   4  10
BRANCH   7  15
ATOM     15  C   UNL     1      46.514   7.511  12.188  0.00  0.00    +0.000 C 
BRANCH  15  16
ATOM     16  C   UNL     1      45.568   6.356  11.960  0.00  0.00    +0.000 A 
ATOM     17  C   UNL     1      44.520   6.075  12.838  0.00  0.00    +0.000 A 
ATOM     18  C   UNL     1      43.660   5.020  12.561  0.00  0.00    +0.000 A 
ATOM     19  F   UNL     1      42.643   4.763  13.396  0.00  0.00    +0.000 F 
ATOM     20  C   UNL     1      43.816   4.238  11.418  0.00  0.00    +0.000 A 
ATOM     21  C   UNL     1      44.851   4.486  10.512  0.00  0.00    +0.000 A 
ATOM     22  C   UNL     1      45.726   5.543  10.825  0.00  0.00    +0.000 A 
BRANCH  21  23
ATOM     23  N   UNL     1      45.031   3.738   9.371  0.00  0.00    +0.000 N 
ATOM     24  C   UNL     1      44.629   2.330   9.250  0.00  0.00    +0.000 C 
ATOM     25  C   UNL     1      45.777   1.546   8.585  0.00  0.00    +0.000 C 
ATOM     26  O   UNL     1      46.169   2.122   7.325  0.00  0.00    +0.000 OA
ATOM     27  C   UNL     1      46.587   3.487   7.504  0.00  0.00    +0.000 C 
ATOM     28  C   UNL     1      45.457   4.338   8.096  0.00  0.00    +0.000 C 
ENDBRANCH  21  23
ENDBRANCH  15  16
ENDBRANCH   7  15
TORSDOF 4
ENDMDL
MODEL 8
REMARK VINA RESULT:    -6.238      3.718      4.701
REMARK INTER + INTRA:          -8.194
REMARK INTER:                  -7.625
REMARK INTRA:                  -0.569
REMARK UNBOUND:                -0.497
REMARK  Name = 
REMARK  5 active torsions:
REMARK  status: ('A' for Active; 'I' for Inactive)
REMARK    1  A    between atoms: C_1  and  C_2
REMARK    2  A    between atoms: C_4  and  C_5
REMARK    3  A    between atoms: N_10  and  C_11
REMARK    4  A    between atoms: C_11  and  C_12
REMARK    5  A    between atoms: C_17  and  N_18
REMARK                            x       y       z     vdW  Elec       q    Type
REMARK                         _______ _______ _______ _____ _____    ______ ____
ROOT
ATOM      1  C   UNL     1      49.172  10.692  15.818  0.00  0.00    +0.000 C 
ATOM      2  C   UNL     1      49.197   9.594  14.798  0.00  0.00    +0.000 A 
ATOM      3  C   UNL     1      50.223   9.479  13.900  0.00  0.00    +0.000 A 
ATOM      4  C   UNL     1      50.112   8.430  13.016  0.00  0.00    +0.000 A 
ATOM      5  N   UNL     1      49.081   7.547  12.990  0.00  0.00    +0.000 NA
ATOM      6  C   UNL     1      48.125   7.745  13.904  0.00  0.00    +0.000 A 
ATOM      7  N   UNL     1      46.993   6.962  13.945  0.00  0.00    +0.000 N 
ATOM      8  N   UNL     1      48.154   8.734  14.808  0.00  0.00    +0.000 NA
ATOM      9  H   UNL     1      46.538   7.117  14.836  0.00  0.00    +0.000 HD
ENDROOT
BRANCH   4  10
ATOM     10  C   UNL     1      51.192   8.229  12.002  0.00  0.00    +0.000 C 
ATOM     11  N   UNL     1      50.970   7.235  11.088  0.00  0.00    +0.000 N 
ATOM     12  O   UNL     1      52.212   8.908  11.976  0.00  0.00    +0.000 OA
ATOM     13  H   UNL     1      50.082   6.747  11.084  0.00  0.00    +0.000 HD
ATOM     14  H   UNL     1      51.635   7.096  10.340  0.00  0.00    +0.000 HD
ENDBRANCH   4  10
BRANCH   7  15
ATOM     15  C   UNL     1      47.041   5.599  13.477  0.00  0.00    +0.000 C 
BRANCH  15  16
ATOM     16  C   UNL     1      45.805   5.224  12.695  0.00  0.00    +0.000 A 
ATOM     17  C   UNL     1      44.521   5.534  13.149  0.00  0.00    +0.000 A 
ATOM     18  C   UNL     1      43.421   5.194  12.372  0.00  0.00    +0.000 A 
ATOM     19  F   UNL     1      42.190   5.509  12.800  0.00  0.00    +0.000 F 
ATOM     20  C   UNL     1      43.570   4.553  11.143  0.00  0.00    +0.000 A 
ATOM     21  C   UNL     1      44.837   4.226  10.651  0.00  0.00    +0.000 A 
ATOM     22  C   UNL     1      45.937   4.557  11.466  0.00  0.00    +0.000 A 
BRANCH  21  23
ATOM     23  N   UNL     1      45.022   3.600   9.440  0.00  0.00    +0.000 N 
ATOM     24  C   UNL     1      44.684   2.192   9.193  0.00  0.00    +0.000 C 
ATOM     25  C   UNL     1      45.850   1.532   8.431  0.00  0.00    +0.000 C 
ATOM     26  O   UNL     1      46.181   2.244   7.225  0.00  0.00    +0.000 OA
ATOM     27  C   UNL     1      46.539   3.605   7.525  0.00  0.00    +0.000 C 
ATOM     28  C   UNL     1      45.386   4.338   8.220  0.00  0.00    +0.000 C 
ENDBRANCH  21  23
ENDBRANCH  15  16
ENDBRANCH   7  15
TORSDOF 4
ENDMDL
MODEL 9
REMARK VINA RESULT:    -6.002      2.826      4.188
REMARK INTER + INTRA:          -7.903
REMARK INTER:                  -7.423
REMARK INTRA:                  -0.480
REMARK UNBOUND:                -0.497
REMARK  Name = 
REMARK  5 active torsions:
REMARK  status: ('A' for Active; 'I' for Inactive)
REMARK    1  A    between atoms: C_1  and  C_2
REMARK    2  A    between atoms: C_4  and  C_5
REMARK    3  A    between atoms: N_10  and  C_11
REMARK    4  A    between atoms: C_11  and  C_12
REMARK    5  A    between atoms: C_17  and  N_18
REMARK                            x       y       z     vdW  Elec       q    Type
REMARK                         _______ _______ _______ _____ _____    ______ ____
ROOT
ATOM      1  C   UNL     1      47.530   6.601  21.139  0.00  0.00    +0.000 C 
ATOM      2  C   UNL     1      48.355   6.110  19.988  0.00  0.00    +0.000 A 
ATOM      3  C   UNL     1      49.581   5.534  20.186  0.00  0.00    +0.000 A 
ATOM      4  C   UNL     1      50.232   5.137  19.040  0.00  0.00    +0.000 A 
ATOM      5  N   UNL     1      49.742   5.285  17.782  0.00  0.00    +0.000 NA
ATOM      6  C   UNL     1      48.540   5.863  17.693  0.00  0.00    +0.000 A 
ATOM      7  N   UNL     1      47.958   6.132  16.474  0.00  0.00    +0.000 N 
ATOM      8  N   UNL     1      47.830   6.273  18.753  0.00  0.00    +0.000 NA
ATOM      9  H   UNL     1      46.978   6.333  16.633  0.00  0.00    +0.000 HD
ENDROOT
BRANCH   4  10
ATOM     10  C   UNL     1      51.576   4.495  19.165  0.00  0.00    +0.000 C 
ATOM     11  N   UNL     1      52.090   3.965  18.012  0.00  0.00    +0.000 N 
ATOM     12  O   UNL     1      52.192   4.445  20.224  0.00  0.00    +0.000 OA
ATOM     13  H   UNL     1      51.595   4.095  17.137  0.00  0.00    +0.000 HD
ATOM     14  H   UNL     1      53.022   3.576  18.021  0.00  0.00    +0.000 HD
ENDBRANCH   4  10
BRANCH   7  15
ATOM     15  C   UNL     1      48.266   5.311  15.329  0.00  0.00    +0.000 C 
BRANCH  15  16
ATOM     16  C   UNL     1      47.628   5.836  14.066  0.00  0.00    +0.000 A 
ATOM     17  C   UNL     1      48.075   7.002  13.443  0.00  0.00    +0.000 A 
ATOM     18  C   UNL     1      47.472   7.422  12.263  0.00  0.00    +0.000 A 
ATOM     19  F   UNL     1      47.915   8.532  11.656  0.00  0.00    +0.000 F 
ATOM     20  C   UNL     1      46.432   6.698  11.683  0.00  0.00    +0.000 A 
ATOM     21  C   UNL     1      45.955   5.524  12.273  0.00  0.00    +0.000 A 
ATOM     22  C   UNL     1      46.563   5.131  13.481  0.00  0.00    +0.000 A 
BRANCH  21  23
ATOM     23  N   UNL     1      44.935   4.781  11.725  0.00  0.00    +0.000 N 
ATOM     24  C   UNL     1      43.757   4.335  12.481  0.00  0.00    +0.000 C 
ATOM     25  C   UNL     1      43.493   2.853  12.152  0.00  0.00    +0.000 C 
ATOM     26  O   UNL     1      43.362   2.627  10.737  0.00  0.00    +0.000 OA
ATOM     27  C   UNL     1      44.553   3.045  10.048  0.00  0.00    +0.000 C 
ATOM     28  C   UNL     1      44.829   4.536  10.278  0.00  0.00    +0.000 C 
ENDBRANCH  21  23
ENDBRANCH  15  16
ENDBRANCH   7  15
TORSDOF 4
ENDMDL
