MODEL 1
REMARK VINA RESULT:    -7.017      0.000      0.000
REMARK INTER + INTRA:         -10.237
REMARK INTER:                  -9.273
REMARK INTRA:                  -0.964
REMARK UNBOUND:                -0.964
REMARK  Name = 
REMARK  7 active torsions:
REMARK  status: ('A' for Active; 'I' for Inactive)
REMARK    1  A    between atoms: C_1  and  O_2
REMARK    2  A    between atoms: O_2  and  C_3
REMARK    3  A    between atoms: C_5  and  C_6
REMARK    4  A    between atoms: C_6  and  N_7
REMARK    5  A    between atoms: C_12  and  C_13
REMARK    6  A    between atoms: C_22  and  C_23
REMARK    7  A    between atoms: C_23  and  N_24
REMARK                            x       y       z     vdW  Elec       q    Type
REMARK                         _______ _______ _______ _____ _____    ______ ____
ROOT
ATOM      1  N   UNL     1      45.153   3.876  11.839  0.00  0.00    +0.000 N 
ATOM      2  C   UNL     1      45.892   3.021  12.626  0.00  0.00    +0.000 A 
ATOM      3  C   UNL     1      46.701   3.773  13.439  0.00  0.00    +0.000 A 
ATOM      4  C   UNL     1      46.445   5.139  13.153  0.00  0.00    +0.000 A 
ATOM      5  C   UNL     1      46.993   6.336  13.669  0.00  0.00    +0.000 A 
ATOM      6  C   UNL     1      46.532   7.574  13.208  0.00  0.00    +0.000 A 
ATOM      7  C   UNL     1      45.503   7.611  12.264  0.00  0.00    +0.000 A 
ATOM      8  C   UNL     1      44.938   6.440  11.742  0.00  0.00    +0.000 A 
ATOM      9 CL   UNL     1      43.631   6.617  10.637  0.00  0.00    +0.000 Cl
ATOM     10  C   UNL     1      45.439   5.195  12.173  0.00  0.00    +0.000 A 
ENDROOT
BRANCH   6  11
ATOM     11  C   UNL     1      47.081   8.879  13.680  0.00  0.00    +0.000 C 
ATOM     12  N   UNL     1      47.422   9.015  14.993  0.00  0.00    +0.000 N 
ATOM     13  O   UNL     1      47.237   9.819  12.910  0.00  0.00    +0.000 OA
ATOM     14  H   UNL     1      47.358   8.299  15.697  0.00  0.00    +0.000 HD
ATOM     15  H   UNL     1      47.812   9.910  15.269  0.00  0.00    +0.000 HD
ENDBRANCH   6  11
BRANCH   1  16
ATOM     16  C   UNL     1      44.275   3.383  10.774  0.00  0.00    +0.000 C 
BRANCH  16  19
ATOM     17  C   UNL     1      46.370   1.886   7.935  0.00  0.00    +0.000 A 
ATOM     18  C   UNL     1      45.699   2.012   9.152  0.00  0.00    +0.000 A 
ATOM     19  C   UNL     1      44.980   3.173   9.460  0.00  0.00    +0.000 A 
ATOM     20  C   UNL     1      44.904   4.142   8.467  0.00  0.00    +0.000 A 
ATOM     21  N   UNL     1      45.525   4.058   7.270  0.00  0.00    +0.000 NA
ATOM     22  C   UNL     1      46.292   2.953   7.032  0.00  0.00    +0.000 A 
BRANCH  17  24
ATOM     23  C   UNL     1      46.465  -0.469   7.596  0.00  0.00    +0.000 C 
ATOM     24  O   UNL     1      47.121   0.798   7.578  0.00  0.00    +0.000 OA
ENDBRANCH  17  24
BRANCH  22  25
ATOM     25  C   UNL     1      46.998   2.881   5.687  0.00  0.00    +0.000 C 
BRANCH  25  26
ATOM     26  N   UNL     1      48.423   2.534   5.798  0.00  0.00    +0.000 NA
ATOM     27  H   UNL     1      48.634   2.487   6.797  0.00  0.00    +0.000 HD
ATOM     28  H   UNL     1      48.980   3.288   5.408  0.00  0.00    +0.000 HD
ENDBRANCH  25  26
ENDBRANCH  22  25
ENDBRANCH  16  19
ENDBRANCH   1  16
TORSDOF 6
ENDMDL
MODEL 2
REMARK VINA RESULT:    -6.387      1.882      6.953
REMARK INTER + INTRA:          -9.404
REMARK INTER:                  -8.668
REMARK INTRA:                  -0.736
REMARK UNBOUND:                -0.964
REMARK  Name = 
REMARK  7 active torsions:
REMARK  status: ('A' for Active; 'I' for Inactive)
REMARK    1  A    between atoms: C_1  and  O_2
REMARK    2  A    between atoms: O_2  and  C_3
REMARK    3  A    between atoms: C_5  and  C_6
REMARK    4  A    between atoms: C_6  and  N_7
REMARK    5  A    between atoms: C_12  and  C_13
REMARK    6  A    between atoms: C_22  and  C_23
REMARK    7  A    between atoms: C_23  and  N_24
REMARK                            x       y       z     vdW  Elec       q    Type
REMARK                         _______ _______ _______ _____ _____    ______ ____
ROOT
ATOM      1  N   UNL     1      44.192   4.268  11.057  0.00  0.00    +0.000 N 
ATOM      2  C   UNL     1      43.511   3.152  11.493  0.00  0.00    +0.000 A 
ATOM      3  C   UNL     1      43.776   2.119  10.631  0.00  0.00    +0.000 A 
ATOM      4  C   UNL     1      44.660   2.609   9.635  0.00  0.00    +0.000 A 
ATOM      5  C   UNL     1      45.245   1.998   8.501  0.00  0.00    +0.000 A 
ATOM      6  C   UNL     1      46.113   2.729   7.681  0.00  0.00    +0.000 A 
ATOM      7  C   UNL     1      46.420   4.049   8.017  0.00  0.00    +0.000 A 
ATOM      8  C   UNL     1      45.860   4.675   9.139  0.00  0.00    +0.000 A 
ATOM      9 CL   UNL     1      46.370   6.282   9.484  0.00  0.00    +0.000 Cl
ATOM     10  C   UNL     1      44.948   3.951   9.935  0.00  0.00    +0.000 A 
ENDROOT
BRANCH   6  11
ATOM     11  C   UNL     1      46.744   2.165   6.453  0.00  0.00    +0.000 C 
ATOM     12  N   UNL     1      46.912   2.974   5.367  0.00  0.00    +0.000 N 
ATOM     13  O   UNL     1      47.118   1.000   6.407  0.00  0.00    +0.000 OA
ATOM     14  H   UNL     1      46.664   3.947   5.312  0.00  0.00    +0.000 HD
ATOM     15  H   UNL     1      47.365   2.559   4.560  0.00  0.00    +0.000 HD
ENDBRANCH   6  11
BRANCH   1  16
ATOM     16  C   UNL     1      44.023   5.577  11.696  0.00  0.00    +0.000 C 
BRANCH  16  19
ATOM     17  C   UNL     1      47.118   5.615  13.956  0.00  0.00    +0.000 A 
ATOM     18  C   UNL     1      46.037   5.143  13.209  0.00  0.00    +0.000 A 
ATOM     19  C   UNL     1      45.227   6.022  12.482  0.00  0.00    +0.000 A 
ATOM     20  C   UNL     1      45.604   7.360  12.477  0.00  0.00    +0.000 A 
ATOM     21  N   UNL     1      46.649   7.861  13.173  0.00  0.00    +0.000 NA
ATOM     22  C   UNL     1      47.368   6.992  13.944  0.00  0.00    +0.000 A 
BRANCH  17  24
ATOM     23  C   UNL     1      47.339   4.200  15.858  0.00  0.00    +0.000 C 
ATOM     24  O   UNL     1      47.933   4.823  14.719  0.00  0.00    +0.000 OA
ENDBRANCH  17  24
BRANCH  22  25
ATOM     25  C   UNL     1      48.530   7.574  14.734  0.00  0.00    +0.000 C 
BRANCH  25  26
ATOM     26  N   UNL     1      49.834   7.016  14.344  0.00  0.00    +0.000 NA
ATOM     27  H   UNL     1      50.544   7.601  14.787  0.00  0.00    +0.000 HD
ATOM     28  H   UNL     1      49.949   7.112  13.339  0.00  0.00    +0.000 HD
ENDBRANCH  25  26
ENDBRANCH  22  25
ENDBRANCH  16  19
ENDBRANCH   1  16
TORSDOF 6
ENDMDL
MODEL 3
REMARK VINA RESULT:    -6.087      1.565      7.167
REMARK INTER + INTRA:          -9.008
REMARK INTER:                  -8.398
REMARK INTRA:                  -0.611
REMARK UNBOUND:                -0.964
REMARK  Name = 
REMARK  7 active torsions:
REMARK  status: ('A' for Active; 'I' for Inactive)
REMARK    1  A    between atoms: C_1  and  O_2
REMARK    2  A    between atoms: O_2  and  C_3
REMARK    3  A    between atoms: C_5  and  C_6
REMARK    4  A    between atoms: C_6  and  N_7
REMARK    5  A    between atoms: C_12  and  C_13
REMARK    6  A    between atoms: C_22  and  C_23
REMARK    7  A    between atoms: C_23  and  N_24
REMARK                            x       y       z     vdW  Elec       q    Type
REMARK                         _______ _______ _______ _____ _____    ______ ____
ROOT
ATOM      1  N   UNL     1      44.152   4.241  11.042  0.00  0.00    +0.000 N 
ATOM      2  C   UNL     1      43.484   3.114  11.467  0.00  0.00    +0.000 A 
ATOM      3  C   UNL     1      43.770   2.090  10.601  0.00  0.00    +0.000 A 
ATOM      4  C   UNL     1      44.654   2.598   9.614  0.00  0.00    +0.000 A 
ATOM      5  C   UNL     1      45.256   2.002   8.482  0.00  0.00    +0.000 A 
ATOM      6  C   UNL     1      46.120   2.750   7.673  0.00  0.00    +0.000 A 
ATOM      7  C   UNL     1      46.406   4.072   8.019  0.00  0.00    +0.000 A 
ATOM      8  C   UNL     1      45.829   4.683   9.140  0.00  0.00    +0.000 A 
ATOM      9 CL   UNL     1      46.314   6.295   9.499  0.00  0.00    +0.000 Cl
ATOM     10  C   UNL     1      44.922   3.942   9.924  0.00  0.00    +0.000 A 
ENDROOT
BRANCH   6  11
ATOM     11  C   UNL     1      46.768   2.203   6.446  0.00  0.00    +0.000 C 
ATOM     12  N   UNL     1      46.971   3.032   5.381  0.00  0.00    +0.000 N 
ATOM     13  O   UNL     1      47.126   1.033   6.383  0.00  0.00    +0.000 OA
ATOM     14  H   UNL     1      46.739   4.009   5.342  0.00  0.00    +0.000 HD
ATOM     15  H   UNL     1      47.435   2.627   4.575  0.00  0.00    +0.000 HD
ENDBRANCH   6  11
BRANCH   1  16
ATOM     16  C   UNL     1      43.960   5.543  11.688  0.00  0.00    +0.000 C 
BRANCH  16  19
ATOM     17  C   UNL     1      46.687   7.701  13.301  0.00  0.00    +0.000 A 
ATOM     18  C   UNL     1      45.550   7.337  12.577  0.00  0.00    +0.000 A 
ATOM     19  C   UNL     1      45.150   5.999  12.490  0.00  0.00    +0.000 A 
ATOM     20  C   UNL     1      45.887   5.078  13.225  0.00  0.00    +0.000 A 
ATOM     21  N   UNL     1      46.985   5.384  13.950  0.00  0.00    +0.000 NA
ATOM     22  C   UNL     1      47.404   6.685  13.943  0.00  0.00    +0.000 A 
BRANCH  17  24
ATOM     23  C   UNL     1      47.700   9.561  12.213  0.00  0.00    +0.000 C 
ATOM     24  O   UNL     1      47.161   8.981  13.401  0.00  0.00    +0.000 OA
ENDBRANCH  17  24
BRANCH  22  25
ATOM     25  C   UNL     1      48.651   7.011  14.751  0.00  0.00    +0.000 C 
BRANCH  25  26
ATOM     26  N   UNL     1      49.870   7.086  13.931  0.00  0.00    +0.000 NA
ATOM     27  H   UNL     1      50.554   7.612  14.478  0.00  0.00    +0.000 HD
ATOM     28  H   UNL     1      49.674   7.627  13.094  0.00  0.00    +0.000 HD
ENDBRANCH  25  26
ENDBRANCH  22  25
ENDBRANCH  16  19
ENDBRANCH   1  16
TORSDOF 6
ENDMDL
MODEL 4
REMARK VINA RESULT:    -5.604      4.632      8.549
REMARK INTER + INTRA:          -8.370
REMARK INTER:                  -7.556
REMARK INTRA:                  -0.814
REMARK UNBOUND:                -0.964
REMARK  Name = 
REMARK  7 active torsions:
REMARK  status: ('A' for Active; 'I' for Inactive)
REMARK    1  A    between atoms: C_1  and  O_2
REMARK    2  A    between atoms: O_2  and  C_3
REMARK    3  A    between atoms: C_5  and  C_6
REMARK    4  A    between atoms: C_6  and  N_7
REMARK    5  A    between atoms: C_12  and  C_13
REMARK    6  A    between atoms: C_22  and  C_23
REMARK    7  A    between atoms: C_23  and  N_24
REMARK                            x       y       z     vdW  Elec       q    Type
REMARK                         _______ _______ _______ _____ _____    ______ ____
ROOT
ATOM      1  N   UNL     1      47.945   7.514  13.881  0.00  0.00    +0.000 N 
ATOM      2  C   UNL     1      47.898   8.859  13.587  0.00  0.00    +0.000 A 
ATOM      3  C   UNL     1      46.775   9.099  12.839  0.00  0.00    +0.000 A 
ATOM      4  C   UNL     1      46.097   7.863  12.674  0.00  0.00    +0.000 A 
ATOM      5  C   UNL     1      44.910   7.515  11.990  0.00  0.00    +0.000 A 
ATOM      6  C   UNL     1      44.454   6.192  12.007  0.00  0.00    +0.000 A 
ATOM      7  C   UNL     1      45.163   5.234  12.736  0.00  0.00    +0.000 A 
ATOM      8  C   UNL     1      46.337   5.555  13.429  0.00  0.00    +0.000 A 
ATOM      9 CL   UNL     1      47.081   4.303  14.346  0.00  0.00    +0.000 Cl
ATOM     10  C   UNL     1      46.821   6.878  13.369  0.00  0.00    +0.000 A 
ENDROOT
BRANCH   6  11
ATOM     11  C   UNL     1      43.230   5.740  11.284  0.00  0.00    +0.000 C 
ATOM     12  N   UNL     1      42.010   6.161  11.725  0.00  0.00    +0.000 N 
ATOM     13  O   UNL     1      43.303   5.010  10.303  0.00  0.00    +0.000 OA
ATOM     14  H   UNL     1      41.844   6.779  12.501  0.00  0.00    +0.000 HD
ATOM     15  H   UNL     1      41.204   5.849  11.193  0.00  0.00    +0.000 HD
ENDBRANCH   6  11
BRANCH   1  16
ATOM     16  C   UNL     1      49.091   6.912  14.570  0.00  0.00    +0.000 C 
BRANCH  16  19
ATOM     17  C   UNL     1      48.876   5.537  18.142  0.00  0.00    +0.000 A 
ATOM     18  C   UNL     1      49.104   5.603  16.766  0.00  0.00    +0.000 A 
ATOM     19  C   UNL     1      48.903   6.794  16.060  0.00  0.00    +0.000 A 
ATOM     20  C   UNL     1      48.552   7.912  16.807  0.00  0.00    +0.000 A 
ATOM     21  N   UNL     1      48.333   7.900  18.140  0.00  0.00    +0.000 NA
ATOM     22  C   UNL     1      48.450   6.703  18.789  0.00  0.00    +0.000 A 
BRANCH  17  24
ATOM     23  C   UNL     1      48.436   3.208  18.366  0.00  0.00    +0.000 C 
ATOM     24  O   UNL     1      49.015   4.401  18.893  0.00  0.00    +0.000 OA
ENDBRANCH  17  24
BRANCH  22  25
ATOM     25  C   UNL     1      48.184   6.703  20.286  0.00  0.00    +0.000 C 
BRANCH  25  26
ATOM     26  N   UNL     1      47.098   5.793  20.683  0.00  0.00    +0.000 NA
ATOM     27  H   UNL     1      47.092   5.777  21.705  0.00  0.00    +0.000 HD
ATOM     28  H   UNL     1      47.320   4.853  20.369  0.00  0.00    +0.000 HD
ENDBRANCH  25  26
ENDBRANCH  22  25
ENDBRANCH  16  19
ENDBRANCH   1  16
TORSDOF 6
ENDMDL
MODEL 5
REMARK VINA RESULT:    -5.482      3.595      7.141
REMARK INTER + INTRA:          -8.209
REMARK INTER:                  -7.634
REMARK INTRA:                  -0.574
REMARK UNBOUND:                -0.964
REMARK  Name = 
REMARK  7 active torsions:
REMARK  status: ('A' for Active; 'I' for Inactive)
REMARK    1  A    between atoms: C_1  and  O_2
REMARK    2  A    between atoms: O_2  and  C_3
REMARK    3  A    between atoms: C_5  and  C_6
REMARK    4  A    between atoms: C_6  and  N_7
REMARK    5  A    between atoms: C_12  and  C_13
REMARK    6  A    between atoms: C_22  and  C_23
REMARK    7  A    between atoms: C_23  and  N_24
REMARK                            x       y       z     vdW  Elec       q    Type
REMARK                         _______ _______ _______ _____ _____    ______ ____
ROOT
ATOM      1  N   UNL     1      46.122   7.797  12.932  0.00  0.00    +0.000 N 
ATOM      2  C   UNL     1      45.386   8.693  12.188  0.00  0.00    +0.000 A 
ATOM      3  C   UNL     1      44.518   7.987  11.396  0.00  0.00    +0.000 A 
ATOM      4  C   UNL     1      44.715   6.608  11.667  0.00  0.00    +0.000 A 
ATOM      5  C   UNL     1      44.117   5.441  11.139  0.00  0.00    +0.000 A 
ATOM      6  C   UNL     1      44.500   4.181  11.612  0.00  0.00    +0.000 A 
ATOM      7  C   UNL     1      45.449   4.095  12.633  0.00  0.00    +0.000 A 
ATOM      8  C   UNL     1      46.051   5.236  13.179  0.00  0.00    +0.000 A 
ATOM      9 CL   UNL     1      47.155   5.002  14.479  0.00  0.00    +0.000 Cl
ATOM     10  C   UNL     1      45.698   6.501  12.666  0.00  0.00    +0.000 A 
ENDROOT
BRANCH   6  11
ATOM     11  C   UNL     1      43.938   2.904  11.084  0.00  0.00    +0.000 C 
ATOM     12  N   UNL     1      44.504   2.341   9.978  0.00  0.00    +0.000 N 
ATOM     13  O   UNL     1      42.990   2.353  11.629  0.00  0.00    +0.000 OA
ATOM     14  H   UNL     1      45.298   2.698   9.475  0.00  0.00    +0.000 HD
ATOM     15  H   UNL     1      44.107   1.462   9.664  0.00  0.00    +0.000 HD
ENDBRANCH   6  11
BRANCH   1  16
ATOM     16  C   UNL     1      47.225   8.231  13.795  0.00  0.00    +0.000 C 
BRANCH  16  19
ATOM     17  C   UNL     1      50.982   8.502  13.082  0.00  0.00    +0.000 A 
ATOM     18  C   UNL     1      49.766   8.515  13.768  0.00  0.00    +0.000 A 
ATOM     19  C   UNL     1      48.570   8.191  13.118  0.00  0.00    +0.000 A 
ATOM     20  C   UNL     1      48.671   7.779  11.795  0.00  0.00    +0.000 A 
ATOM     21  N   UNL     1      49.825   7.738  11.094  0.00  0.00    +0.000 NA
ATOM     22  C   UNL     1      50.964   8.145  11.729  0.00  0.00    +0.000 A 
BRANCH  17  24
ATOM     23  C   UNL     1      52.632   8.044  14.736  0.00  0.00    +0.000 C 
ATOM     24  O   UNL     1      52.185   8.842  13.640  0.00  0.00    +0.000 OA
ENDBRANCH  17  24
BRANCH  22  25
ATOM     25  C   UNL     1      52.253   8.109  10.922  0.00  0.00    +0.000 C 
BRANCH  25  26
ATOM     26  N   UNL     1      52.724   6.744  10.643  0.00  0.00    +0.000 NA
ATOM     27  H   UNL     1      52.833   6.677   9.630  0.00  0.00    +0.000 HD
ATOM     28  H   UNL     1      52.003   6.082  10.913  0.00  0.00    +0.000 HD
ENDBRANCH  25  26
ENDBRANCH  22  25
ENDBRANCH  16  19
ENDBRANCH   1  16
TORSDOF 6
ENDMDL
MODEL 6
REMARK VINA RESULT:    -5.316      6.167      9.057
REMARK INTER + INTRA:          -7.989
REMARK INTER:                  -7.075
REMARK INTRA:                  -0.914
REMARK UNBOUND:                -0.964
REMARK  Name = 
REMARK  7 active torsions:
REMARK  status: ('A' for Active; 'I' for Inactive)
REMARK    1  A    between atoms: C_1  and  O_2
REMARK    2  A    between atoms: O_2  and  C_3
REMARK    3  A    between atoms: C_5  and  C_6
REMARK    4  A    between atoms: C_6  and  N_7
REMARK    5  A    between atoms: C_12  and  C_13
REMARK    6  A    between atoms: C_22  and  C_23
REMARK    7  A    between atoms: C_23  and  N_24
REMARK                            x       y       z     vdW  Elec       q    Type
REMARK                         _______ _______ _______ _____ _____    ______ ____
ROOT
ATOM      1  N   UNL     1      49.311   5.583  17.007  0.00  0.00    +0.000 N 
ATOM      2  C   UNL     1      50.091   6.664  16.662  0.00  0.00    +0.000 A 
ATOM      3  C   UNL     1      49.703   7.098  15.421  0.00  0.00    +0.000 A 
ATOM      4  C   UNL     1      48.639   6.265  14.989  0.00  0.00    +0.000 A 
ATOM      5  C   UNL     1      47.874   6.240  13.799  0.00  0.00    +0.000 A 
ATOM      6  C   UNL     1      46.851   5.298  13.643  0.00  0.00    +0.000 A 
ATOM      7  C   UNL     1      46.573   4.413  14.687  0.00  0.00    +0.000 A 
ATOM      8  C   UNL     1      47.310   4.422  15.879  0.00  0.00    +0.000 A 
ATOM      9 CL   UNL     1      46.826   3.328  17.115  0.00  0.00    +0.000 Cl
ATOM     10  C   UNL     1      48.372   5.340  16.013  0.00  0.00    +0.000 A 
ENDROOT
BRANCH   6  11
ATOM     11  C   UNL     1      46.023   5.189  12.407  0.00  0.00    +0.000 C 
ATOM     12  N   UNL     1      45.239   4.086  12.234  0.00  0.00    +0.000 N 
ATOM     13  O   UNL     1      46.029   6.071  11.558  0.00  0.00    +0.000 OA
ATOM     14  H   UNL     1      45.144   3.322  12.880  0.00  0.00    +0.000 HD
ATOM     15  H   UNL     1      44.675   4.060  11.391  0.00  0.00    +0.000 HD
ENDBRANCH   6  11
BRANCH   1  16
ATOM     16  C   UNL     1      49.556   4.811  18.230  0.00  0.00    +0.000 C 
BRANCH  16  19
ATOM     17  C   UNL     1      52.732   2.666  18.286  0.00  0.00    +0.000 A 
ATOM     18  C   UNL     1      51.851   3.722  18.523  0.00  0.00    +0.000 A 
ATOM     19  C   UNL     1      50.537   3.683  18.043  0.00  0.00    +0.000 A 
ATOM     20  C   UNL     1      50.140   2.516  17.402  0.00  0.00    +0.000 A 
ATOM     21  N   UNL     1      50.953   1.464  17.161  0.00  0.00    +0.000 NA
ATOM     22  C   UNL     1      52.255   1.567  17.563  0.00  0.00    +0.000 A 
BRANCH  17  24
ATOM     23  C   UNL     1      54.285   2.880  20.079  0.00  0.00    +0.000 C 
ATOM     24  O   UNL     1      54.040   2.647  18.692  0.00  0.00    +0.000 OA
ENDBRANCH  17  24
BRANCH  22  25
ATOM     25  C   UNL     1      53.161   0.381  17.270  0.00  0.00    +0.000 C 
BRANCH  25  26
ATOM     26  N   UNL     1      53.362  -0.497  18.433  0.00  0.00    +0.000 NA
ATOM     27  H   UNL     1      52.431  -0.781  18.746  0.00  0.00    +0.000 HD
ATOM     28  H   UNL     1      53.781   0.040  19.187  0.00  0.00    +0.000 HD
ENDBRANCH  25  26
ENDBRANCH  22  25
ENDBRANCH  16  19
ENDBRANCH   1  16
TORSDOF 6
ENDMDL
MODEL 7
REMARK VINA RESULT:    -5.220      4.088      9.231
REMARK INTER + INTRA:          -7.862
REMARK INTER:                  -7.065
REMARK INTRA:                  -0.797
REMARK UNBOUND:                -0.964
REMARK  Name = 
REMARK  7 active torsions:
REMARK  status: ('A' for Active; 'I' for Inactive)
REMARK    1  A    between atoms: C_1  and  O_2
REMARK    2  A    between atoms: O_2  and  C_3
REMARK    3  A    between atoms: C_5  and  C_6
REMARK    4  A    between atoms: C_6  and  N_7
REMARK    5  A    between atoms: C_12  and  C_13
REMARK    6  A    between atoms: C_22  and  C_23
REMARK    7  A    between atoms: C_23  and  N_24
REMARK                            x       y       z     vdW  Elec       q    Type
REMARK                         _______ _______ _______ _____ _____    ______ ____
ROOT
ATOM      1  N   UNL     1      48.252   6.985  13.882  0.00  0.00    +0.000 N 
ATOM      2  C   UNL     1      48.218   7.998  12.949  0.00  0.00    +0.000 A 
ATOM      3  C   UNL     1      47.302   7.665  11.984  0.00  0.00    +0.000 A 
ATOM      4  C   UNL     1      46.743   6.410  12.339  0.00  0.00    +0.000 A 
ATOM      5  C   UNL     1      45.776   5.589  11.712  0.00  0.00    +0.000 A 
ATOM      6  C   UNL     1      45.390   4.382  12.306  0.00  0.00    +0.000 A 
ATOM      7  C   UNL     1      45.941   4.020  13.537  0.00  0.00    +0.000 A 
ATOM      8  C   UNL     1      46.894   4.819  14.183  0.00  0.00    +0.000 A 
ATOM      9 CL   UNL     1      47.447   4.297  15.727  0.00  0.00    +0.000 Cl
ATOM     10  C   UNL     1      47.317   6.010  13.557  0.00  0.00    +0.000 A 
ENDROOT
BRANCH   6  11
ATOM     11  C   UNL     1      44.402   3.449  11.691  0.00  0.00    +0.000 C 
ATOM     12  N   UNL     1      43.818   2.497  12.475  0.00  0.00    +0.000 N 
ATOM     13  O   UNL     1      44.102   3.529  10.506  0.00  0.00    +0.000 OA
ATOM     14  H   UNL     1      43.975   2.365  13.459  0.00  0.00    +0.000 HD
ATOM     15  H   UNL     1      43.136   1.896  12.024  0.00  0.00    +0.000 HD
ENDBRANCH   6  11
BRANCH   1  16
ATOM     16  C   UNL     1      49.220   6.981  14.984  0.00  0.00    +0.000 C 
BRANCH  16  19
ATOM     17  C   UNL     1      48.084   7.642  18.585  0.00  0.00    +0.000 A 
ATOM     18  C   UNL     1      48.602   6.989  17.465  0.00  0.00    +0.000 A 
ATOM     19  C   UNL     1      48.711   7.647  16.235  0.00  0.00    +0.000 A 
ATOM     20  C   UNL     1      48.361   8.992  16.213  0.00  0.00    +0.000 A 
ATOM     21  N   UNL     1      47.869   9.669  17.273  0.00  0.00    +0.000 NA
ATOM     22  C   UNL     1      47.689   8.977  18.438  0.00  0.00    +0.000 A 
BRANCH  17  24
ATOM     23  C   UNL     1      49.085   6.546  20.447  0.00  0.00    +0.000 C 
ATOM     24  O   UNL     1      47.914   7.055  19.809  0.00  0.00    +0.000 OA
ENDBRANCH  17  24
BRANCH  22  25
ATOM     25  C   UNL     1      47.119   9.749  19.617  0.00  0.00    +0.000 C 
BRANCH  25  26
ATOM     26  N   UNL     1      48.108  10.006  20.675  0.00  0.00    +0.000 NA
ATOM     27  H   UNL     1      47.635  10.571  21.383  0.00  0.00    +0.000 HD
ATOM     28  H   UNL     1      48.862  10.570  20.295  0.00  0.00    +0.000 HD
ENDBRANCH  25  26
ENDBRANCH  22  25
ENDBRANCH  16  19
ENDBRANCH   1  16
TORSDOF 6
ENDMDL
MODEL 8
REMARK VINA RESULT:    -5.203      6.000      8.591
REMARK INTER + INTRA:          -7.840
REMARK INTER:                  -6.900
REMARK INTRA:                  -0.940
REMARK UNBOUND:                -0.964
REMARK  Name = 
REMARK  7 active torsions:
REMARK  status: ('A' for Active; 'I' for Inactive)
REMARK    1  A    between atoms: C_1  and  O_2
REMARK    2  A    between atoms: O_2  and  C_3
REMARK    3  A    between atoms: C_5  and  C_6
REMARK    4  A    between atoms: C_6  and  N_7
REMARK    5  A    between atoms: C_12  and  C_13
REMARK    6  A    between atoms: C_22  and  C_23
REMARK    7  A    between atoms: C_23  and  N_24
REMARK                            x       y       z     vdW  Elec       q    Type
REMARK                         _______ _______ _______ _____ _____    ______ ____
ROOT
ATOM      1  N   UNL     1      48.899   4.643  17.060  0.00  0.00    +0.000 N 
ATOM      2  C   UNL     1      47.892   3.758  16.745  0.00  0.00    +0.000 A 
ATOM      3  C   UNL     1      48.404   2.486  16.791  0.00  0.00    +0.000 A 
ATOM      4  C   UNL     1      49.771   2.588  17.159  0.00  0.00    +0.000 A 
ATOM      5  C   UNL     1      50.780   1.614  17.340  0.00  0.00    +0.000 A 
ATOM      6  C   UNL     1      52.067   2.003  17.730  0.00  0.00    +0.000 A 
ATOM      7  C   UNL     1      52.329   3.353  17.971  0.00  0.00    +0.000 A 
ATOM      8  C   UNL     1      51.345   4.337  17.806  0.00  0.00    +0.000 A 
ATOM      9 CL   UNL     1      51.772   5.957  18.200  0.00  0.00    +0.000 Cl
ATOM     10  C   UNL     1      50.063   3.947  17.366  0.00  0.00    +0.000 A 
ENDROOT
BRANCH   6  11
ATOM     11  C   UNL     1      53.192   1.040  17.911  0.00  0.00    +0.000 C 
ATOM     12  N   UNL     1      52.911  -0.238  18.297  0.00  0.00    +0.000 N 
ATOM     13  O   UNL     1      54.353   1.374  17.712  0.00  0.00    +0.000 OA
ATOM     14  H   UNL     1      51.994  -0.617  18.461  0.00  0.00    +0.000 HD
ATOM     15  H   UNL     1      53.701  -0.867  18.388  0.00  0.00    +0.000 HD
ENDBRANCH   6  11
BRANCH   1  16
ATOM     16  C   UNL     1      48.707   6.094  16.983  0.00  0.00    +0.000 C 
BRANCH  16  19
ATOM     17  C   UNL     1      48.714   7.062  13.273  0.00  0.00    +0.000 A 
ATOM     18  C   UNL     1      48.299   6.533  14.497  0.00  0.00    +0.000 A 
ATOM     19  C   UNL     1      49.082   6.681  15.648  0.00  0.00    +0.000 A 
ATOM     20  C   UNL     1      50.235   7.446  15.524  0.00  0.00    +0.000 A 
ATOM     21  N   UNL     1      50.671   7.988  14.365  0.00  0.00    +0.000 NA
ATOM     22  C   UNL     1      49.932   7.751  13.240  0.00  0.00    +0.000 A 
BRANCH  17  24
ATOM     23  C   UNL     1      46.664   7.367  12.102  0.00  0.00    +0.000 C 
ATOM     24  O   UNL     1      48.022   6.927  12.100  0.00  0.00    +0.000 OA
ENDBRANCH  17  24
BRANCH  22  25
ATOM     25  C   UNL     1      50.443   8.355  11.941  0.00  0.00    +0.000 C 
BRANCH  25  26
ATOM     26  N   UNL     1      51.008   7.357  11.021  0.00  0.00    +0.000 NA
ATOM     27  H   UNL     1      52.007   7.300  11.232  0.00  0.00    +0.000 HD
ATOM     28  H   UNL     1      50.921   7.696  10.068  0.00  0.00    +0.000 HD
ENDBRANCH  25  26
ENDBRANCH  22  25
ENDBRANCH  16  19
ENDBRANCH   1  16
TORSDOF 6
ENDMDL
MODEL 9
REMARK VINA RESULT:    -5.157      3.324      5.227
REMARK INTER + INTRA:          -7.779
REMARK INTER:                  -7.038
REMARK INTRA:                  -0.741
REMARK UNBOUND:                -0.964
REMARK  Name = 
REMARK  7 active torsions:
REMARK  status: ('A' for Active; 'I' for Inactive)
REMARK    1  A    between atoms: C_1  and  O_2
REMARK    2  A    between atoms: O_2  and  C_3
REMARK    3  A    between atoms: C_5  and  C_6
REMARK    4  A    between atoms: C_6  and  N_7
REMARK    5  A    between atoms: C_12  and  C_13
REMARK    6  A    between atoms: C_22  and  C_23
REMARK    7  A    between atoms: C_23  and  N_24
REMARK                            x       y       z     vdW  Elec       q    Type
REMARK                         _______ _______ _______ _____ _____    ______ ____
ROOT
ATOM      1  N   UNL     1      47.449   7.899  13.035  0.00  0.00    +0.000 N 
ATOM      2  C   UNL     1      48.267   6.998  13.681  0.00  0.00    +0.000 A 
ATOM      3  C   UNL     1      49.570   7.315  13.396  0.00  0.00    +0.000 A 
ATOM      4  C   UNL     1      49.558   8.457  12.554  0.00  0.00    +0.000 A 
ATOM      5  C   UNL     1      50.597   9.200  11.946  0.00  0.00    +0.000 A 
ATOM      6  C   UNL     1      50.293  10.318  11.161  0.00  0.00    +0.000 A 
ATOM      7  C   UNL     1      48.960  10.710  11.019  0.00  0.00    +0.000 A 
ATOM      8  C   UNL     1      47.913   9.997  11.617  0.00  0.00    +0.000 A 
ATOM      9 CL   UNL     1      46.320  10.620  11.423  0.00  0.00    +0.000 Cl
ATOM     10  C   UNL     1      48.219   8.842  12.366  0.00  0.00    +0.000 A 
ENDROOT
BRANCH   6  11
ATOM     11  C   UNL     1      51.329  11.132  10.463  0.00  0.00    +0.000 C 
ATOM     12  N   UNL     1      52.481  11.442  11.124  0.00  0.00    +0.000 N 
ATOM     13  O   UNL     1      51.167  11.516   9.311  0.00  0.00    +0.000 OA
ATOM     14  H   UNL     1      52.722  11.155  12.057  0.00  0.00    +0.000 HD
ATOM     15  H   UNL     1      53.169  11.979  10.606  0.00  0.00    +0.000 HD
ENDBRANCH   6  11
BRANCH   1  16
ATOM     16  C   UNL     1      45.989   7.761  13.041  0.00  0.00    +0.000 C 
BRANCH  16  19
ATOM     17  C   UNL     1      44.983   5.109  10.463  0.00  0.00    +0.000 A 
ATOM     18  C   UNL     1      45.485   6.290  11.011  0.00  0.00    +0.000 A 
ATOM     19  C   UNL     1      45.502   6.491  12.396  0.00  0.00    +0.000 A 
ATOM     20  C   UNL     1      45.076   5.429  13.185  0.00  0.00    +0.000 A 
ATOM     21  N   UNL     1      44.595   4.263  12.701  0.00  0.00    +0.000 NA
ATOM     22  C   UNL     1      44.508   4.131  11.344  0.00  0.00    +0.000 A 
BRANCH  17  24
ATOM     23  C   UNL     1      46.134   4.774   8.406  0.00  0.00    +0.000 C 
ATOM     24  O   UNL     1      44.901   4.856   9.120  0.00  0.00    +0.000 OA
ENDBRANCH  17  24
BRANCH  22  25
ATOM     25  C   UNL     1      43.949   2.819  10.815  0.00  0.00    +0.000 C 
BRANCH  25  26
ATOM     26  N   UNL     1      42.975   2.195  11.722  0.00  0.00    +0.000 NA
ATOM     27  H   UNL     1      42.816   1.249  11.372  0.00  0.00    +0.000 HD
ATOM     28  H   UNL     1      42.092   2.693  11.655  0.00  0.00    +0.000 HD
ENDBRANCH  25  26
ENDBRANCH  22  25
ENDBRANCH  16  19
ENDBRANCH   1  16
TORSDOF 6
ENDMDL
