MODEL 1
REMARK VINA RESULT:    -8.993      0.000      0.000
REMARK INTER + INTRA:         -12.230
REMARK INTER:                 -11.096
REMARK INTRA:                  -1.134
REMARK UNBOUND:                -1.134
REMARK  Name = 
REMARK  4 active torsions:
REMARK  status: ('A' for Active; 'I' for Inactive)
REMARK    1  A    between atoms: C_2  and  C_4
REMARK    2  A    between atoms: N_8  and  C_9
REMARK    3  A    between atoms: C_9  and  C_10
REMARK    4  A    between atoms: C_14  and  C_15
REMARK                            x       y       z     vdW  Elec       q    Type
REMARK                         _______ _______ _______ _____ _____    ______ ____
ROOT
ATOM      1  C   UNL     1      43.821   4.893  11.379  0.00  0.00    +0.000 C 
ATOM      2  C   UNL     1      42.483   5.161  12.055  0.00  0.00    +0.000 C 
ATOM      3  C   UNL     1      43.008   6.129  11.047  0.00  0.00    +0.000 C 
ENDROOT
BRANCH   1   8
ATOM      4  C   UNL     1      46.590   2.779   7.510  0.00  0.00    +0.000 A 
ATOM      5  C   UNL     1      46.257   4.116   7.701  0.00  0.00    +0.000 A 
ATOM      6  C   UNL     1      45.376   4.457   8.729  0.00  0.00    +0.000 A 
ATOM      7  C   UNL     1      44.834   3.461   9.536  0.00  0.00    +0.000 A 
ATOM      8  N   UNL     1      43.853   3.706  10.504  0.00  0.00    +0.000 N 
ATOM      9  N   UNL     1      45.158   2.161   9.364  0.00  0.00    +0.000 NA
ATOM     10  C   UNL     1      46.018   1.846   8.360  0.00  0.00    +0.000 A 
ATOM     11  H   UNL     1      43.720   2.812  10.978  0.00  0.00    +0.000 HD
BRANCH   4  13
ATOM     12  N   UNL     1      47.372   2.964   5.213  0.00  0.00    +0.000 N 
ATOM     13  C   UNL     1      47.465   2.314   6.413  0.00  0.00    +0.000 C 
ATOM     14  O   UNL     1      48.262   1.398   6.576  0.00  0.00    +0.000 OA
ATOM     15  H   UNL     1      48.037   2.689   4.503  0.00  0.00    +0.000 HD
ATOM     16  H   UNL     1      46.923   3.862   5.111  0.00  0.00    +0.000 HD
ENDBRANCH   4  13
ENDBRANCH   1   8
BRANCH   1  17
ATOM     17  C   UNL     1      45.096   5.053  12.202  0.00  0.00    +0.000 A 
ATOM     18  C   UNL     1      45.589   4.027  13.021  0.00  0.00    +0.000 A 
ATOM     19  C   UNL     1      46.820   4.144  13.664  0.00  0.00    +0.000 A 
ATOM     20  C   UNL     1      47.601   5.286  13.478  0.00  0.00    +0.000 A 
ATOM     21  C   UNL     1      47.162   6.337  12.658  0.00  0.00    +0.000 A 
ATOM     22  C   UNL     1      45.891   6.208  12.065  0.00  0.00    +0.000 A 
BRANCH  21  23
ATOM     23  C   UNL     1      48.028   7.488  12.328  0.00  0.00    +0.000 A 
ATOM     24  C   UNL     1      49.401   7.331  12.088  0.00  0.00    +0.000 A 
ATOM     25  C   UNL     1      50.180   8.411  11.671  0.00  0.00    +0.000 A 
ATOM     26  C   UNL     1      49.563   9.637  11.501  0.00  0.00    +0.000 A 
ATOM     27  N   UNL     1      48.254   9.852  11.738  0.00  0.00    +0.000 NA
ATOM     28  C   UNL     1      47.528   8.781  12.148  0.00  0.00    +0.000 A 
ENDBRANCH  21  23
ENDBRANCH   1  17
TORSDOF 4
ENDMDL
MODEL 2
REMARK VINA RESULT:    -8.740      2.025      3.385
REMARK INTER + INTRA:         -11.918
REMARK INTER:                 -11.383
REMARK INTRA:                  -0.534
REMARK UNBOUND:                -1.134
REMARK  Name = 
REMARK  4 active torsions:
REMARK  status: ('A' for Active; 'I' for Inactive)
REMARK    1  A    between atoms: C_2  and  C_4
REMARK    2  A    between atoms: N_8  and  C_9
REMARK    3  A    between atoms: C_9  and  C_10
REMARK    4  A    between atoms: C_14  and  C_15
REMARK                            x       y       z     vdW  Elec       q    Type
REMARK                         _______ _______ _______ _____ _____    ______ ____
ROOT
ATOM      1  C   UNL     1      43.915   4.902  11.490  0.00  0.00    +0.000 C 
ATOM      2  C   UNL     1      42.755   4.992  12.473  0.00  0.00    +0.000 C 
ATOM      3  C   UNL     1      42.838   5.959  11.340  0.00  0.00    +0.000 C 
ENDROOT
BRANCH   1   8
ATOM      4  C   UNL     1      46.483   2.755   7.503  0.00  0.00    +0.000 A 
ATOM      5  C   UNL     1      46.090   4.079   7.661  0.00  0.00    +0.000 A 
ATOM      6  C   UNL     1      45.276   4.423   8.742  0.00  0.00    +0.000 A 
ATOM      7  C   UNL     1      44.858   3.439   9.635  0.00  0.00    +0.000 A 
ATOM      8  N   UNL     1      43.945   3.677  10.669  0.00  0.00    +0.000 N 
ATOM      9  N   UNL     1      45.242   2.151   9.494  0.00  0.00    +0.000 NA
ATOM     10  C   UNL     1      46.035   1.835   8.438  0.00  0.00    +0.000 A 
ATOM     11  H   UNL     1      43.902   2.802  11.191  0.00  0.00    +0.000 HD
BRANCH   4  13
ATOM     12  N   UNL     1      47.208   2.994   5.193  0.00  0.00    +0.000 N 
ATOM     13  C   UNL     1      47.292   2.284   6.359  0.00  0.00    +0.000 C 
ATOM     14  O   UNL     1      48.030   1.312   6.455  0.00  0.00    +0.000 OA
ATOM     15  H   UNL     1      47.832   2.709   4.450  0.00  0.00    +0.000 HD
ATOM     16  H   UNL     1      46.817   3.924   5.145  0.00  0.00    +0.000 HD
ENDBRANCH   4  13
ENDBRANCH   1   8
BRANCH   1  17
ATOM     17  C   UNL     1      45.302   5.330  11.961  0.00  0.00    +0.000 A 
ATOM     18  C   UNL     1      46.034   6.335  11.309  0.00  0.00    +0.000 A 
ATOM     19  C   UNL     1      47.240   6.802  11.828  0.00  0.00    +0.000 A 
ATOM     20  C   UNL     1      47.729   6.290  13.031  0.00  0.00    +0.000 A 
ATOM     21  C   UNL     1      47.031   5.294  13.731  0.00  0.00    +0.000 A 
ATOM     22  C   UNL     1      45.842   4.809  13.152  0.00  0.00    +0.000 A 
BRANCH  21  23
ATOM     23  C   UNL     1      47.449   4.841  15.074  0.00  0.00    +0.000 A 
ATOM     24  C   UNL     1      48.195   5.664  15.930  0.00  0.00    +0.000 A 
ATOM     25  C   UNL     1      48.486   5.261  17.234  0.00  0.00    +0.000 A 
ATOM     26  C   UNL     1      48.020   4.030  17.658  0.00  0.00    +0.000 A 
ATOM     27  N   UNL     1      47.318   3.188  16.873  0.00  0.00    +0.000 NA
ATOM     28  C   UNL     1      47.059   3.610  15.609  0.00  0.00    +0.000 A 
ENDBRANCH  21  23
ENDBRANCH   1  17
TORSDOF 4
ENDMDL
MODEL 3
REMARK VINA RESULT:    -6.666      4.312      8.225
REMARK INTER + INTRA:          -9.359
REMARK INTER:                  -8.375
REMARK INTRA:                  -0.984
REMARK UNBOUND:                -1.134
REMARK  Name = 
REMARK  4 active torsions:
REMARK  status: ('A' for Active; 'I' for Inactive)
REMARK    1  A    between atoms: C_2  and  C_4
REMARK    2  A    between atoms: N_8  and  C_9
REMARK    3  A    between atoms: C_9  and  C_10
REMARK    4  A    between atoms: C_14  and  C_15
REMARK                            x       y       z     vdW  Elec       q    Type
REMARK                         _______ _______ _______ _____ _____    ______ ____
ROOT
ATOM      1  C   UNL     1      49.040   7.909  12.635  0.00  0.00    +0.000 C 
ATOM      2  C   UNL     1      49.965   8.086  11.438  0.00  0.00    +0.000 C 
ATOM      3  C   UNL     1      49.699   9.243  12.342  0.00  0.00    +0.000 C 
ENDROOT
BRANCH   1   8
ATOM      4  C   UNL     1      48.427   6.802  17.684  0.00  0.00    +0.000 A 
ATOM      5  C   UNL     1      48.464   8.051  17.075  0.00  0.00    +0.000 A 
ATOM      6  C   UNL     1      48.788   8.137  15.719  0.00  0.00    +0.000 A 
ATOM      7  C   UNL     1      49.082   6.980  15.002  0.00  0.00    +0.000 A 
ATOM      8  N   UNL     1      49.535   6.991  13.677  0.00  0.00    +0.000 N 
ATOM      9  N   UNL     1      49.040   5.762  15.584  0.00  0.00    +0.000 NA
ATOM     10  C   UNL     1      48.722   5.696  16.903  0.00  0.00    +0.000 A 
ATOM     11  H   UNL     1      49.583   6.009  13.406  0.00  0.00    +0.000 HD
BRANCH   4  13
ATOM     12  N   UNL     1      47.163   5.736  19.469  0.00  0.00    +0.000 N 
ATOM     13  C   UNL     1      48.154   6.615  19.125  0.00  0.00    +0.000 C 
ATOM     14  O   UNL     1      48.804   7.202  19.981  0.00  0.00    +0.000 OA
ATOM     15  H   UNL     1      47.049   5.557  20.459  0.00  0.00    +0.000 HD
ATOM     16  H   UNL     1      46.783   5.059  18.824  0.00  0.00    +0.000 HD
ENDBRANCH   4  13
ENDBRANCH   1   8
BRANCH   1  17
ATOM     17  C   UNL     1      47.543   7.760  12.379  0.00  0.00    +0.000 A 
ATOM     18  C   UNL     1      46.635   8.798  12.637  0.00  0.00    +0.000 A 
ATOM     19  C   UNL     1      45.292   8.690  12.278  0.00  0.00    +0.000 A 
ATOM     20  C   UNL     1      44.833   7.545  11.626  0.00  0.00    +0.000 A 
ATOM     21  C   UNL     1      45.701   6.482  11.332  0.00  0.00    +0.000 A 
ATOM     22  C   UNL     1      47.039   6.603  11.755  0.00  0.00    +0.000 A 
BRANCH  21  23
ATOM     23  C   UNL     1      45.275   5.326  10.516  0.00  0.00    +0.000 A 
ATOM     24  C   UNL     1      45.727   5.146   9.200  0.00  0.00    +0.000 A 
ATOM     25  C   UNL     1      45.402   3.993   8.485  0.00  0.00    +0.000 A 
ATOM     26  C   UNL     1      44.623   3.035   9.107  0.00  0.00    +0.000 A 
ATOM     27  N   UNL     1      44.142   3.163  10.360  0.00  0.00    +0.000 NA
ATOM     28  C   UNL     1      44.473   4.300  11.024  0.00  0.00    +0.000 A 
ENDBRANCH  21  23
ENDBRANCH   1  17
TORSDOF 4
ENDMDL
MODEL 4
REMARK VINA RESULT:    -6.612      3.658      7.495
REMARK INTER + INTRA:          -9.292
REMARK INTER:                  -9.242
REMARK INTRA:                  -0.050
REMARK UNBOUND:                -1.134
REMARK  Name = 
REMARK  4 active torsions:
REMARK  status: ('A' for Active; 'I' for Inactive)
REMARK    1  A    between atoms: C_2  and  C_4
REMARK    2  A    between atoms: N_8  and  C_9
REMARK    3  A    between atoms: C_9  and  C_10
REMARK    4  A    between atoms: C_14  and  C_15
REMARK                            x       y       z     vdW  Elec       q    Type
REMARK                         _______ _______ _______ _____ _____    ______ ____
ROOT
ATOM      1  C   UNL     1      48.481   7.672  12.751  0.00  0.00    +0.000 C 
ATOM      2  C   UNL     1      49.601   7.011  11.959  0.00  0.00    +0.000 C 
ATOM      3  C   UNL     1      49.435   8.492  11.904  0.00  0.00    +0.000 C 
ENDROOT
BRANCH   1   8
ATOM      4  C   UNL     1      47.984   4.244  16.637  0.00  0.00    +0.000 A 
ATOM      5  C   UNL     1      47.178   4.396  15.514  0.00  0.00    +0.000 A 
ATOM      6  C   UNL     1      47.397   5.480  14.661  0.00  0.00    +0.000 A 
ATOM      7  C   UNL     1      48.405   6.396  14.950  0.00  0.00    +0.000 A 
ATOM      8  N   UNL     1      48.608   7.571  14.217  0.00  0.00    +0.000 N 
ATOM      9  N   UNL     1      49.198   6.252  16.034  0.00  0.00    +0.000 NA
ATOM     10  C   UNL     1      48.972   5.192  16.853  0.00  0.00    +0.000 A 
ATOM     11  H   UNL     1      49.453   7.986  14.610  0.00  0.00    +0.000 HD
BRANCH   4  13
ATOM     12  N   UNL     1      48.831   2.893  18.474  0.00  0.00    +0.000 N 
ATOM     13  C   UNL     1      47.790   3.166  17.630  0.00  0.00    +0.000 C 
ATOM     14  O   UNL     1      46.732   2.556  17.713  0.00  0.00    +0.000 OA
ATOM     15  H   UNL     1      48.651   2.213  19.201  0.00  0.00    +0.000 HD
ATOM     16  H   UNL     1      49.610   3.522  18.605  0.00  0.00    +0.000 HD
ENDBRANCH   4  13
ENDBRANCH   1   8
BRANCH   1  17
ATOM     17  C   UNL     1      47.045   7.490  12.269  0.00  0.00    +0.000 A 
ATOM     18  C   UNL     1      46.102   8.528  12.324  0.00  0.00    +0.000 A 
ATOM     19  C   UNL     1      44.835   8.384  11.762  0.00  0.00    +0.000 A 
ATOM     20  C   UNL     1      44.491   7.201  11.107  0.00  0.00    +0.000 A 
ATOM     21  C   UNL     1      45.400   6.136  11.011  0.00  0.00    +0.000 A 
ATOM     22  C   UNL     1      46.653   6.296  11.634  0.00  0.00    +0.000 A 
BRANCH  21  23
ATOM     23  C   UNL     1      45.116   4.934  10.200  0.00  0.00    +0.000 A 
ATOM     24  C   UNL     1      45.604   4.795   8.892  0.00  0.00    +0.000 A 
ATOM     25  C   UNL     1      45.417   3.608   8.183  0.00  0.00    +0.000 A 
ATOM     26  C   UNL     1      44.740   2.574   8.803  0.00  0.00    +0.000 A 
ATOM     27  N   UNL     1      44.230   2.658  10.048  0.00  0.00    +0.000 NA
ATOM     28  C   UNL     1      44.424   3.829  10.706  0.00  0.00    +0.000 A 
ENDBRANCH  21  23
ENDBRANCH   1  17
TORSDOF 4
ENDMDL
MODEL 5
REMARK VINA RESULT:    -6.456      2.672      6.821
REMARK INTER + INTRA:          -9.100
REMARK INTER:                  -8.198
REMARK INTRA:                  -0.902
REMARK UNBOUND:                -1.134
REMARK  Name = 
REMARK  4 active torsions:
REMARK  status: ('A' for Active; 'I' for Inactive)
REMARK    1  A    between atoms: C_2  and  C_4
REMARK    2  A    between atoms: N_8  and  C_9
REMARK    3  A    between atoms: C_9  and  C_10
REMARK    4  A    between atoms: C_14  and  C_15
REMARK                            x       y       z     vdW  Elec       q    Type
REMARK                         _______ _______ _______ _____ _____    ______ ____
ROOT
ATOM      1  C   UNL     1      46.189   5.180  13.368  0.00  0.00    +0.000 C 
ATOM      2  C   UNL     1      46.034   4.353  14.638  0.00  0.00    +0.000 C 
ATOM      3  C   UNL     1      47.223   4.142  13.761  0.00  0.00    +0.000 C 
ENDROOT
BRANCH   1   8
ATOM      4  C   UNL     1      49.119   9.153  11.715  0.00  0.00    +0.000 A 
ATOM      5  C   UNL     1      49.506   7.841  11.961  0.00  0.00    +0.000 A 
ATOM      6  C   UNL     1      48.595   6.959  12.545  0.00  0.00    +0.000 A 
ATOM      7  C   UNL     1      47.320   7.407  12.886  0.00  0.00    +0.000 A 
ATOM      8  N   UNL     1      46.393   6.625  13.585  0.00  0.00    +0.000 N 
ATOM      9  N   UNL     1      46.932   8.677  12.644  0.00  0.00    +0.000 NA
ATOM     10  C   UNL     1      47.832   9.521  12.073  0.00  0.00    +0.000 A 
ATOM     11  H   UNL     1      45.542   7.186  13.613  0.00  0.00    +0.000 HD
BRANCH   4  13
ATOM     12  N   UNL     1      51.259   9.752  10.725  0.00  0.00    +0.000 N 
ATOM     13  C   UNL     1      50.031  10.173  11.157  0.00  0.00    +0.000 C 
ATOM     14  O   UNL     1      49.696  11.347  11.061  0.00  0.00    +0.000 OA
ATOM     15  H   UNL     1      51.835  10.448  10.268  0.00  0.00    +0.000 HD
ATOM     16  H   UNL     1      51.477   8.781  10.556  0.00  0.00    +0.000 HD
ENDBRANCH   4  13
ENDBRANCH   1   8
BRANCH   1  17
ATOM     17  C   UNL     1      45.264   4.885  12.191  0.00  0.00    +0.000 A 
ATOM     18  C   UNL     1      44.009   5.496  12.057  0.00  0.00    +0.000 A 
ATOM     19  C   UNL     1      43.234   5.313  10.912  0.00  0.00    +0.000 A 
ATOM     20  C   UNL     1      43.715   4.531   9.861  0.00  0.00    +0.000 A 
ATOM     21  C   UNL     1      44.970   3.908   9.937  0.00  0.00    +0.000 A 
ATOM     22  C   UNL     1      45.703   4.072  11.128  0.00  0.00    +0.000 A 
BRANCH  21  23
ATOM     23  C   UNL     1      45.563   3.198   8.784  0.00  0.00    +0.000 A 
ATOM     24  C   UNL     1      46.080   3.891   7.679  0.00  0.00    +0.000 A 
ATOM     25  C   UNL     1      46.734   3.209   6.652  0.00  0.00    +0.000 A 
ATOM     26  C   UNL     1      46.858   1.836   6.753  0.00  0.00    +0.000 A 
ATOM     27  N   UNL     1      46.363   1.115   7.779  0.00  0.00    +0.000 NA
ATOM     28  C   UNL     1      45.727   1.810   8.757  0.00  0.00    +0.000 A 
ENDBRANCH  21  23
ENDBRANCH   1  17
TORSDOF 4
ENDMDL
MODEL 6
REMARK VINA RESULT:    -6.277      3.372      5.867
REMARK INTER + INTRA:          -8.879
REMARK INTER:                  -8.528
REMARK INTRA:                  -0.352
REMARK UNBOUND:                -1.134
REMARK  Name = 
REMARK  4 active torsions:
REMARK  status: ('A' for Active; 'I' for Inactive)
REMARK    1  A    between atoms: C_2  and  C_4
REMARK    2  A    between atoms: N_8  and  C_9
REMARK    3  A    between atoms: C_9  and  C_10
REMARK    4  A    between atoms: C_14  and  C_15
REMARK                            x       y       z     vdW  Elec       q    Type
REMARK                         _______ _______ _______ _____ _____    ______ ____
ROOT
ATOM      1  C   UNL     1      47.432   8.469  13.081  0.00  0.00    +0.000 C 
ATOM      2  C   UNL     1      47.499   9.939  12.688  0.00  0.00    +0.000 C 
ATOM      3  C   UNL     1      48.061   8.904  11.771  0.00  0.00    +0.000 C 
ENDROOT
BRANCH   1   8
ATOM      4  C   UNL     1      44.656   4.354  11.513  0.00  0.00    +0.000 A 
ATOM      5  C   UNL     1      45.616   5.067  10.803  0.00  0.00    +0.000 A 
ATOM      6  C   UNL     1      46.141   6.237  11.355  0.00  0.00    +0.000 A 
ATOM      7  C   UNL     1      45.690   6.681  12.595  0.00  0.00    +0.000 A 
ATOM      8  N   UNL     1      46.073   7.904  13.159  0.00  0.00    +0.000 N 
ATOM      9  N   UNL     1      44.764   5.991  13.296  0.00  0.00    +0.000 NA
ATOM     10  C   UNL     1      44.265   4.854  12.745  0.00  0.00    +0.000 A 
ATOM     11  H   UNL     1      45.651   7.910  14.088  0.00  0.00    +0.000 HD
BRANCH   4  13
ATOM     12  N   UNL     1      44.637   2.461   9.985  0.00  0.00    +0.000 N 
ATOM     13  C   UNL     1      43.999   3.139  10.987  0.00  0.00    +0.000 C 
ATOM     14  O   UNL     1      42.936   2.738  11.444  0.00  0.00    +0.000 OA
ATOM     15  H   UNL     1      44.216   1.587   9.697  0.00  0.00    +0.000 HD
ATOM     16  H   UNL     1      45.610   2.609   9.757  0.00  0.00    +0.000 HD
ENDBRANCH   4  13
ENDBRANCH   1   8
BRANCH   1  17
ATOM     17  C   UNL     1      48.343   7.975  14.202  0.00  0.00    +0.000 A 
ATOM     18  C   UNL     1      49.309   8.800  14.796  0.00  0.00    +0.000 A 
ATOM     19  C   UNL     1      50.042   8.373  15.902  0.00  0.00    +0.000 A 
ATOM     20  C   UNL     1      49.802   7.115  16.456  0.00  0.00    +0.000 A 
ATOM     21  C   UNL     1      48.837   6.255  15.910  0.00  0.00    +0.000 A 
ATOM     22  C   UNL     1      48.152   6.697  14.762  0.00  0.00    +0.000 A 
BRANCH  21  23
ATOM     23  C   UNL     1      48.462   4.983  16.563  0.00  0.00    +0.000 A 
ATOM     24  C   UNL     1      49.307   4.352  17.487  0.00  0.00    +0.000 A 
ATOM     25  C   UNL     1      48.889   3.211  18.174  0.00  0.00    +0.000 A 
ATOM     26  C   UNL     1      47.622   2.721  17.918  0.00  0.00    +0.000 A 
ATOM     27  N   UNL     1      46.775   3.272  17.025  0.00  0.00    +0.000 NA
ATOM     28  C   UNL     1      47.217   4.376  16.371  0.00  0.00    +0.000 A 
ENDBRANCH  21  23
ENDBRANCH   1  17
TORSDOF 4
ENDMDL
MODEL 7
REMARK VINA RESULT:    -6.243      3.647      6.584
REMARK INTER + INTRA:          -8.837
REMARK INTER:                  -7.804
REMARK INTRA:                  -1.033
REMARK UNBOUND:                -1.134
REMARK  Name = 
REMARK  4 active torsions:
REMARK  status: ('A' for Active; 'I' for Inactive)
REMARK    1  A    between atoms: C_2  and  C_4
REMARK    2  A    between atoms: N_8  and  C_9
REMARK    3  A    between atoms: C_9  and  C_10
REMARK    4  A    between atoms: C_14  and  C_15
REMARK                            x       y       z     vdW  Elec       q    Type
REMARK                         _______ _______ _______ _____ _____    ______ ____
ROOT
ATOM      1  C   UNL     1      49.251   8.547  12.711  0.00  0.00    +0.000 C 
ATOM      2  C   UNL     1      50.459   9.309  12.180  0.00  0.00    +0.000 C 
ATOM      3  C   UNL     1      50.362   7.836  11.961  0.00  0.00    +0.000 C 
ENDROOT
BRANCH   1   8
ATOM      4  C   UNL     1      44.628   6.476  11.515  0.00  0.00    +0.000 A 
ATOM      5  C   UNL     1      45.885   5.889  11.422  0.00  0.00    +0.000 A 
ATOM      6  C   UNL     1      47.019   6.669  11.653  0.00  0.00    +0.000 A 
ATOM      7  C   UNL     1      46.880   8.021  11.957  0.00  0.00    +0.000 A 
ATOM      8  N   UNL     1      47.965   8.897  12.080  0.00  0.00    +0.000 N 
ATOM      9  N   UNL     1      45.663   8.599  12.057  0.00  0.00    +0.000 NA
ATOM     10  C   UNL     1      44.569   7.824  11.831  0.00  0.00    +0.000 A 
ATOM     11  H   UNL     1      47.558   9.782  12.382  0.00  0.00    +0.000 HD
BRANCH   4  13
ATOM     12  N   UNL     1      42.215   6.265  11.741  0.00  0.00    +0.000 N 
ATOM     13  C   UNL     1      43.373   5.748  11.229  0.00  0.00    +0.000 C 
ATOM     14  O   UNL     1      43.364   4.736  10.541  0.00  0.00    +0.000 OA
ATOM     15  H   UNL     1      41.358   5.802  11.465  0.00  0.00    +0.000 HD
ATOM     16  H   UNL     1      42.144   7.209  12.093  0.00  0.00    +0.000 HD
ENDBRANCH   4  13
ENDBRANCH   1   8
BRANCH   1  17
ATOM     17  C   UNL     1      49.131   8.334  14.217  0.00  0.00    +0.000 A 
ATOM     18  C   UNL     1      48.996   9.405  15.114  0.00  0.00    +0.000 A 
ATOM     19  C   UNL     1      48.759   9.186  16.470  0.00  0.00    +0.000 A 
ATOM     20  C   UNL     1      48.625   7.884  16.955  0.00  0.00    +0.000 A 
ATOM     21  C   UNL     1      48.738   6.777  16.100  0.00  0.00    +0.000 A 
ATOM     22  C   UNL     1      49.029   7.033  14.746  0.00  0.00    +0.000 A 
BRANCH  21  23
ATOM     23  C   UNL     1      48.456   5.401  16.559  0.00  0.00    +0.000 A 
ATOM     24  C   UNL     1      49.064   4.868  17.705  0.00  0.00    +0.000 A 
ATOM     25  C   UNL     1      48.703   3.608  18.183  0.00  0.00    +0.000 A 
ATOM     26  C   UNL     1      47.732   2.901  17.498  0.00  0.00    +0.000 A 
ATOM     27  N   UNL     1      47.129   3.353  16.380  0.00  0.00    +0.000 NA
ATOM     28  C   UNL     1      47.510   4.580  15.940  0.00  0.00    +0.000 A 
ENDBRANCH  21  23
ENDBRANCH   1  17
TORSDOF 4
ENDMDL
