MODEL 1
REMARK VINA RESULT:    -7.948      0.000      0.000
REMARK INTER + INTRA:         -11.763
REMARK INTER:                 -10.736
REMARK INTRA:                  -1.027
REMARK UNBOUND:                -1.027
REMARK  Name = 
REMARK  6 active torsions:
REMARK  status: ('A' for Active; 'I' for Inactive)
REMARK    1  A    between atoms: C_2  and  C_25
REMARK    2  A    between atoms: N_3  and  C_4
REMARK    3  A    between atoms: C_4  and  C_5
REMARK    4  A    between atoms: C_8  and  C_9
REMARK    5  A    between atoms: C_9  and  N_10
REMARK    6  A    between atoms: C_11  and  C_13
REMARK                            x       y       z     vdW  Elec       q    Type
REMARK                         _______ _______ _______ _____ _____    ______ ____
ROOT
ATOM      1  C   UNL     1      45.095   6.156  11.065  0.00  0.00    +0.000 A 
ATOM      2  C   UNL     1      44.505   7.259  11.677  0.00  0.00    +0.000 A 
ATOM      3  C   UNL     1      45.257   8.023  12.568  0.00  0.00    +0.000 A 
ATOM      4  C   UNL     1      46.580   7.669  12.846  0.00  0.00    +0.000 A 
ATOM      5  C   UNL     1      47.094   6.572  12.165  0.00  0.00    +0.000 A 
ATOM      6  N   UNL     1      46.392   5.816  11.284  0.00  0.00    +0.000 NA
ENDROOT
BRANCH   1   7
ATOM      7  C   UNL     1      44.293   5.299  10.111  0.00  0.00    +0.000 C 
BRANCH   7  10
ATOM      8  O   UNL     1      44.304   2.523   9.616  0.00  0.00    +0.000 OA
ATOM      9  C   UNL     1      45.055   3.246   8.968  0.00  0.00    +0.000 C 
ATOM     10  N   UNL     1      45.127   4.605   9.155  0.00  0.00    +0.000 N 
ATOM     11  H   UNL     1      45.610   5.171   8.474  0.00  0.00    +0.000 HD
BRANCH   9  12
ATOM     12  C   UNL     1      45.924   2.729   7.931  0.00  0.00    +0.000 A 
ATOM     13  C   UNL     1      46.386   3.290   6.751  0.00  0.00    +0.000 A 
ATOM     14  C   UNL     1      47.192   2.332   6.090  0.00  0.00    +0.000 A 
ATOM     15  C   UNL     1      47.226   1.211   6.886  0.00  0.00    +0.000 A 
ATOM     16  N   UNL     1      46.481   1.468   8.007  0.00  0.00    +0.000 N 
ATOM     17  H   UNL     1      46.334   0.833   8.781  0.00  0.00    +0.000 HD
ENDBRANCH   9  12
ENDBRANCH   7  10
ENDBRANCH   1   7
BRANCH   4  18
ATOM     18  C   UNL     1      47.418   8.450  13.816  0.00  0.00    +0.000 C 
BRANCH  18  19
ATOM     19  N   UNL     1      47.772   7.654  14.970  0.00  0.00    +0.000 N 
ATOM     20  C   UNL     1      48.992   7.030  15.066  0.00  0.00    +0.000 C 
ATOM     21  O   UNL     1      49.859   7.149  14.202  0.00  0.00    +0.000 OA
ATOM     22  H   UNL     1      47.008   7.322  15.544  0.00  0.00    +0.000 HD
BRANCH  20  23
ATOM     23  C   UNL     1      49.228   6.258  16.293  0.00  0.00    +0.000 A 
ATOM     24  C   UNL     1      50.235   6.636  17.173  0.00  0.00    +0.000 A 
ATOM     25  S   UNL     1      50.331   5.655  18.566  0.00  0.00    +0.000 S 
ATOM     26  C   UNL     1      49.066   4.658  18.020  0.00  0.00    +0.000 A 
ATOM     27  N   UNL     1      48.656   3.582  18.744  0.00  0.00    +0.000 NA
ATOM     28  C   UNL     1      47.706   2.898  18.196  0.00  0.00    +0.000 A 
ATOM     29  N   UNL     1      47.125   3.200  16.993  0.00  0.00    +0.000 N 
ATOM     30  C   UNL     1      47.479   4.295  16.246  0.00  0.00    +0.000 A 
ATOM     31  O   UNL     1      46.900   4.567  15.198  0.00  0.00    +0.000 OA
ATOM     32  C   UNL     1      48.559   5.085  16.806  0.00  0.00    +0.000 A 
ATOM     33  H   UNL     1      46.373   2.632  16.625  0.00  0.00    +0.000 HD
ENDBRANCH  20  23
ENDBRANCH  18  19
ENDBRANCH   4  18
TORSDOF 6
ENDMDL
MODEL 2
REMARK VINA RESULT:    -7.549      2.140      2.595
REMARK INTER + INTRA:         -11.224
REMARK INTER:                 -10.257
REMARK INTRA:                  -0.967
REMARK UNBOUND:                -1.027
REMARK  Name = 
REMARK  6 active torsions:
REMARK  status: ('A' for Active; 'I' for Inactive)
REMARK    1  A    between atoms: C_2  and  C_25
REMARK    2  A    between atoms: N_3  and  C_4
REMARK    3  A    between atoms: C_4  and  C_5
REMARK    4  A    between atoms: C_8  and  C_9
REMARK    5  A    between atoms: C_9  and  N_10
REMARK    6  A    between atoms: C_11  and  C_13
REMARK                            x       y       z     vdW  Elec       q    Type
REMARK                         _______ _______ _______ _____ _____    ______ ____
ROOT
ATOM      1  C   UNL     1      45.178   5.143  11.399  0.00  0.00    +0.000 A 
ATOM      2  C   UNL     1      45.635   4.558  12.576  0.00  0.00    +0.000 A 
ATOM      3  C   UNL     1      46.522   5.266  13.385  0.00  0.00    +0.000 A 
ATOM      4  C   UNL     1      46.950   6.540  13.003  0.00  0.00    +0.000 A 
ATOM      5  C   UNL     1      46.415   7.056  11.828  0.00  0.00    +0.000 A 
ATOM      6  N   UNL     1      45.542   6.397  11.025  0.00  0.00    +0.000 NA
ENDROOT
BRANCH   1   7
ATOM      7  C   UNL     1      44.231   4.386  10.493  0.00  0.00    +0.000 C 
BRANCH   7  10
ATOM      8  O   UNL     1      45.626   4.817   8.081  0.00  0.00    +0.000 OA
ATOM      9  C   UNL     1      45.575   3.681   8.545  0.00  0.00    +0.000 C 
ATOM     10  N   UNL     1      44.904   3.379   9.704  0.00  0.00    +0.000 N 
ATOM     11  H   UNL     1      45.053   2.482  10.140  0.00  0.00    +0.000 HD
BRANCH   9  12
ATOM     12  C   UNL     1      46.236   2.558   7.914  0.00  0.00    +0.000 A 
ATOM     13  C   UNL     1      47.135   2.490   6.861  0.00  0.00    +0.000 A 
ATOM     14  C   UNL     1      47.447   1.128   6.631  0.00  0.00    +0.000 A 
ATOM     15  C   UNL     1      46.753   0.390   7.560  0.00  0.00    +0.000 A 
ATOM     16  N   UNL     1      46.046   1.261   8.347  0.00  0.00    +0.000 N 
ATOM     17  H   UNL     1      45.451   1.009   9.127  0.00  0.00    +0.000 HD
ENDBRANCH   9  12
ENDBRANCH   7  10
ENDBRANCH   1   7
BRANCH   4  18
ATOM     18  C   UNL     1      47.921   7.329  13.832  0.00  0.00    +0.000 C 
BRANCH  18  19
ATOM     19  N   UNL     1      47.905   6.905  15.214  0.00  0.00    +0.000 N 
ATOM     20  C   UNL     1      49.058   6.553  15.872  0.00  0.00    +0.000 C 
ATOM     21  O   UNL     1      50.164   6.622  15.338  0.00  0.00    +0.000 OA
ATOM     22  H   UNL     1      47.018   6.583  15.580  0.00  0.00    +0.000 HD
BRANCH  20  23
ATOM     23  C   UNL     1      48.904   6.147  17.275  0.00  0.00    +0.000 A 
ATOM     24  C   UNL     1      49.245   4.859  17.669  0.00  0.00    +0.000 A 
ATOM     25  S   UNL     1      49.049   4.581  19.342  0.00  0.00    +0.000 S 
ATOM     26  C   UNL     1      48.452   6.155  19.590  0.00  0.00    +0.000 A 
ATOM     27  N   UNL     1      48.058   6.571  20.824  0.00  0.00    +0.000 NA
ATOM     28  C   UNL     1      47.599   7.778  20.861  0.00  0.00    +0.000 A 
ATOM     29  N   UNL     1      47.508   8.609  19.775  0.00  0.00    +0.000 N 
ATOM     30  C   UNL     1      47.927   8.247  18.520  0.00  0.00    +0.000 A 
ATOM     31  O   UNL     1      47.882   9.035  17.580  0.00  0.00    +0.000 OA
ATOM     32  C   UNL     1      48.430   6.890  18.419  0.00  0.00    +0.000 A 
ATOM     33  H   UNL     1      47.154   9.551  19.873  0.00  0.00    +0.000 HD
ENDBRANCH  20  23
ENDBRANCH  18  19
ENDBRANCH   4  18
TORSDOF 6
ENDMDL
MODEL 3
REMARK VINA RESULT:    -7.545      1.628      1.905
REMARK INTER + INTRA:         -11.219
REMARK INTER:                 -10.315
REMARK INTRA:                  -0.903
REMARK UNBOUND:                -1.027
REMARK  Name = 
REMARK  6 active torsions:
REMARK  status: ('A' for Active; 'I' for Inactive)
REMARK    1  A    between atoms: C_2  and  C_25
REMARK    2  A    between atoms: N_3  and  C_4
REMARK    3  A    between atoms: C_4  and  C_5
REMARK    4  A    between atoms: C_8  and  C_9
REMARK    5  A    between atoms: C_9  and  N_10
REMARK    6  A    between atoms: C_11  and  C_13
REMARK                            x       y       z     vdW  Elec       q    Type
REMARK                         _______ _______ _______ _____ _____    ______ ____
ROOT
ATOM      1  C   UNL     1      45.327   4.615  12.061  0.00  0.00    +0.000 A 
ATOM      2  C   UNL     1      46.074   4.264  13.181  0.00  0.00    +0.000 A 
ATOM      3  C   UNL     1      46.901   5.218  13.772  0.00  0.00    +0.000 A 
ATOM      4  C   UNL     1      46.980   6.503  13.230  0.00  0.00    +0.000 A 
ATOM      5  C   UNL     1      46.174   6.772  12.129  0.00  0.00    +0.000 A 
ATOM      6  N   UNL     1      45.352   5.869  11.539  0.00  0.00    +0.000 NA
ENDROOT
BRANCH   1   7
ATOM      7  C   UNL     1      44.439   3.590  11.389  0.00  0.00    +0.000 C 
BRANCH   7  10
ATOM      8  O   UNL     1      44.519   4.220   8.642  0.00  0.00    +0.000 OA
ATOM      9  C   UNL     1      45.129   3.233   9.044  0.00  0.00    +0.000 C 
ATOM     10  N   UNL     1      45.131   2.845  10.361  0.00  0.00    +0.000 N 
ATOM     11  H   UNL     1      45.795   2.151  10.670  0.00  0.00    +0.000 HD
BRANCH   9  12
ATOM     12  C   UNL     1      45.919   2.399   8.163  0.00  0.00    +0.000 A 
ATOM     13  C   UNL     1      46.689   2.703   7.051  0.00  0.00    +0.000 A 
ATOM     14  C   UNL     1      47.229   1.497   6.543  0.00  0.00    +0.000 A 
ATOM     15  C   UNL     1      46.800   0.482   7.364  0.00  0.00    +0.000 A 
ATOM     16  N   UNL     1      46.032   1.037   8.354  0.00  0.00    +0.000 N 
ATOM     17  H   UNL     1      45.589   0.535   9.114  0.00  0.00    +0.000 HD
ENDBRANCH   9  12
ENDBRANCH   7  10
ENDBRANCH   1   7
BRANCH   4  18
ATOM     18  C   UNL     1      47.874   7.555  13.819  0.00  0.00    +0.000 C 
BRANCH  18  19
ATOM     19  N   UNL     1      47.940   7.448  15.259  0.00  0.00    +0.000 N 
ATOM     20  C   UNL     1      49.068   6.990  15.896  0.00  0.00    +0.000 C 
ATOM     21  O   UNL     1      50.091   6.691  15.282  0.00  0.00    +0.000 OA
ATOM     22  H   UNL     1      47.057   7.422  15.754  0.00  0.00    +0.000 HD
BRANCH  20  23
ATOM     23  C   UNL     1      49.006   6.936  17.362  0.00  0.00    +0.000 A 
ATOM     24  C   UNL     1      49.109   8.104  18.108  0.00  0.00    +0.000 A 
ATOM     25  S   UNL     1      48.966   7.856  19.791  0.00  0.00    +0.000 S 
ATOM     26  C   UNL     1      48.813   6.174  19.587  0.00  0.00    +0.000 A 
ATOM     27  N   UNL     1      48.685   5.345  20.658  0.00  0.00    +0.000 NA
ATOM     28  C   UNL     1      48.607   4.091  20.357  0.00  0.00    +0.000 A 
ATOM     29  N   UNL     1      48.638   3.593  19.080  0.00  0.00    +0.000 N 
ATOM     30  C   UNL     1      48.730   4.393  17.969  0.00  0.00    +0.000 A 
ATOM     31  O   UNL     1      48.700   3.919  16.837  0.00  0.00    +0.000 OA
ATOM     32  C   UNL     1      48.843   5.811  18.253  0.00  0.00    +0.000 A 
ATOM     33  H   UNL     1      48.557   2.600  18.910  0.00  0.00    +0.000 HD
ENDBRANCH  20  23
ENDBRANCH  18  19
ENDBRANCH   4  18
TORSDOF 6
ENDMDL
MODEL 4
REMARK VINA RESULT:    -7.175      1.713      2.092
REMARK INTER + INTRA:         -10.719
REMARK INTER:                  -9.681
REMARK INTRA:                  -1.039
REMARK UNBOUND:                -1.027
REMARK  Name = 
REMARK  6 active torsions:
REMARK  status: ('A' for Active; 'I' for Inactive)
REMARK    1  A    between atoms: C_2  and  C_25
REMARK    2  A    between atoms: N_3  and  C_4
REMARK    3  A    between atoms: C_4  and  C_5
REMARK    4  A    between atoms: C_8  and  C_9
REMARK    5  A    between atoms: C_9  and  N_10
REMARK    6  A    between atoms: C_11  and  C_13
REMARK                            x       y       z     vdW  Elec       q    Type
REMARK                         _______ _______ _______ _____ _____    ______ ____
ROOT
ATOM      1  C   UNL     1      44.704   4.842  11.637  0.00  0.00    +0.000 A 
ATOM      2  C   UNL     1      45.574   4.466  12.656  0.00  0.00    +0.000 A 
ATOM      3  C   UNL     1      46.306   5.449  13.320  0.00  0.00    +0.000 A 
ATOM      4  C   UNL     1      46.171   6.789  12.949  0.00  0.00    +0.000 A 
ATOM      5  C   UNL     1      45.255   7.073  11.942  0.00  0.00    +0.000 A 
ATOM      6  N   UNL     1      44.520   6.141  11.286  0.00  0.00    +0.000 NA
ENDROOT
BRANCH   1   7
ATOM      7  C   UNL     1      43.914   3.792  10.888  0.00  0.00    +0.000 C 
BRANCH   7  10
ATOM      8  O   UNL     1      44.703   4.351   8.239  0.00  0.00    +0.000 OA
ATOM      9  C   UNL     1      45.098   3.318   8.773  0.00  0.00    +0.000 C 
ATOM     10  N   UNL     1      44.750   2.960  10.051  0.00  0.00    +0.000 N 
ATOM     11  H   UNL     1      45.249   2.211  10.507  0.00  0.00    +0.000 HD
BRANCH   9  12
ATOM     12  C   UNL     1      45.986   2.392   8.102  0.00  0.00    +0.000 A 
ATOM     13  C   UNL     1      46.084   1.010   8.152  0.00  0.00    +0.000 A 
ATOM     14  C   UNL     1      47.152   0.610   7.312  0.00  0.00    +0.000 A 
ATOM     15  C   UNL     1      47.673   1.750   6.747  0.00  0.00    +0.000 A 
ATOM     16  N   UNL     1      46.947   2.818   7.208  0.00  0.00    +0.000 N 
ATOM     17  H   UNL     1      47.091   3.788   6.955  0.00  0.00    +0.000 HD
ENDBRANCH   9  12
ENDBRANCH   7  10
ENDBRANCH   1   7
BRANCH   4  18
ATOM     18  C   UNL     1      46.956   7.877  13.621  0.00  0.00    +0.000 C 
BRANCH  18  19
ATOM     19  N   UNL     1      48.125   7.351  14.290  0.00  0.00    +0.000 N 
ATOM     20  C   UNL     1      48.638   7.949  15.416  0.00  0.00    +0.000 C 
ATOM     21  O   UNL     1      48.110   8.930  15.936  0.00  0.00    +0.000 OA
ATOM     22  H   UNL     1      48.720   6.737  13.750  0.00  0.00    +0.000 HD
BRANCH  20  23
ATOM     23  C   UNL     1      49.825   7.311  16.002  0.00  0.00    +0.000 A 
ATOM     24  C   UNL     1      51.051   7.965  15.980  0.00  0.00    +0.000 A 
ATOM     25  S   UNL     1      52.303   7.097  16.750  0.00  0.00    +0.000 S 
ATOM     26  C   UNL     1      51.265   5.795  17.094  0.00  0.00    +0.000 A 
ATOM     27  N   UNL     1      51.721   4.681  17.729  0.00  0.00    +0.000 NA
ATOM     28  C   UNL     1      50.831   3.760  17.899  0.00  0.00    +0.000 A 
ATOM     29  N   UNL     1      49.524   3.857  17.499  0.00  0.00    +0.000 N 
ATOM     30  C   UNL     1      49.010   4.974  16.889  0.00  0.00    +0.000 A 
ATOM     31  O   UNL     1      47.822   5.050  16.593  0.00  0.00    +0.000 OA
ATOM     32  C   UNL     1      49.975   6.031  16.653  0.00  0.00    +0.000 A 
ATOM     33  H   UNL     1      48.871   3.105  17.677  0.00  0.00    +0.000 HD
ENDBRANCH  20  23
ENDBRANCH  18  19
ENDBRANCH   4  18
TORSDOF 6
ENDMDL
MODEL 5
REMARK VINA RESULT:    -6.990      3.936      5.234
REMARK INTER + INTRA:         -10.469
REMARK INTER:                  -9.450
REMARK INTRA:                  -1.019
REMARK UNBOUND:                -1.027
REMARK  Name = 
REMARK  6 active torsions:
REMARK  status: ('A' for Active; 'I' for Inactive)
REMARK    1  A    between atoms: C_2  and  C_25
REMARK    2  A    between atoms: N_3  and  C_4
REMARK    3  A    between atoms: C_4  and  C_5
REMARK    4  A    between atoms: C_8  and  C_9
REMARK    5  A    between atoms: C_9  and  N_10
REMARK    6  A    between atoms: C_11  and  C_13
REMARK                            x       y       z     vdW  Elec       q    Type
REMARK                         _______ _______ _______ _____ _____    ______ ____
ROOT
ATOM      1  C   UNL     1      44.822   4.806  12.094  0.00  0.00    +0.000 A 
ATOM      2  C   UNL     1      45.995   4.980  12.824  0.00  0.00    +0.000 A 
ATOM      3  C   UNL     1      46.422   6.273  13.123  0.00  0.00    +0.000 A 
ATOM      4  C   UNL     1      45.683   7.372  12.679  0.00  0.00    +0.000 A 
ATOM      5  C   UNL     1      44.509   7.101  11.984  0.00  0.00    +0.000 A 
ATOM      6  N   UNL     1      44.061   5.855  11.688  0.00  0.00    +0.000 NA
ENDROOT
BRANCH   1   7
ATOM      7  C   UNL     1      44.349   3.414  11.740  0.00  0.00    +0.000 C 
BRANCH   7  10
ATOM      8  O   UNL     1      44.134   4.011   8.993  0.00  0.00    +0.000 OA
ATOM      9  C   UNL     1      44.962   3.182   9.358  0.00  0.00    +0.000 C 
ATOM     10  N   UNL     1      45.122   2.819  10.672  0.00  0.00    +0.000 N 
ATOM     11  H   UNL     1      45.936   2.286  10.941  0.00  0.00    +0.000 HD
BRANCH   9  12
ATOM     12  C   UNL     1      45.859   2.523   8.432  0.00  0.00    +0.000 A 
ATOM     13  C   UNL     1      46.102   1.182   8.180  0.00  0.00    +0.000 A 
ATOM     14  C   UNL     1      47.104   1.092   7.185  0.00  0.00    +0.000 A 
ATOM     15  C   UNL     1      47.441   2.376   6.830  0.00  0.00    +0.000 A 
ATOM     16  N   UNL     1      46.666   3.233   7.567  0.00  0.00    +0.000 N 
ATOM     17  H   UNL     1      46.682   4.244   7.512  0.00  0.00    +0.000 HD
ENDBRANCH   9  12
ENDBRANCH   7  10
ENDBRANCH   1   7
BRANCH   4  18
ATOM     18  C   UNL     1      46.119   8.781  12.957  0.00  0.00    +0.000 C 
BRANCH  18  19
ATOM     19  N   UNL     1      47.333   9.111  12.245  0.00  0.00    +0.000 N 
ATOM     20  C   UNL     1      48.342   9.828  12.840  0.00  0.00    +0.000 C 
ATOM     21  O   UNL     1      48.287  10.187  14.015  0.00  0.00    +0.000 OA
ATOM     22  H   UNL     1      47.292   9.073  11.235  0.00  0.00    +0.000 HD
BRANCH  20  23
ATOM     23  C   UNL     1      49.525  10.091  12.009  0.00  0.00    +0.000 A 
ATOM     24  C   UNL     1      49.876  11.397  11.689  0.00  0.00    +0.000 A 
ATOM     25  S   UNL     1      51.303  11.513  10.760  0.00  0.00    +0.000 S 
ATOM     26  C   UNL     1      51.475   9.822  10.708  0.00  0.00    +0.000 A 
ATOM     27  N   UNL     1      52.500   9.240  10.030  0.00  0.00    +0.000 NA
ATOM     28  C   UNL     1      52.491   7.948  10.051  0.00  0.00    +0.000 A 
ATOM     29  N   UNL     1      51.552   7.187  10.697  0.00  0.00    +0.000 N 
ATOM     30  C   UNL     1      50.522   7.730  11.424  0.00  0.00    +0.000 A 
ATOM     31  O   UNL     1      49.730   7.020  12.036  0.00  0.00    +0.000 OA
ATOM     32  C   UNL     1      50.473   9.179  11.413  0.00  0.00    +0.000 A 
ATOM     33  H   UNL     1      51.610   6.177  10.689  0.00  0.00    +0.000 HD
ENDBRANCH  20  23
ENDBRANCH  18  19
ENDBRANCH   4  18
TORSDOF 6
ENDMDL
MODEL 6
REMARK VINA RESULT:    -6.917      3.458      8.128
REMARK INTER + INTRA:         -10.370
REMARK INTER:                  -9.476
REMARK INTRA:                  -0.894
REMARK UNBOUND:                -1.027
REMARK  Name = 
REMARK  6 active torsions:
REMARK  status: ('A' for Active; 'I' for Inactive)
REMARK    1  A    between atoms: C_2  and  C_25
REMARK    2  A    between atoms: N_3  and  C_4
REMARK    3  A    between atoms: C_4  and  C_5
REMARK    4  A    between atoms: C_8  and  C_9
REMARK    5  A    between atoms: C_9  and  N_10
REMARK    6  A    between atoms: C_11  and  C_13
REMARK                            x       y       z     vdW  Elec       q    Type
REMARK                         _______ _______ _______ _____ _____    ______ ____
ROOT
ATOM      1  C   UNL     1      49.515   6.532  16.278  0.00  0.00    +0.000 A 
ATOM      2  C   UNL     1      50.261   7.540  15.674  0.00  0.00    +0.000 A 
ATOM      3  C   UNL     1      49.951   7.925  14.370  0.00  0.00    +0.000 A 
ATOM      4  C   UNL     1      48.912   7.290  13.685  0.00  0.00    +0.000 A 
ATOM      5  C   UNL     1      48.202   6.317  14.379  0.00  0.00    +0.000 A 
ATOM      6  N   UNL     1      48.472   5.929  15.651  0.00  0.00    +0.000 NA
ENDROOT
BRANCH   1   7
ATOM      7  C   UNL     1      49.846   6.083  17.684  0.00  0.00    +0.000 C 
BRANCH   7  10
ATOM      8  O   UNL     1      49.204   3.352  17.965  0.00  0.00    +0.000 OA
ATOM      9  C   UNL     1      50.381   3.676  17.835  0.00  0.00    +0.000 C 
ATOM     10  N   UNL     1      50.784   4.982  17.709  0.00  0.00    +0.000 N 
ATOM     11  H   UNL     1      51.728   5.181  17.415  0.00  0.00    +0.000 HD
BRANCH   9  12
ATOM     12  C   UNL     1      51.451   2.702  17.786  0.00  0.00    +0.000 A 
ATOM     13  C   UNL     1      52.811   2.814  18.031  0.00  0.00    +0.000 A 
ATOM     14  C   UNL     1      53.407   1.549  17.810  0.00  0.00    +0.000 A 
ATOM     15  C   UNL     1      52.401   0.682  17.455  0.00  0.00    +0.000 A 
ATOM     16  N   UNL     1      51.220   1.379  17.468  0.00  0.00    +0.000 N 
ATOM     17  H   UNL     1      50.304   1.000  17.262  0.00  0.00    +0.000 HD
ENDBRANCH   9  12
ENDBRANCH   7  10
ENDBRANCH   1   7
BRANCH   4  18
ATOM     18  C   UNL     1      48.559   7.656  12.273  0.00  0.00    +0.000 C 
BRANCH  18  19
ATOM     19  N   UNL     1      47.761   6.628  11.642  0.00  0.00    +0.000 N 
ATOM     20  C   UNL     1      46.408   6.777  11.461  0.00  0.00    +0.000 C 
ATOM     21  O   UNL     1      45.813   7.804  11.783  0.00  0.00    +0.000 OA
ATOM     22  H   UNL     1      48.156   5.696  11.621  0.00  0.00    +0.000 HD
BRANCH  20  23
ATOM     23  C   UNL     1      45.716   5.661  10.802  0.00  0.00    +0.000 A 
ATOM     24  C   UNL     1      45.773   5.524   9.421  0.00  0.00    +0.000 A 
ATOM     25  S   UNL     1      44.955   4.145   8.836  0.00  0.00    +0.000 S 
ATOM     26  C   UNL     1      44.453   3.710  10.402  0.00  0.00    +0.000 A 
ATOM     27  N   UNL     1      43.674   2.614  10.611  0.00  0.00    +0.000 NA
ATOM     28  C   UNL     1      43.343   2.420  11.845  0.00  0.00    +0.000 A 
ATOM     29  N   UNL     1      43.730   3.220  12.889  0.00  0.00    +0.000 N 
ATOM     30  C   UNL     1      44.544   4.313  12.731  0.00  0.00    +0.000 A 
ATOM     31  O   UNL     1      44.916   4.976  13.695  0.00  0.00    +0.000 OA
ATOM     32  C   UNL     1      44.925   4.589  11.359  0.00  0.00    +0.000 A 
ATOM     33  H   UNL     1      43.450   3.004  13.837  0.00  0.00    +0.000 HD
ENDBRANCH  20  23
ENDBRANCH  18  19
ENDBRANCH   4  18
TORSDOF 6
ENDMDL
MODEL 7
REMARK VINA RESULT:    -6.859      3.820      8.244
REMARK INTER + INTRA:         -10.292
REMARK INTER:                  -9.374
REMARK INTRA:                  -0.918
REMARK UNBOUND:                -1.027
REMARK  Name = 
REMARK  6 active torsions:
REMARK  status: ('A' for Active; 'I' for Inactive)
REMARK    1  A    between atoms: C_2  and  C_25
REMARK    2  A    between atoms: N_3  and  C_4
REMARK    3  A    between atoms: C_4  and  C_5
REMARK    4  A    between atoms: C_8  and  C_9
REMARK    5  A    between atoms: C_9  and  N_10
REMARK    6  A    between atoms: C_11  and  C_13
REMARK                            x       y       z     vdW  Elec       q    Type
REMARK                         _______ _______ _______ _____ _____    ______ ____
ROOT
ATOM      1  C   UNL     1      50.120   4.729  17.822  0.00  0.00    +0.000 A 
ATOM      2  C   UNL     1      51.120   5.542  17.298  0.00  0.00    +0.000 A 
ATOM      3  C   UNL     1      50.777   6.535  16.382  0.00  0.00    +0.000 A 
ATOM      4  C   UNL     1      49.444   6.694  15.994  0.00  0.00    +0.000 A 
ATOM      5  C   UNL     1      48.510   5.857  16.594  0.00  0.00    +0.000 A 
ATOM      6  N   UNL     1      48.812   4.890  17.495  0.00  0.00    +0.000 NA
ENDROOT
BRANCH   1   7
ATOM      7  C   UNL     1      50.471   3.630  18.801  0.00  0.00    +0.000 C 
BRANCH   7  10
ATOM      8  O   UNL     1      50.718   1.313  17.214  0.00  0.00    +0.000 OA
ATOM      9  C   UNL     1      51.733   1.836  17.665  0.00  0.00    +0.000 C 
ATOM     10  N   UNL     1      51.704   2.955  18.460  0.00  0.00    +0.000 N 
ATOM     11  H   UNL     1      52.562   3.453  18.642  0.00  0.00    +0.000 HD
BRANCH   9  12
ATOM     12  C   UNL     1      53.058   1.325  17.382  0.00  0.00    +0.000 A 
ATOM     13  C   UNL     1      54.306   1.928  17.421  0.00  0.00    +0.000 A 
ATOM     14  C   UNL     1      55.272   0.974  17.021  0.00  0.00    +0.000 A 
ATOM     15  C   UNL     1      54.603  -0.200  16.768  0.00  0.00    +0.000 A 
ATOM     16  N   UNL     1      53.272   0.013  17.013  0.00  0.00    +0.000 N 
ATOM     17  H   UNL     1      52.534  -0.675  16.925  0.00  0.00    +0.000 HD
ENDBRANCH   9  12
ENDBRANCH   7  10
ENDBRANCH   1   7
BRANCH   4  18
ATOM     18  C   UNL     1      49.032   7.735  14.994  0.00  0.00    +0.000 C 
BRANCH  18  19
ATOM     19  N   UNL     1      47.810   7.365  14.316  0.00  0.00    +0.000 N 
ATOM     20  C   UNL     1      47.823   6.602  13.174  0.00  0.00    +0.000 C 
ATOM     21  O   UNL     1      48.865   6.159  12.694  0.00  0.00    +0.000 OA
ATOM     22  H   UNL     1      46.991   7.923  14.519  0.00  0.00    +0.000 HD
BRANCH  20  23
ATOM     23  C   UNL     1      46.513   6.292  12.588  0.00  0.00    +0.000 A 
ATOM     24  C   UNL     1      45.748   7.301  12.014  0.00  0.00    +0.000 A 
ATOM     25  S   UNL     1      44.281   6.748  11.341  0.00  0.00    +0.000 S 
ATOM     26  C   UNL     1      44.589   5.151  11.836  0.00  0.00    +0.000 A 
ATOM     27  N   UNL     1      43.694   4.155  11.595  0.00  0.00    +0.000 NA
ATOM     28  C   UNL     1      44.045   2.998  12.052  0.00  0.00    +0.000 A 
ATOM     29  N   UNL     1      45.214   2.748  12.721  0.00  0.00    +0.000 N 
ATOM     30  C   UNL     1      46.162   3.712  12.955  0.00  0.00    +0.000 A 
ATOM     31  O   UNL     1      47.224   3.442  13.509  0.00  0.00    +0.000 OA
ATOM     32  C   UNL     1      45.807   5.036  12.482  0.00  0.00    +0.000 A 
ATOM     33  H   UNL     1      45.438   1.814  13.040  0.00  0.00    +0.000 HD
ENDBRANCH  20  23
ENDBRANCH  18  19
ENDBRANCH   4  18
TORSDOF 6
ENDMDL
MODEL 8
REMARK VINA RESULT:    -6.686      2.234      3.910
REMARK INTER + INTRA:         -10.058
REMARK INTER:                  -9.040
REMARK INTRA:                  -1.018
REMARK UNBOUND:                -1.027
REMARK  Name = 
REMARK  6 active torsions:
REMARK  status: ('A' for Active; 'I' for Inactive)
REMARK    1  A    between atoms: C_2  and  C_25
REMARK    2  A    between atoms: N_3  and  C_4
REMARK    3  A    between atoms: C_4  and  C_5
REMARK    4  A    between atoms: C_8  and  C_9
REMARK    5  A    between atoms: C_9  and  N_10
REMARK    6  A    between atoms: C_11  and  C_13
REMARK                            x       y       z     vdW  Elec       q    Type
REMARK                         _______ _______ _______ _____ _____    ______ ____
ROOT
ATOM      1  C   UNL     1      44.972   4.689  11.191  0.00  0.00    +0.000 A 
ATOM      2  C   UNL     1      44.556   3.878  12.243  0.00  0.00    +0.000 A 
ATOM      3  C   UNL     1      45.229   3.949  13.461  0.00  0.00    +0.000 A 
ATOM      4  C   UNL     1      46.314   4.816  13.609  0.00  0.00    +0.000 A 
ATOM      5  C   UNL     1      46.637   5.611  12.515  0.00  0.00    +0.000 A 
ATOM      6  N   UNL     1      45.995   5.573  11.321  0.00  0.00    +0.000 NA
ENDROOT
BRANCH   1   7
ATOM      7  C   UNL     1      44.271   4.615   9.853  0.00  0.00    +0.000 C 
BRANCH   7  10
ATOM      8  O   UNL     1      45.009   1.987   9.149  0.00  0.00    +0.000 OA
ATOM      9  C   UNL     1      45.456   2.925   8.496  0.00  0.00    +0.000 C 
ATOM     10  N   UNL     1      45.162   4.236   8.779  0.00  0.00    +0.000 N 
ATOM     11  H   UNL     1      45.394   4.950   8.105  0.00  0.00    +0.000 HD
BRANCH   9  12
ATOM     12  C   UNL     1      46.323   2.730   7.353  0.00  0.00    +0.000 A 
ATOM     13  C   UNL     1      46.366   3.346   6.112  0.00  0.00    +0.000 A 
ATOM     14  C   UNL     1      47.402   2.749   5.355  0.00  0.00    +0.000 A 
ATOM     15  C   UNL     1      47.988   1.794   6.152  0.00  0.00    +0.000 A 
ATOM     16  N   UNL     1      47.349   1.807   7.364  0.00  0.00    +0.000 N 
ATOM     17  H   UNL     1      47.572   1.221   8.159  0.00  0.00    +0.000 HD
ENDBRANCH   9  12
ENDBRANCH   7  10
ENDBRANCH   1   7
BRANCH   4  18
ATOM     18  C   UNL     1      47.081   4.908  14.895  0.00  0.00    +0.000 C 
BRANCH  18  19
ATOM     19  N   UNL     1      47.697   6.207  15.054  0.00  0.00    +0.000 N 
ATOM     20  C   UNL     1      48.827   6.378  15.816  0.00  0.00    +0.000 C 
ATOM     21  O   UNL     1      49.397   5.437  16.364  0.00  0.00    +0.000 OA
ATOM     22  H   UNL     1      47.118   7.012  14.854  0.00  0.00    +0.000 HD
BRANCH  20  23
ATOM     23  C   UNL     1      49.355   7.747  15.890  0.00  0.00    +0.000 A 
ATOM     24  C   UNL     1      49.400   8.412  17.110  0.00  0.00    +0.000 A 
ATOM     25  S   UNL     1      50.089   9.971  17.014  0.00  0.00    +0.000 S 
ATOM     26  C   UNL     1      50.305   9.833  15.332  0.00  0.00    +0.000 A 
ATOM     27  N   UNL     1      50.833  10.855  14.605  0.00  0.00    +0.000 NA
ATOM     28  C   UNL     1      50.912  10.624  13.337  0.00  0.00    +0.000 A 
ATOM     29  N   UNL     1      50.518   9.460  12.731  0.00  0.00    +0.000 N 
ATOM     30  C   UNL     1      50.014   8.389  13.427  0.00  0.00    +0.000 A 
ATOM     31  O   UNL     1      49.722   7.341  12.861  0.00  0.00    +0.000 OA
ATOM     32  C   UNL     1      49.882   8.605  14.855  0.00  0.00    +0.000 A 
ATOM     33  H   UNL     1      50.621   9.335  11.733  0.00  0.00    +0.000 HD
ENDBRANCH  20  23
ENDBRANCH  18  19
ENDBRANCH   4  18
TORSDOF 6
ENDMDL
MODEL 9
REMARK VINA RESULT:    -6.157      2.908      8.894
REMARK INTER + INTRA:          -9.345
REMARK INTER:                  -8.441
REMARK INTRA:                  -0.904
REMARK UNBOUND:                -1.027
REMARK  Name = 
REMARK  6 active torsions:
REMARK  status: ('A' for Active; 'I' for Inactive)
REMARK    1  A    between atoms: C_2  and  C_25
REMARK    2  A    between atoms: N_3  and  C_4
REMARK    3  A    between atoms: C_4  and  C_5
REMARK    4  A    between atoms: C_8  and  C_9
REMARK    5  A    between atoms: C_9  and  N_10
REMARK    6  A    between atoms: C_11  and  C_13
REMARK                            x       y       z     vdW  Elec       q    Type
REMARK                         _______ _______ _______ _____ _____    ______ ____
ROOT
ATOM      1  C   UNL     1      49.709   8.286  15.256  0.00  0.00    +0.000 A 
ATOM      2  C   UNL     1      50.221   7.636  14.137  0.00  0.00    +0.000 A 
ATOM      3  C   UNL     1      49.455   7.580  12.975  0.00  0.00    +0.000 A 
ATOM      4  C   UNL     1      48.184   8.161  12.949  0.00  0.00    +0.000 A 
ATOM      5  C   UNL     1      47.768   8.815  14.103  0.00  0.00    +0.000 A 
ATOM      6  N   UNL     1      48.495   8.896  15.245  0.00  0.00    +0.000 NA
ENDROOT
BRANCH   1   7
ATOM      7  C   UNL     1      50.513   8.341  16.536  0.00  0.00    +0.000 C 
BRANCH   7  10
ATOM      8  O   UNL     1      50.317   5.593  17.138  0.00  0.00    +0.000 OA
ATOM      9  C   UNL     1      49.780   6.406  17.885  0.00  0.00    +0.000 C 
ATOM     10  N   UNL     1      49.811   7.760  17.659  0.00  0.00    +0.000 N 
ATOM     11  H   UNL     1      49.526   8.389  18.394  0.00  0.00    +0.000 HD
BRANCH   9  12
ATOM     12  C   UNL     1      49.077   6.006  19.086  0.00  0.00    +0.000 A 
ATOM     13  C   UNL     1      48.013   6.579  19.765  0.00  0.00    +0.000 A 
ATOM     14  C   UNL     1      47.735   5.786  20.904  0.00  0.00    +0.000 A 
ATOM     15  C   UNL     1      48.617   4.731  20.890  0.00  0.00    +0.000 A 
ATOM     16  N   UNL     1      49.405   4.857  19.776  0.00  0.00    +0.000 N 
ATOM     17  H   UNL     1      50.138   4.219  19.492  0.00  0.00    +0.000 HD
ENDBRANCH   9  12
ENDBRANCH   7  10
ENDBRANCH   1   7
BRANCH   4  18
ATOM     18  C   UNL     1      47.315   8.104  11.727  0.00  0.00    +0.000 C 
BRANCH  18  19
ATOM     19  N   UNL     1      46.677   6.815  11.589  0.00  0.00    +0.000 N 
ATOM     20  C   UNL     1      45.314   6.697  11.458  0.00  0.00    +0.000 C 
ATOM     21  O   UNL     1      44.574   7.678  11.407  0.00  0.00    +0.000 OA
ATOM     22  H   UNL     1      47.207   6.010  11.896  0.00  0.00    +0.000 HD
BRANCH  20  23
ATOM     23  C   UNL     1      44.793   5.331  11.321  0.00  0.00    +0.000 A 
ATOM     24  C   UNL     1      44.066   4.754  12.356  0.00  0.00    +0.000 A 
ATOM     25  S   UNL     1      43.499   3.184  12.001  0.00  0.00    +0.000 S 
ATOM     26  C   UNL     1      44.247   3.198  10.473  0.00  0.00    +0.000 A 
ATOM     27  N   UNL     1      44.176   2.120   9.645  0.00  0.00    +0.000 NA
ATOM     28  C   UNL     1      44.814   2.259   8.530  0.00  0.00    +0.000 A 
ATOM     29  N   UNL     1      45.509   3.383   8.166  0.00  0.00    +0.000 N 
ATOM     30  C   UNL     1      45.577   4.506   8.951  0.00  0.00    +0.000 A 
ATOM     31  O   UNL     1      46.163   5.515   8.570  0.00  0.00    +0.000 OA
ATOM     32  C   UNL     1      44.897   4.394  10.226  0.00  0.00    +0.000 A 
ATOM     33  H   UNL     1      45.974   3.435   7.270  0.00  0.00    +0.000 HD
ENDBRANCH  20  23
ENDBRANCH  18  19
ENDBRANCH   4  18
TORSDOF 6
ENDMDL
