MODEL 1
REMARK VINA RESULT:    -8.319      0.000      0.000
REMARK INTER + INTRA:         -13.314
REMARK INTER:                 -12.209
REMARK INTRA:                  -1.105
REMARK UNBOUND:                -1.105
REMARK  Name = 
REMARK  9 active torsions:
REMARK  status: ('A' for Active; 'I' for Inactive)
REMARK    1  A    between atoms: C_1  and  O_2
REMARK    2  A    between atoms: O_2  and  C_3
REMARK    3  A    between atoms: C_10  and  C_11
REMARK    4  A    between atoms: N_13  and  C_14
REMARK    5  A    between atoms: C_14  and  C_15
REMARK    6  A    between atoms: C_18  and  C_19
REMARK    7  A    between atoms: C_19  and  N_20
REMARK    8  A    between atoms: N_20  and  C_21
REMARK    9  A    between atoms: C_21  and  C_22
REMARK                            x       y       z     vdW  Elec       q    Type
REMARK                         _______ _______ _______ _____ _____    ______ ____
ROOT
ATOM      1  C   UNL     1      48.128   6.681  13.242  0.00  0.00    +0.000 C 
ENDROOT
BRANCH   1   2
ATOM      2  C   UNL     1      46.927   5.983  12.653  0.00  0.00    +0.000 A 
ATOM      3  C   UNL     1      46.429   6.351  11.396  0.00  0.00    +0.000 A 
ATOM      4  C   UNL     1      45.311   5.703  10.856  0.00  0.00    +0.000 A 
ATOM      5  C   UNL     1      44.664   4.676  11.560  0.00  0.00    +0.000 A 
ATOM      6  C   UNL     1      45.143   4.335  12.831  0.00  0.00    +0.000 A 
ATOM      7  C   UNL     1      46.258   4.984  13.374  0.00  0.00    +0.000 A 
BRANCH   5   8
ATOM      8  C   UNL     1      43.473   3.958  10.959  0.00  0.00    +0.000 C 
BRANCH   8   9
ATOM      9  N   UNL     1      43.762   3.517   9.596  0.00  0.00    +0.000 NA
ATOM     10  H   UNL     1      44.319   4.236   9.132  0.00  0.00    +0.000 HD
BRANCH   9  11
ATOM     11  C   UNL     1      44.538   2.269   9.579  0.00  0.00    +0.000 C 
BRANCH  11  12
ATOM     12  C   UNL     1      45.585   2.265   8.478  0.00  0.00    +0.000 A 
ATOM     13  C   UNL     1      45.820   3.416   7.727  0.00  0.00    +0.000 A 
ATOM     14  C   UNL     1      46.799   3.393   6.737  0.00  0.00    +0.000 A 
ATOM     15  C   UNL     1      47.513   2.222   6.516  0.00  0.00    +0.000 A 
ATOM     16  C   UNL     1      47.217   1.119   7.295  0.00  0.00    +0.000 A 
ATOM     17  N   UNL     1      46.275   1.113   8.270  0.00  0.00    +0.000 NA
ENDBRANCH  11  12
ENDBRANCH   9  11
ENDBRANCH   8   9
ENDBRANCH   5   8
ENDBRANCH   1   2
BRANCH   1  20
ATOM     18  C   UNL     1      49.118   6.873  15.492  0.00  0.00    +0.000 C 
ATOM     19  O   UNL     1      50.256   6.916  15.031  0.00  0.00    +0.000 OA
ATOM     20  N   UNL     1      48.025   6.757  14.677  0.00  0.00    +0.000 N 
ATOM     21  H   UNL     1      47.103   6.669  15.078  0.00  0.00    +0.000 HD
BRANCH  18  29
ATOM     22  C   UNL     1      48.937   4.502  17.980  0.00  0.00    +0.000 A 
ATOM     23  N   UNL     1      48.811   3.799  19.122  0.00  0.00    +0.000 NA
ATOM     24  C   UNL     1      48.547   4.468  20.246  0.00  0.00    +0.000 A 
ATOM     25  N   UNL     1      48.388   5.784  20.375  0.00  0.00    +0.000 NA
ATOM     26  C   UNL     1      48.527   6.447  19.215  0.00  0.00    +0.000 A 
ATOM     27  S   UNL     1      48.358   8.137  19.191  0.00  0.00    +0.000 S 
ATOM     28  C   UNL     1      48.644   8.192  17.516  0.00  0.00    +0.000 A 
ATOM     29  C   UNL     1      48.872   6.946  16.944  0.00  0.00    +0.000 A 
ATOM     30  C   UNL     1      48.804   5.901  17.966  0.00  0.00    +0.000 A 
BRANCH  22  32
ATOM     31  C   UNL     1      48.581   2.558  16.725  0.00  0.00    +0.000 C 
ATOM     32  O   UNL     1      49.251   3.812  16.828  0.00  0.00    +0.000 OA
ENDBRANCH  22  32
ENDBRANCH  18  29
ENDBRANCH   1  20
TORSDOF 8
ENDMDL
MODEL 2
REMARK VINA RESULT:    -7.902      1.616      2.854
REMARK INTER + INTRA:         -12.703
REMARK INTER:                 -11.454
REMARK INTRA:                  -1.248
REMARK UNBOUND:                -1.105
REMARK  Name = 
REMARK  9 active torsions:
REMARK  status: ('A' for Active; 'I' for Inactive)
REMARK    1  A    between atoms: C_1  and  O_2
REMARK    2  A    between atoms: O_2  and  C_3
REMARK    3  A    between atoms: C_10  and  C_11
REMARK    4  A    between atoms: N_13  and  C_14
REMARK    5  A    between atoms: C_14  and  C_15
REMARK    6  A    between atoms: C_18  and  C_19
REMARK    7  A    between atoms: C_19  and  N_20
REMARK    8  A    between atoms: N_20  and  C_21
REMARK    9  A    between atoms: C_21  and  C_22
REMARK                            x       y       z     vdW  Elec       q    Type
REMARK                         _______ _______ _______ _____ _____    ______ ____
ROOT
ATOM      1  C   UNL     1      48.304   6.627  13.768  0.00  0.00    +0.000 C 
ENDROOT
BRANCH   1   2
ATOM      2  C   UNL     1      47.098   6.132  13.009  0.00  0.00    +0.000 A 
ATOM      3  C   UNL     1      46.266   5.144  13.550  0.00  0.00    +0.000 A 
ATOM      4  C   UNL     1      45.150   4.685  12.840  0.00  0.00    +0.000 A 
ATOM      5  C   UNL     1      44.840   5.201  11.572  0.00  0.00    +0.000 A 
ATOM      6  C   UNL     1      45.694   6.163  11.019  0.00  0.00    +0.000 A 
ATOM      7  C   UNL     1      46.813   6.620  11.726  0.00  0.00    +0.000 A 
BRANCH   5   8
ATOM      8  C   UNL     1      43.616   4.723  10.819  0.00  0.00    +0.000 C 
BRANCH   8   9
ATOM      9  N   UNL     1      43.983   4.193   9.508  0.00  0.00    +0.000 NA
ATOM     10  H   UNL     1      44.705   4.792   9.105  0.00  0.00    +0.000 HD
BRANCH   9  11
ATOM     11  C   UNL     1      44.531   2.832   9.603  0.00  0.00    +0.000 C 
BRANCH  11  12
ATOM     12  C   UNL     1      45.551   2.552   8.512  0.00  0.00    +0.000 A 
ATOM     13  C   UNL     1      45.945   3.567   7.641  0.00  0.00    +0.000 A 
ATOM     14  C   UNL     1      46.896   3.290   6.662  0.00  0.00    +0.000 A 
ATOM     15  C   UNL     1      47.423   2.008   6.571  0.00  0.00    +0.000 A 
ATOM     16  C   UNL     1      46.977   1.053   7.466  0.00  0.00    +0.000 A 
ATOM     17  N   UNL     1      46.057   1.294   8.432  0.00  0.00    +0.000 NA
ENDBRANCH  11  12
ENDBRANCH   9  11
ENDBRANCH   8   9
ENDBRANCH   5   8
ENDBRANCH   1   2
BRANCH   1  20
ATOM     18  C   UNL     1      48.924   6.477  16.149  0.00  0.00    +0.000 C 
ATOM     19  O   UNL     1      50.058   6.095  15.871  0.00  0.00    +0.000 OA
ATOM     20  N   UNL     1      48.008   6.756  15.172  0.00  0.00    +0.000 N 
ATOM     21  H   UNL     1      47.066   7.015  15.423  0.00  0.00    +0.000 HD
BRANCH  18  29
ATOM     22  C   UNL     1      47.876   9.201  17.974  0.00  0.00    +0.000 A 
ATOM     23  N   UNL     1      47.447  10.077  18.902  0.00  0.00    +0.000 NA
ATOM     24  C   UNL     1      47.205   9.621  20.133  0.00  0.00    +0.000 A 
ATOM     25  N   UNL     1      47.340   8.369  20.563  0.00  0.00    +0.000 NA
ATOM     26  C   UNL     1      47.763   7.526  19.606  0.00  0.00    +0.000 A 
ATOM     27  S   UNL     1      47.992   5.885  19.975  0.00  0.00    +0.000 S 
ATOM     28  C   UNL     1      48.490   5.545  18.386  0.00  0.00    +0.000 A 
ATOM     29  C   UNL     1      48.494   6.654  17.549  0.00  0.00    +0.000 A 
ATOM     30  C   UNL     1      48.055   7.841  18.282  0.00  0.00    +0.000 A 
BRANCH  22  32
ATOM     31  C   UNL     1      49.399  10.180  16.490  0.00  0.00    +0.000 C 
ATOM     32  O   UNL     1      48.085   9.667  16.694  0.00  0.00    +0.000 OA
ENDBRANCH  22  32
ENDBRANCH  18  29
ENDBRANCH   1  20
TORSDOF 8
ENDMDL
MODEL 3
REMARK VINA RESULT:    -7.589      1.877      2.569
REMARK INTER + INTRA:         -12.244
REMARK INTER:                 -11.088
REMARK INTRA:                  -1.156
REMARK UNBOUND:                -1.105
REMARK  Name = 
REMARK  9 active torsions:
REMARK  status: ('A' for Active; 'I' for Inactive)
REMARK    1  A    between atoms: C_1  and  O_2
REMARK    2  A    between atoms: O_2  and  C_3
REMARK    3  A    between atoms: C_10  and  C_11
REMARK    4  A    between atoms: N_13  and  C_14
REMARK    5  A    between atoms: C_14  and  C_15
REMARK    6  A    between atoms: C_18  and  C_19
REMARK    7  A    between atoms: C_19  and  N_20
REMARK    8  A    between atoms: N_20  and  C_21
REMARK    9  A    between atoms: C_21  and  C_22
REMARK                            x       y       z     vdW  Elec       q    Type
REMARK                         _______ _______ _______ _____ _____    ______ ____
ROOT
ATOM      1  C   UNL     1      47.454   3.277  14.978  0.00  0.00    +0.000 C 
ENDROOT
BRANCH   1   2
ATOM      2  C   UNL     1      46.782   3.947  13.806  0.00  0.00    +0.000 A 
ATOM      3  C   UNL     1      47.022   5.297  13.517  0.00  0.00    +0.000 A 
ATOM      4  C   UNL     1      46.393   5.916  12.431  0.00  0.00    +0.000 A 
ATOM      5  C   UNL     1      45.508   5.202  11.608  0.00  0.00    +0.000 A 
ATOM      6  C   UNL     1      45.243   3.863  11.920  0.00  0.00    +0.000 A 
ATOM      7  C   UNL     1      45.868   3.244  13.009  0.00  0.00    +0.000 A 
BRANCH   5   8
ATOM      8  C   UNL     1      44.851   5.868  10.416  0.00  0.00    +0.000 C 
BRANCH   8   9
ATOM      9  N   UNL     1      45.494   5.457   9.170  0.00  0.00    +0.000 NA
ATOM     10  H   UNL     1      46.462   5.200   9.371  0.00  0.00    +0.000 HD
BRANCH   9  11
ATOM     11  C   UNL     1      44.834   4.286   8.575  0.00  0.00    +0.000 C 
BRANCH  11  12
ATOM     12  C   UNL     1      45.837   3.280   8.036  0.00  0.00    +0.000 A 
ATOM     13  C   UNL     1      45.764   1.941   8.417  0.00  0.00    +0.000 A 
ATOM     14  C   UNL     1      46.683   1.035   7.893  0.00  0.00    +0.000 A 
ATOM     15  C   UNL     1      47.654   1.488   7.009  0.00  0.00    +0.000 A 
ATOM     16  C   UNL     1      47.667   2.832   6.684  0.00  0.00    +0.000 A 
ATOM     17  N   UNL     1      46.783   3.736   7.174  0.00  0.00    +0.000 NA
ENDBRANCH  11  12
ENDBRANCH   9  11
ENDBRANCH   8   9
ENDBRANCH   5   8
ENDBRANCH   1   2
BRANCH   1  20
ATOM     18  C   UNL     1      47.380   4.170  17.275  0.00  0.00    +0.000 C 
ATOM     19  O   UNL     1      46.640   3.262  17.647  0.00  0.00    +0.000 OA
ATOM     20  N   UNL     1      47.819   4.244  15.982  0.00  0.00    +0.000 N 
ATOM     21  H   UNL     1      48.382   5.028  15.684  0.00  0.00    +0.000 HD
BRANCH  18  29
ATOM     22  C   UNL     1      50.474   5.439  18.086  0.00  0.00    +0.000 A 
ATOM     23  N   UNL     1      51.536   6.101  18.584  0.00  0.00    +0.000 NA
ATOM     24  C   UNL     1      51.316   7.039  19.507  0.00  0.00    +0.000 A 
ATOM     25  N   UNL     1      50.139   7.407  20.008  0.00  0.00    +0.000 NA
ATOM     26  C   UNL     1      49.107   6.727  19.482  0.00  0.00    +0.000 A 
ATOM     27  S   UNL     1      47.527   7.066  20.004  0.00  0.00    +0.000 S 
ATOM     28  C   UNL     1      46.877   5.891  18.962  0.00  0.00    +0.000 A 
ATOM     29  C   UNL     1      47.831   5.223  18.203  0.00  0.00    +0.000 A 
ATOM     30  C   UNL     1      49.167   5.728  18.515  0.00  0.00    +0.000 A 
BRANCH  22  32
ATOM     31  C   UNL     1      50.982   3.202  17.620  0.00  0.00    +0.000 C 
ATOM     32  O   UNL     1      50.702   4.500  17.103  0.00  0.00    +0.000 OA
ENDBRANCH  22  32
ENDBRANCH  18  29
ENDBRANCH   1  20
TORSDOF 8
ENDMDL
MODEL 4
REMARK VINA RESULT:    -7.204      2.024      2.761
REMARK INTER + INTRA:         -11.679
REMARK INTER:                 -10.611
REMARK INTRA:                  -1.068
REMARK UNBOUND:                -1.105
REMARK  Name = 
REMARK  9 active torsions:
REMARK  status: ('A' for Active; 'I' for Inactive)
REMARK    1  A    between atoms: C_1  and  O_2
REMARK    2  A    between atoms: O_2  and  C_3
REMARK    3  A    between atoms: C_10  and  C_11
REMARK    4  A    between atoms: N_13  and  C_14
REMARK    5  A    between atoms: C_14  and  C_15
REMARK    6  A    between atoms: C_18  and  C_19
REMARK    7  A    between atoms: C_19  and  N_20
REMARK    8  A    between atoms: N_20  and  C_21
REMARK    9  A    between atoms: C_21  and  C_22
REMARK                            x       y       z     vdW  Elec       q    Type
REMARK                         _______ _______ _______ _____ _____    ______ ____
ROOT
ATOM      1  C   UNL     1      47.956   5.576  14.227  0.00  0.00    +0.000 C 
ENDROOT
BRANCH   1   2
ATOM      2  C   UNL     1      46.781   5.473  13.287  0.00  0.00    +0.000 A 
ATOM      3  C   UNL     1      46.767   6.180  12.077  0.00  0.00    +0.000 A 
ATOM      4  C   UNL     1      45.672   6.084  11.209  0.00  0.00    +0.000 A 
ATOM      5  C   UNL     1      44.566   5.282  11.530  0.00  0.00    +0.000 A 
ATOM      6  C   UNL     1      44.568   4.605  12.756  0.00  0.00    +0.000 A 
ATOM      7  C   UNL     1      45.660   4.703  13.627  0.00  0.00    +0.000 A 
BRANCH   5   8
ATOM      8  C   UNL     1      43.396   5.159  10.575  0.00  0.00    +0.000 C 
BRANCH   8   9
ATOM      9  N   UNL     1      43.793   4.464   9.351  0.00  0.00    +0.000 NA
ATOM     10  H   UNL     1      44.512   5.017   8.882  0.00  0.00    +0.000 HD
BRANCH   9  11
ATOM     11  C   UNL     1      44.360   3.138   9.636  0.00  0.00    +0.000 C 
BRANCH  11  12
ATOM     12  C   UNL     1      45.383   2.721   8.592  0.00  0.00    +0.000 A 
ATOM     13  C   UNL     1      45.883   3.656   7.686  0.00  0.00    +0.000 A 
ATOM     14  C   UNL     1      46.835   3.254   6.753  0.00  0.00    +0.000 A 
ATOM     15  C   UNL     1      47.257   1.930   6.741  0.00  0.00    +0.000 A 
ATOM     16  C   UNL     1      46.709   1.061   7.666  0.00  0.00    +0.000 A 
ATOM     17  N   UNL     1      45.786   1.424   8.590  0.00  0.00    +0.000 NA
ENDBRANCH  11  12
ENDBRANCH   9  11
ENDBRANCH   8   9
ENDBRANCH   5   8
ENDBRANCH   1   2
BRANCH   1  20
ATOM     18  C   UNL     1      49.116   7.558  15.125  0.00  0.00    +0.000 C 
ATOM     19  O   UNL     1      50.210   7.129  14.767  0.00  0.00    +0.000 OA
ATOM     20  N   UNL     1      47.966   6.852  14.897  0.00  0.00    +0.000 N 
ATOM     21  H   UNL     1      47.084   7.196  15.247  0.00  0.00    +0.000 HD
BRANCH  18  29
ATOM     22  C   UNL     1      47.976   8.469  18.243  0.00  0.00    +0.000 A 
ATOM     23  N   UNL     1      47.591   9.090  19.374  0.00  0.00    +0.000 NA
ATOM     24  C   UNL     1      47.702  10.419  19.429  0.00  0.00    +0.000 A 
ATOM     25  N   UNL     1      48.162  11.224  18.474  0.00  0.00    +0.000 NA
ATOM     26  C   UNL     1      48.541  10.565  17.367  0.00  0.00    +0.000 A 
ATOM     27  S   UNL     1      49.155  11.433  16.043  0.00  0.00    +0.000 S 
ATOM     28  C   UNL     1      49.370  10.007  15.143  0.00  0.00    +0.000 A 
ATOM     29  C   UNL     1      48.986   8.853  15.818  0.00  0.00    +0.000 A 
ATOM     30  C   UNL     1      48.492   9.190  17.152  0.00  0.00    +0.000 A 
BRANCH  22  32
ATOM     31  C   UNL     1      49.057   6.450  18.732  0.00  0.00    +0.000 C 
ATOM     32  O   UNL     1      47.899   7.093  18.204  0.00  0.00    +0.000 OA
ENDBRANCH  22  32
ENDBRANCH  18  29
ENDBRANCH   1  20
TORSDOF 8
ENDMDL
MODEL 5
REMARK VINA RESULT:    -7.147      1.710      3.042
REMARK INTER + INTRA:         -11.595
REMARK INTER:                 -10.343
REMARK INTRA:                  -1.252
REMARK UNBOUND:                -1.105
REMARK  Name = 
REMARK  9 active torsions:
REMARK  status: ('A' for Active; 'I' for Inactive)
REMARK    1  A    between atoms: C_1  and  O_2
REMARK    2  A    between atoms: O_2  and  C_3
REMARK    3  A    between atoms: C_10  and  C_11
REMARK    4  A    between atoms: N_13  and  C_14
REMARK    5  A    between atoms: C_14  and  C_15
REMARK    6  A    between atoms: C_18  and  C_19
REMARK    7  A    between atoms: C_19  and  N_20
REMARK    8  A    between atoms: N_20  and  C_21
REMARK    9  A    between atoms: C_21  and  C_22
REMARK                            x       y       z     vdW  Elec       q    Type
REMARK                         _______ _______ _______ _____ _____    ______ ____
ROOT
ATOM      1  C   UNL     1      47.493   4.003  15.236  0.00  0.00    +0.000 C 
ENDROOT
BRANCH   1   2
ATOM      2  C   UNL     1      46.760   4.424  13.987  0.00  0.00    +0.000 A 
ATOM      3  C   UNL     1      46.719   5.769  13.598  0.00  0.00    +0.000 A 
ATOM      4  C   UNL     1      46.033   6.155  12.441  0.00  0.00    +0.000 A 
ATOM      5  C   UNL     1      45.370   5.208  11.645  0.00  0.00    +0.000 A 
ATOM      6  C   UNL     1      45.383   3.869  12.056  0.00  0.00    +0.000 A 
ATOM      7  C   UNL     1      46.065   3.481  13.216  0.00  0.00    +0.000 A 
BRANCH   5   8
ATOM      8  C   UNL     1      44.654   5.626  10.378  0.00  0.00    +0.000 C 
BRANCH   8   9
ATOM      9  N   UNL     1      45.416   5.234   9.194  0.00  0.00    +0.000 NA
ATOM     10  H   UNL     1      46.338   4.910   9.492  0.00  0.00    +0.000 HD
BRANCH   9  11
ATOM     11  C   UNL     1      44.768   4.133   8.467  0.00  0.00    +0.000 C 
BRANCH  11  12
ATOM     12  C   UNL     1      45.782   3.175   7.864  0.00  0.00    +0.000 A 
ATOM     13  C   UNL     1      45.879   1.866   8.336  0.00  0.00    +0.000 A 
ATOM     14  C   UNL     1      46.802   1.002   7.752  0.00  0.00    +0.000 A 
ATOM     15  C   UNL     1      47.608   1.466   6.720  0.00  0.00    +0.000 A 
ATOM     16  C   UNL     1      47.458   2.778   6.312  0.00  0.00    +0.000 A 
ATOM     17  N   UNL     1      46.565   3.641   6.856  0.00  0.00    +0.000 NA
ENDBRANCH  11  12
ENDBRANCH   9  11
ENDBRANCH   8   9
ENDBRANCH   5   8
ENDBRANCH   1   2
BRANCH   1  20
ATOM     18  C   UNL     1      48.299   5.041  17.322  0.00  0.00    +0.000 C 
ATOM     19  O   UNL     1      49.041   4.090  17.556  0.00  0.00    +0.000 OA
ATOM     20  N   UNL     1      47.510   5.069  16.205  0.00  0.00    +0.000 N 
ATOM     21  H   UNL     1      46.868   5.834  16.059  0.00  0.00    +0.000 HD
BRANCH  18  29
ATOM     22  C   UNL     1      48.600   8.438  16.855  0.00  0.00    +0.000 A 
ATOM     23  N   UNL     1      48.677   9.779  16.955  0.00  0.00    +0.000 NA
ATOM     24  C   UNL     1      48.528  10.328  18.162  0.00  0.00    +0.000 A 
ATOM     25  N   UNL     1      48.306   9.690  19.309  0.00  0.00    +0.000 NA
ATOM     26  C   UNL     1      48.231   8.357  19.165  0.00  0.00    +0.000 A 
ATOM     27  S   UNL     1      47.951   7.381  20.526  0.00  0.00    +0.000 S 
ATOM     28  C   UNL     1      47.998   5.967  19.583  0.00  0.00    +0.000 A 
ATOM     29  C   UNL     1      48.224   6.199  18.231  0.00  0.00    +0.000 A 
ATOM     30  C   UNL     1      48.360   7.634  17.983  0.00  0.00    +0.000 A 
BRANCH  22  32
ATOM     31  C   UNL     1      50.058   7.569  15.242  0.00  0.00    +0.000 C 
ATOM     32  O   UNL     1      48.713   7.877  15.600  0.00  0.00    +0.000 OA
ENDBRANCH  22  32
ENDBRANCH  18  29
ENDBRANCH   1  20
TORSDOF 8
ENDMDL
MODEL 6
REMARK VINA RESULT:    -7.014      4.325      9.428
REMARK INTER + INTRA:         -11.400
REMARK INTER:                 -10.438
REMARK INTRA:                  -0.961
REMARK UNBOUND:                -1.105
REMARK  Name = 
REMARK  9 active torsions:
REMARK  status: ('A' for Active; 'I' for Inactive)
REMARK    1  A    between atoms: C_1  and  O_2
REMARK    2  A    between atoms: O_2  and  C_3
REMARK    3  A    between atoms: C_10  and  C_11
REMARK    4  A    between atoms: N_13  and  C_14
REMARK    5  A    between atoms: C_14  and  C_15
REMARK    6  A    between atoms: C_18  and  C_19
REMARK    7  A    between atoms: C_19  and  N_20
REMARK    8  A    between atoms: N_20  and  C_21
REMARK    9  A    between atoms: C_21  and  C_22
REMARK                            x       y       z     vdW  Elec       q    Type
REMARK                         _______ _______ _______ _____ _____    ______ ____
ROOT
ATOM      1  C   UNL     1      47.215   3.365  16.783  0.00  0.00    +0.000 C 
ENDROOT
BRANCH   1   2
ATOM      2  C   UNL     1      48.686   3.399  17.119  0.00  0.00    +0.000 A 
ATOM      3  C   UNL     1      49.306   4.596  17.502  0.00  0.00    +0.000 A 
ATOM      4  C   UNL     1      50.671   4.624  17.809  0.00  0.00    +0.000 A 
ATOM      5  C   UNL     1      51.450   3.458  17.738  0.00  0.00    +0.000 A 
ATOM      6  C   UNL     1      50.835   2.271  17.321  0.00  0.00    +0.000 A 
ATOM      7  C   UNL     1      49.470   2.243  17.010  0.00  0.00    +0.000 A 
BRANCH   5   8
ATOM      8  C   UNL     1      52.921   3.487  18.099  0.00  0.00    +0.000 C 
BRANCH   8   9
ATOM      9  N   UNL     1      53.203   2.578  19.209  0.00  0.00    +0.000 NA
ATOM     10  H   UNL     1      52.574   1.777  19.143  0.00  0.00    +0.000 HD
BRANCH   9  11
ATOM     11  C   UNL     1      54.582   2.072  19.163  0.00  0.00    +0.000 C 
BRANCH  11  12
ATOM     12  C   UNL     1      54.653   0.668  18.586  0.00  0.00    +0.000 A 
ATOM     13  C   UNL     1      54.771   0.478  17.210  0.00  0.00    +0.000 A 
ATOM     14  C   UNL     1      54.854  -0.818  16.708  0.00  0.00    +0.000 A 
ATOM     15  C   UNL     1      54.810  -1.891  17.589  0.00  0.00    +0.000 A 
ATOM     16  C   UNL     1      54.684  -1.623  18.940  0.00  0.00    +0.000 A 
ATOM     17  N   UNL     1      54.607  -0.373  19.458  0.00  0.00    +0.000 NA
ENDBRANCH  11  12
ENDBRANCH   9  11
ENDBRANCH   8   9
ENDBRANCH   5   8
ENDBRANCH   1   2
BRANCH   1  20
ATOM     18  C   UNL     1      46.933   4.242  14.497  0.00  0.00    +0.000 C 
ATOM     19  O   UNL     1      47.281   3.174  14.001  0.00  0.00    +0.000 OA
ATOM     20  N   UNL     1      46.877   4.412  15.853  0.00  0.00    +0.000 N 
ATOM     21  H   UNL     1      46.641   5.314  16.240  0.00  0.00    +0.000 HD
BRANCH  18  29
ATOM     22  C   UNL     1      44.110   5.031  12.693  0.00  0.00    +0.000 A 
ATOM     23  N   UNL     1      43.153   5.575  11.916  0.00  0.00    +0.000 NA
ATOM     24  C   UNL     1      43.404   6.753  11.341  0.00  0.00    +0.000 A 
ATOM     25  N   UNL     1      44.518   7.473  11.448  0.00  0.00    +0.000 NA
ATOM     26  C   UNL     1      45.444   6.899  12.234  0.00  0.00    +0.000 A 
ATOM     27  S   UNL     1      46.931   7.680  12.485  0.00  0.00    +0.000 S 
ATOM     28  C   UNL     1      47.478   6.422  13.489  0.00  0.00    +0.000 A 
ATOM     29  C   UNL     1      46.557   5.394  13.656  0.00  0.00    +0.000 A 
ATOM     30  C   UNL     1      45.336   5.684  12.904  0.00  0.00    +0.000 A 
BRANCH  22  32
ATOM     31  C   UNL     1      43.562   2.773  12.406  0.00  0.00    +0.000 C 
ATOM     32  O   UNL     1      43.831   3.835  13.318  0.00  0.00    +0.000 OA
ENDBRANCH  22  32
ENDBRANCH  18  29
ENDBRANCH   1  20
TORSDOF 8
ENDMDL
MODEL 7
REMARK VINA RESULT:    -6.752      2.332      3.162
REMARK INTER + INTRA:         -11.016
REMARK INTER:                  -9.893
REMARK INTRA:                  -1.122
REMARK UNBOUND:                -1.105
REMARK  Name = 
REMARK  9 active torsions:
REMARK  status: ('A' for Active; 'I' for Inactive)
REMARK    1  A    between atoms: C_1  and  O_2
REMARK    2  A    between atoms: O_2  and  C_3
REMARK    3  A    between atoms: C_10  and  C_11
REMARK    4  A    between atoms: N_13  and  C_14
REMARK    5  A    between atoms: C_14  and  C_15
REMARK    6  A    between atoms: C_18  and  C_19
REMARK    7  A    between atoms: C_19  and  N_20
REMARK    8  A    between atoms: N_20  and  C_21
REMARK    9  A    between atoms: C_21  and  C_22
REMARK                            x       y       z     vdW  Elec       q    Type
REMARK                         _______ _______ _______ _____ _____    ______ ____
ROOT
ATOM      1  C   UNL     1      49.009   8.325  15.246  0.00  0.00    +0.000 C 
ENDROOT
BRANCH   1   2
ATOM      2  C   UNL     1      48.037   7.860  14.190  0.00  0.00    +0.000 A 
ATOM      3  C   UNL     1      48.106   6.559  13.676  0.00  0.00    +0.000 A 
ATOM      4  C   UNL     1      47.204   6.133  12.693  0.00  0.00    +0.000 A 
ATOM      5  C   UNL     1      46.215   6.998  12.199  0.00  0.00    +0.000 A 
ATOM      6  C   UNL     1      46.172   8.309  12.690  0.00  0.00    +0.000 A 
ATOM      7  C   UNL     1      47.076   8.737  13.670  0.00  0.00    +0.000 A 
BRANCH   5   8
ATOM      8  C   UNL     1      45.223   6.525  11.157  0.00  0.00    +0.000 C 
BRANCH   8   9
ATOM      9  N   UNL     1      44.832   5.138  11.401  0.00  0.00    +0.000 NA
ATOM     10  H   UNL     1      44.247   5.106  12.238  0.00  0.00    +0.000 HD
BRANCH   9  11
ATOM     11  C   UNL     1      44.048   4.587  10.286  0.00  0.00    +0.000 C 
BRANCH  11  12
ATOM     12  C   UNL     1      44.913   3.792   9.322  0.00  0.00    +0.000 A 
ATOM     13  C   UNL     1      44.995   2.404   9.433  0.00  0.00    +0.000 A 
ATOM     14  C   UNL     1      45.778   1.697   8.524  0.00  0.00    +0.000 A 
ATOM     15  C   UNL     1      46.464   2.390   7.535  0.00  0.00    +0.000 A 
ATOM     16  C   UNL     1      46.338   3.766   7.494  0.00  0.00    +0.000 A 
ATOM     17  N   UNL     1      45.579   4.481   8.360  0.00  0.00    +0.000 NA
ENDBRANCH  11  12
ENDBRANCH   9  11
ENDBRANCH   8   9
ENDBRANCH   5   8
ENDBRANCH   1   2
BRANCH   1  20
ATOM     18  C   UNL     1      50.457   7.243  16.922  0.00  0.00    +0.000 C 
ATOM     19  O   UNL     1      50.360   8.201  17.685  0.00  0.00    +0.000 OA
ATOM     20  N   UNL     1      49.825   7.231  15.709  0.00  0.00    +0.000 N 
ATOM     21  H   UNL     1      49.963   6.458  15.075  0.00  0.00    +0.000 HD
BRANCH  18  29
ATOM     22  C   UNL     1      49.794   3.865  16.963  0.00  0.00    +0.000 A 
ATOM     23  N   UNL     1      49.804   2.523  17.074  0.00  0.00    +0.000 NA
ATOM     24  C   UNL     1      50.923   1.936  17.504  0.00  0.00    +0.000 A 
ATOM     25  N   UNL     1      52.061   2.537  17.844  0.00  0.00    +0.000 NA
ATOM     26  C   UNL     1      52.012   3.873  17.713  0.00  0.00    +0.000 A 
ATOM     27  S   UNL     1      53.377   4.805  18.101  0.00  0.00    +0.000 S 
ATOM     28  C   UNL     1      52.568   6.246  17.707  0.00  0.00    +0.000 A 
ATOM     29  C   UNL     1      51.259   6.057  17.277  0.00  0.00    +0.000 A 
ATOM     30  C   UNL     1      50.930   4.632  17.278  0.00  0.00    +0.000 A 
BRANCH  22  32
ATOM     31  C   UNL     1      47.655   3.529  16.074  0.00  0.00    +0.000 C 
ATOM     32  O   UNL     1      48.651   4.465  16.480  0.00  0.00    +0.000 OA
ENDBRANCH  22  32
ENDBRANCH  18  29
ENDBRANCH   1  20
TORSDOF 8
ENDMDL
MODEL 8
REMARK VINA RESULT:    -6.127      3.908      9.213
REMARK INTER + INTRA:         -10.097
REMARK INTER:                  -8.141
REMARK INTRA:                  -1.957
REMARK UNBOUND:                -1.105
REMARK  Name = 
REMARK  9 active torsions:
REMARK  status: ('A' for Active; 'I' for Inactive)
REMARK    1  A    between atoms: C_1  and  O_2
REMARK    2  A    between atoms: O_2  and  C_3
REMARK    3  A    between atoms: C_10  and  C_11
REMARK    4  A    between atoms: N_13  and  C_14
REMARK    5  A    between atoms: C_14  and  C_15
REMARK    6  A    between atoms: C_18  and  C_19
REMARK    7  A    between atoms: C_19  and  N_20
REMARK    8  A    between atoms: N_20  and  C_21
REMARK    9  A    between atoms: C_21  and  C_22
REMARK                            x       y       z     vdW  Elec       q    Type
REMARK                         _______ _______ _______ _____ _____    ______ ____
ROOT
ATOM      1  C   UNL     1      47.885   4.218  16.374  0.00  0.00    +0.000 C 
ENDROOT
BRANCH   1   2
ATOM      2  C   UNL     1      48.120   5.108  17.569  0.00  0.00    +0.000 A 
ATOM      3  C   UNL     1      49.384   5.657  17.817  0.00  0.00    +0.000 A 
ATOM      4  C   UNL     1      49.598   6.479  18.930  0.00  0.00    +0.000 A 
ATOM      5  C   UNL     1      48.554   6.769  19.823  0.00  0.00    +0.000 A 
ATOM      6  C   UNL     1      47.301   6.190  19.592  0.00  0.00    +0.000 A 
ATOM      7  C   UNL     1      47.086   5.364  18.481  0.00  0.00    +0.000 A 
BRANCH   5   8
ATOM      8  C   UNL     1      48.782   7.682  21.010  0.00  0.00    +0.000 C 
BRANCH   8   9
ATOM      9  N   UNL     1      47.835   8.795  21.002  0.00  0.00    +0.000 NA
ATOM     10  H   UNL     1      47.534   8.975  21.961  0.00  0.00    +0.000 HD
BRANCH   9  11
ATOM     11  C   UNL     1      48.445  10.028  20.484  0.00  0.00    +0.000 C 
BRANCH  11  12
ATOM     12  C   UNL     1      48.744   9.933  18.997  0.00  0.00    +0.000 A 
ATOM     13  C   UNL     1      47.716   9.686  18.088  0.00  0.00    +0.000 A 
ATOM     14  C   UNL     1      48.013   9.624  16.729  0.00  0.00    +0.000 A 
ATOM     15  C   UNL     1      49.327   9.801  16.312  0.00  0.00    +0.000 A 
ATOM     16  C   UNL     1      50.292  10.034  17.274  0.00  0.00    +0.000 A 
ATOM     17  N   UNL     1      50.033  10.106  18.603  0.00  0.00    +0.000 NA
ENDBRANCH  11  12
ENDBRANCH   9  11
ENDBRANCH   8   9
ENDBRANCH   5   8
ENDBRANCH   1   2
BRANCH   1  20
ATOM     18  C   UNL     1      46.757   4.325  14.185  0.00  0.00    +0.000 C 
ATOM     19  O   UNL     1      47.220   3.238  13.848  0.00  0.00    +0.000 OA
ATOM     20  N   UNL     1      47.039   4.870  15.407  0.00  0.00    +0.000 N 
ATOM     21  H   UNL     1      46.693   5.789  15.643  0.00  0.00    +0.000 HD
BRANCH  18  29
ATOM     22  C   UNL     1      46.687   7.621  13.194  0.00  0.00    +0.000 A 
ATOM     23  N   UNL     1      46.428   8.829  12.659  0.00  0.00    +0.000 NA
ATOM     24  C   UNL     1      45.378   8.943  11.843  0.00  0.00    +0.000 A 
ATOM     25  N   UNL     1      44.534   7.978  11.486  0.00  0.00    +0.000 NA
ATOM     26  C   UNL     1      44.830   6.789  12.036  0.00  0.00    +0.000 A 
ATOM     27  S   UNL     1      43.859   5.440  11.691  0.00  0.00    +0.000 S 
ATOM     28  C   UNL     1      44.810   4.439  12.682  0.00  0.00    +0.000 A 
ATOM     29  C   UNL     1      45.873   5.096  13.290  0.00  0.00    +0.000 A 
ATOM     30  C   UNL     1      45.885   6.505  12.899  0.00  0.00    +0.000 A 
BRANCH  22  32
ATOM     31  C   UNL     1      48.998   7.254  13.275  0.00  0.00    +0.000 C 
ATOM     32  O   UNL     1      47.797   7.498  14.003  0.00  0.00    +0.000 OA
ENDBRANCH  22  32
ENDBRANCH  18  29
ENDBRANCH   1  20
TORSDOF 8
ENDMDL
MODEL 9
REMARK VINA RESULT:    -6.090      3.676      9.458
REMARK INTER + INTRA:         -10.044
REMARK INTER:                  -8.764
REMARK INTRA:                  -1.280
REMARK UNBOUND:                -1.105
REMARK  Name = 
REMARK  9 active torsions:
REMARK  status: ('A' for Active; 'I' for Inactive)
REMARK    1  A    between atoms: C_1  and  O_2
REMARK    2  A    between atoms: O_2  and  C_3
REMARK    3  A    between atoms: C_10  and  C_11
REMARK    4  A    between atoms: N_13  and  C_14
REMARK    5  A    between atoms: C_14  and  C_15
REMARK    6  A    between atoms: C_18  and  C_19
REMARK    7  A    between atoms: C_19  and  N_20
REMARK    8  A    between atoms: N_20  and  C_21
REMARK    9  A    between atoms: C_21  and  C_22
REMARK                            x       y       z     vdW  Elec       q    Type
REMARK                         _______ _______ _______ _____ _____    ______ ____
ROOT
ATOM      1  C   UNL     1      47.432   3.498  16.475  0.00  0.00    +0.000 C 
ENDROOT
BRANCH   1   2
ATOM      2  C   UNL     1      48.189   4.141  17.611  0.00  0.00    +0.000 A 
ATOM      3  C   UNL     1      47.521   4.915  18.569  0.00  0.00    +0.000 A 
ATOM      4  C   UNL     1      48.228   5.513  19.619  0.00  0.00    +0.000 A 
ATOM      5  C   UNL     1      49.617   5.354  19.736  0.00  0.00    +0.000 A 
ATOM      6  C   UNL     1      50.286   4.609  18.757  0.00  0.00    +0.000 A 
ATOM      7  C   UNL     1      49.581   4.013  17.704  0.00  0.00    +0.000 A 
BRANCH   5   8
ATOM      8  C   UNL     1      50.374   5.978  20.890  0.00  0.00    +0.000 C 
BRANCH   8   9
ATOM      9  N   UNL     1      50.155   7.423  20.937  0.00  0.00    +0.000 NA
ATOM     10  H   UNL     1      50.512   7.779  21.825  0.00  0.00    +0.000 HD
BRANCH   9  11
ATOM     11  C   UNL     1      50.869   8.118  19.856  0.00  0.00    +0.000 C 
BRANCH  11  12
ATOM     12  C   UNL     1      49.930   8.950  18.998  0.00  0.00    +0.000 A 
ATOM     13  C   UNL     1      48.569   9.004  19.294  0.00  0.00    +0.000 A 
ATOM     14  C   UNL     1      47.733   9.790  18.506  0.00  0.00    +0.000 A 
ATOM     15  C   UNL     1      48.273  10.496  17.439  0.00  0.00    +0.000 A 
ATOM     16  C   UNL     1      49.632  10.387  17.204  0.00  0.00    +0.000 A 
ATOM     17  N   UNL     1      50.471   9.635  17.957  0.00  0.00    +0.000 NA
ENDBRANCH  11  12
ENDBRANCH   9  11
ENDBRANCH   8   9
ENDBRANCH   5   8
ENDBRANCH   1   2
BRANCH   1  20
ATOM     18  C   UNL     1      46.810   4.293  14.225  0.00  0.00    +0.000 C 
ATOM     19  O   UNL     1      47.162   3.235  13.710  0.00  0.00    +0.000 OA
ATOM     20  N   UNL     1      46.914   4.497  15.574  0.00  0.00    +0.000 N 
ATOM     21  H   UNL     1      46.671   5.392  15.970  0.00  0.00    +0.000 HD
BRANCH  18  29
ATOM     22  C   UNL     1      43.811   4.767  12.605  0.00  0.00    +0.000 A 
ATOM     23  N   UNL     1      42.753   5.201  11.893  0.00  0.00    +0.000 NA
ATOM     24  C   UNL     1      42.838   6.399  11.311  0.00  0.00    +0.000 A 
ATOM     25  N   UNL     1      43.871   7.237  11.352  0.00  0.00    +0.000 NA
ATOM     26  C   UNL     1      44.901   6.769  12.076  0.00  0.00    +0.000 A 
ATOM     27  S   UNL     1      46.307   7.708  12.239  0.00  0.00    +0.000 S 
ATOM     28  C   UNL     1      47.050   6.518  13.199  0.00  0.00    +0.000 A 
ATOM     29  C   UNL     1      46.259   5.396  13.417  0.00  0.00    +0.000 A 
ATOM     30  C   UNL     1      44.969   5.550  12.744  0.00  0.00    +0.000 A 
BRANCH  22  32
ATOM     31  C   UNL     1      43.586   2.452  12.335  0.00  0.00    +0.000 C 
ATOM     32  O   UNL     1      43.704   3.547  13.240  0.00  0.00    +0.000 OA
ENDBRANCH  22  32
ENDBRANCH  18  29
ENDBRANCH   1  20
TORSDOF 8
ENDMDL
