MODEL 1
REMARK VINA RESULT:    -7.619      0.000      0.000
REMARK INTER + INTRA:          -9.933
REMARK INTER:                  -9.400
REMARK INTRA:                  -0.533
REMARK UNBOUND:                -0.533
REMARK  Name = 
REMARK  5 active torsions:
REMARK  status: ('A' for Active; 'I' for Inactive)
REMARK    1  A    between atoms: C_1  and  O_2
REMARK    2  A    between atoms: O_2  and  C_3
REMARK    3  A    between atoms: N_6  and  C_7
REMARK    4  A    between atoms: C_7  and  C_8
REMARK    5  A    between atoms: C_11  and  C_12
REMARK                            x       y       z     vdW  Elec       q    Type
REMARK                         _______ _______ _______ _____ _____    ______ ____
ROOT
ATOM      1  C   UNL     1      46.795   4.365  15.063  0.00  0.00    +0.000 A 
ATOM      2  N   UNL     1      46.157   3.626  14.164  0.00  0.00    +0.000 NA
ATOM      3  C   UNL     1      46.014   4.212  12.987  0.00  0.00    +0.000 A 
ATOM      4  N   UNL     1      45.281   3.533  12.053  0.00  0.00    +0.000 N 
ATOM      5  N   UNL     1      46.515   5.396  12.683  0.00  0.00    +0.000 NA
ATOM      6  C   UNL     1      47.244   6.005  13.610  0.00  0.00    +0.000 A 
ATOM      7  N   UNL     1      47.853   7.189  13.279  0.00  0.00    +0.000 N 
ATOM      8  C   UNL     1      47.686   7.786  11.954  0.00  0.00    +0.000 C 
ATOM      9  C   UNL     1      49.037   7.898  11.232  0.00  0.00    +0.000 C 
ATOM     10  O   UNL     1      50.029   8.541  12.049  0.00  0.00    +0.000 OA
ATOM     11  C   UNL     1      50.231   7.793  13.261  0.00  0.00    +0.000 C 
ATOM     12  C   UNL     1      48.943   7.716  14.096  0.00  0.00    +0.000 C 
ATOM     13  N   UNL     1      47.389   5.524  14.831  0.00  0.00    +0.000 NA
ATOM     14  H   UNL     1      45.510   2.556  11.970  0.00  0.00    +0.000 HD
ENDROOT
BRANCH   1  16
ATOM     15  C   UNL     1      47.998   3.107  16.623  0.00  0.00    +0.000 C 
ATOM     16  O   UNL     1      46.871   3.935  16.373  0.00  0.00    +0.000 OA
ENDBRANCH   1  16
BRANCH   4  17
ATOM     17  C   UNL     1      44.640   4.230  10.968  0.00  0.00    +0.000 C 
BRANCH  17  18
ATOM     18  C   UNL     1      45.317   3.830   9.682  0.00  0.00    +0.000 A 
ATOM     19  C   UNL     1      45.424   2.480   9.317  0.00  0.00    +0.000 A 
ATOM     20  C   UNL     1      46.033   2.129   8.118  0.00  0.00    +0.000 A 
ATOM     21  C   UNL     1      46.515   3.149   7.306  0.00  0.00    +0.000 A 
ATOM     22  N   UNL     1      46.436   4.473   7.625  0.00  0.00    +0.000 NA
ATOM     23  C   UNL     1      45.843   4.774   8.804  0.00  0.00    +0.000 A 
BRANCH  21  24
ATOM     24  C   UNL     1      47.140   2.803   5.992  0.00  0.00    +0.000 C 
ATOM     25  N   UNL     1      48.457   2.431   6.033  0.00  0.00    +0.000 N 
ATOM     26  O   UNL     1      46.526   2.857   4.928  0.00  0.00    +0.000 OA
ATOM     27  H   UNL     1      48.941   2.413   6.924  0.00  0.00    +0.000 HD
ATOM     28  H   UNL     1      48.942   2.214   5.179  0.00  0.00    +0.000 HD
ENDBRANCH  21  24
ENDBRANCH  17  18
ENDBRANCH   4  17
TORSDOF 4
ENDMDL
MODEL 2
REMARK VINA RESULT:    -7.386      1.641      3.506
REMARK INTER + INTRA:          -9.646
REMARK INTER:                  -9.572
REMARK INTRA:                  -0.075
REMARK UNBOUND:                -0.533
REMARK  Name = 
REMARK  5 active torsions:
REMARK  status: ('A' for Active; 'I' for Inactive)
REMARK    1  A    between atoms: C_1  and  O_2
REMARK    2  A    between atoms: O_2  and  C_3
REMARK    3  A    between atoms: N_6  and  C_7
REMARK    4  A    between atoms: C_7  and  C_8
REMARK    5  A    between atoms: C_11  and  C_12
REMARK                            x       y       z     vdW  Elec       q    Type
REMARK                         _______ _______ _______ _____ _____    ______ ____
ROOT
ATOM      1  C   UNL     1      45.604   7.651  11.859  0.00  0.00    +0.000 A 
ATOM      2  N   UNL     1      44.566   6.972  11.386  0.00  0.00    +0.000 NA
ATOM      3  C   UNL     1      44.608   5.676  11.643  0.00  0.00    +0.000 A 
ATOM      4  N   UNL     1      43.611   4.914  11.098  0.00  0.00    +0.000 N 
ATOM      5  N   UNL     1      45.549   5.093  12.365  0.00  0.00    +0.000 NA
ATOM      6  C   UNL     1      46.479   5.875  12.898  0.00  0.00    +0.000 A 
ATOM      7  N   UNL     1      47.407   5.300  13.730  0.00  0.00    +0.000 N 
ATOM      8  C   UNL     1      47.396   3.863  14.005  0.00  0.00    +0.000 C 
ATOM      9  C   UNL     1      47.176   3.596  15.501  0.00  0.00    +0.000 C 
ATOM     10  O   UNL     1      48.087   4.347  16.319  0.00  0.00    +0.000 OA
ATOM     11  C   UNL     1      47.913   5.756  16.088  0.00  0.00    +0.000 C 
ATOM     12  C   UNL     1      48.211   6.127  14.626  0.00  0.00    +0.000 C 
ATOM     13  N   UNL     1      46.551   7.169  12.646  0.00  0.00    +0.000 NA
ATOM     14  H   UNL     1      42.686   5.297  11.204  0.00  0.00    +0.000 HD
ENDROOT
BRANCH   1  16
ATOM     15  C   UNL     1      46.878   9.587  12.161  0.00  0.00    +0.000 C 
ATOM     16  O   UNL     1      45.761   8.982  11.523  0.00  0.00    +0.000 OA
ENDBRANCH   1  16
BRANCH   4  17
ATOM     17  C   UNL     1      43.799   3.504  10.870  0.00  0.00    +0.000 C 
BRANCH  17  18
ATOM     18  C   UNL     1      44.710   3.334   9.681  0.00  0.00    +0.000 A 
ATOM     19  C   UNL     1      45.208   2.070   9.334  0.00  0.00    +0.000 A 
ATOM     20  C   UNL     1      46.031   1.926   8.223  0.00  0.00    +0.000 A 
ATOM     21  C   UNL     1      46.327   3.061   7.478  0.00  0.00    +0.000 A 
ATOM     22  N   UNL     1      45.867   4.309   7.783  0.00  0.00    +0.000 NA
ATOM     23  C   UNL     1      45.076   4.409   8.876  0.00  0.00    +0.000 A 
BRANCH  21  24
ATOM     24  C   UNL     1      47.177   2.932   6.254  0.00  0.00    +0.000 C 
ATOM     25  N   UNL     1      48.483   2.578   6.465  0.00  0.00    +0.000 N 
ATOM     26  O   UNL     1      46.748   3.139   5.121  0.00  0.00    +0.000 OA
ATOM     27  H   UNL     1      48.811   2.431   7.414  0.00  0.00    +0.000 HD
ATOM     28  H   UNL     1      49.112   2.502   5.684  0.00  0.00    +0.000 HD
ENDBRANCH  21  24
ENDBRANCH  17  18
ENDBRANCH   4  17
TORSDOF 4
ENDMDL
MODEL 3
REMARK VINA RESULT:    -6.798      3.623      7.668
REMARK INTER + INTRA:          -8.920
REMARK INTER:                  -8.480
REMARK INTRA:                  -0.440
REMARK UNBOUND:                -0.533
REMARK  Name = 
REMARK  5 active torsions:
REMARK  status: ('A' for Active; 'I' for Inactive)
REMARK    1  A    between atoms: C_1  and  O_2
REMARK    2  A    between atoms: O_2  and  C_3
REMARK    3  A    between atoms: N_6  and  C_7
REMARK    4  A    between atoms: C_7  and  C_8
REMARK    5  A    between atoms: C_11  and  C_12
REMARK                            x       y       z     vdW  Elec       q    Type
REMARK                         _______ _______ _______ _____ _____    ______ ____
ROOT
ATOM      1  C   UNL     1      46.642   3.930  13.734  0.00  0.00    +0.000 A 
ATOM      2  N   UNL     1      46.875   3.623  15.004  0.00  0.00    +0.000 NA
ATOM      3  C   UNL     1      47.657   4.484  15.633  0.00  0.00    +0.000 A 
ATOM      4  N   UNL     1      48.006   4.165  16.916  0.00  0.00    +0.000 N 
ATOM      5  N   UNL     1      48.121   5.596  15.091  0.00  0.00    +0.000 NA
ATOM      6  C   UNL     1      47.733   5.879  13.854  0.00  0.00    +0.000 A 
ATOM      7  N   UNL     1      48.125   7.077  13.311  0.00  0.00    +0.000 N 
ATOM      8  C   UNL     1      48.971   8.010  14.056  0.00  0.00    +0.000 C 
ATOM      9  C   UNL     1      48.246   9.344  14.279  0.00  0.00    +0.000 C 
ATOM     10  O   UNL     1      47.716   9.876  13.054  0.00  0.00    +0.000 OA
ATOM     11  C   UNL     1      46.778   8.951  12.477  0.00  0.00    +0.000 C 
ATOM     12  C   UNL     1      47.451   7.612  12.131  0.00  0.00    +0.000 C 
ATOM     13  N   UNL     1      47.004   5.050  13.130  0.00  0.00    +0.000 NA
ATOM     14  H   UNL     1      47.243   3.850  17.492  0.00  0.00    +0.000 HD
ENDROOT
BRANCH   1  16
ATOM     15  C   UNL     1      45.016   3.655  12.078  0.00  0.00    +0.000 C 
ATOM     16  O   UNL     1      45.973   3.033  12.925  0.00  0.00    +0.000 OA
ENDBRANCH   1  16
BRANCH   4  17
ATOM     17  C   UNL     1      49.199   4.710  17.515  0.00  0.00    +0.000 C 
BRANCH  17  18
ATOM     18  C   UNL     1      50.257   3.636  17.525  0.00  0.00    +0.000 A 
ATOM     19  C   UNL     1      51.562   3.918  17.951  0.00  0.00    +0.000 A 
ATOM     20  C   UNL     1      52.521   2.912  17.973  0.00  0.00    +0.000 A 
ATOM     21  C   UNL     1      52.139   1.637  17.574  0.00  0.00    +0.000 A 
ATOM     22  N   UNL     1      50.882   1.320  17.149  0.00  0.00    +0.000 NA
ATOM     23  C   UNL     1      49.980   2.329  17.134  0.00  0.00    +0.000 A 
BRANCH  21  24
ATOM     24  C   UNL     1      53.138   0.525  17.626  0.00  0.00    +0.000 C 
ATOM     25  N   UNL     1      52.846  -0.506  18.478  0.00  0.00    +0.000 N 
ATOM     26  O   UNL     1      54.170   0.526  16.958  0.00  0.00    +0.000 OA
ATOM     27  H   UNL     1      51.995  -0.470  19.029  0.00  0.00    +0.000 HD
ATOM     28  H   UNL     1      53.493  -1.270  18.578  0.00  0.00    +0.000 HD
ENDBRANCH  21  24
ENDBRANCH  17  18
ENDBRANCH   4  17
TORSDOF 4
ENDMDL
MODEL 4
REMARK VINA RESULT:    -6.701      3.531      7.966
REMARK INTER + INTRA:          -8.801
REMARK INTER:                  -8.410
REMARK INTRA:                  -0.390
REMARK UNBOUND:                -0.533
REMARK  Name = 
REMARK  5 active torsions:
REMARK  status: ('A' for Active; 'I' for Inactive)
REMARK    1  A    between atoms: C_1  and  O_2
REMARK    2  A    between atoms: O_2  and  C_3
REMARK    3  A    between atoms: N_6  and  C_7
REMARK    4  A    between atoms: C_7  and  C_8
REMARK    5  A    between atoms: C_11  and  C_12
REMARK                            x       y       z     vdW  Elec       q    Type
REMARK                         _______ _______ _______ _____ _____    ______ ____
ROOT
ATOM      1  C   UNL     1      46.504   7.869  12.804  0.00  0.00    +0.000 A 
ATOM      2  N   UNL     1      47.397   7.383  13.656  0.00  0.00    +0.000 NA
ATOM      3  C   UNL     1      47.089   6.191  14.138  0.00  0.00    +0.000 A 
ATOM      4  N   UNL     1      47.927   5.684  15.093  0.00  0.00    +0.000 N 
ATOM      5  N   UNL     1      46.031   5.492  13.767  0.00  0.00    +0.000 NA
ATOM      6  C   UNL     1      45.262   6.010  12.816  0.00  0.00    +0.000 A 
ATOM      7  N   UNL     1      44.215   5.255  12.349  0.00  0.00    +0.000 N 
ATOM      8  C   UNL     1      43.929   3.929  12.896  0.00  0.00    +0.000 C 
ATOM      9  C   UNL     1      44.050   2.853  11.808  0.00  0.00    +0.000 C 
ATOM     10  O   UNL     1      43.287   3.186  10.638  0.00  0.00    +0.000 OA
ATOM     11  C   UNL     1      43.747   4.432  10.086  0.00  0.00    +0.000 C 
ATOM     12  C   UNL     1      43.569   5.588  11.082  0.00  0.00    +0.000 C 
ATOM     13  N   UNL     1      45.458   7.218  12.323  0.00  0.00    +0.000 NA
ATOM     14  H   UNL     1      48.907   5.769  14.877  0.00  0.00    +0.000 HD
ENDROOT
BRANCH   1  16
ATOM     15  C   UNL     1      47.978   9.569  12.170  0.00  0.00    +0.000 C 
ATOM     16  O   UNL     1      46.627   9.169  12.352  0.00  0.00    +0.000 OA
ENDBRANCH   1  16
BRANCH   4  17
ATOM     17  C   UNL     1      47.466   4.690  16.029  0.00  0.00    +0.000 C 
BRANCH  17  18
ATOM     18  C   UNL     1      48.656   3.886  16.490  0.00  0.00    +0.000 A 
ATOM     19  C   UNL     1      49.722   4.503  17.159  0.00  0.00    +0.000 A 
ATOM     20  C   UNL     1      50.802   3.744  17.596  0.00  0.00    +0.000 A 
ATOM     21  C   UNL     1      50.778   2.376  17.358  0.00  0.00    +0.000 A 
ATOM     22  N   UNL     1      49.763   1.737  16.707  0.00  0.00    +0.000 NA
ATOM     23  C   UNL     1      48.734   2.511  16.290  0.00  0.00    +0.000 A 
BRANCH  21  24
ATOM     24  C   UNL     1      51.907   1.528  17.851  0.00  0.00    +0.000 C 
ATOM     25  N   UNL     1      51.613   0.210  18.080  0.00  0.00    +0.000 N 
ATOM     26  O   UNL     1      53.034   1.974  18.056  0.00  0.00    +0.000 OA
ATOM     27  H   UNL     1      50.669  -0.124  17.918  0.00  0.00    +0.000 HD
ATOM     28  H   UNL     1      52.324  -0.405  18.439  0.00  0.00    +0.000 HD
ENDBRANCH  21  24
ENDBRANCH  17  18
ENDBRANCH   4  17
TORSDOF 4
ENDMDL
MODEL 5
REMARK VINA RESULT:    -6.338      2.987      8.402
REMARK INTER + INTRA:          -8.353
REMARK INTER:                  -7.971
REMARK INTRA:                  -0.382
REMARK UNBOUND:                -0.533
REMARK  Name = 
REMARK  5 active torsions:
REMARK  status: ('A' for Active; 'I' for Inactive)
REMARK    1  A    between atoms: C_1  and  O_2
REMARK    2  A    between atoms: O_2  and  C_3
REMARK    3  A    between atoms: N_6  and  C_7
REMARK    4  A    between atoms: C_7  and  C_8
REMARK    5  A    between atoms: C_11  and  C_12
REMARK                            x       y       z     vdW  Elec       q    Type
REMARK                         _______ _______ _______ _____ _____    ______ ____
ROOT
ATOM      1  C   UNL     1      45.317   7.553  12.005  0.00  0.00    +0.000 A 
ATOM      2  N   UNL     1      46.209   7.265  12.944  0.00  0.00    +0.000 NA
ATOM      3  C   UNL     1      46.356   5.971  13.170  0.00  0.00    +0.000 A 
ATOM      4  N   UNL     1      47.194   5.622  14.193  0.00  0.00    +0.000 N 
ATOM      5  N   UNL     1      45.737   5.024  12.487  0.00  0.00    +0.000 NA
ATOM      6  C   UNL     1      44.957   5.409  11.483  0.00  0.00    +0.000 A 
ATOM      7  N   UNL     1      44.383   4.437  10.702  0.00  0.00    +0.000 N 
ATOM      8  C   UNL     1      44.596   3.016  10.976  0.00  0.00    +0.000 C 
ATOM      9  C   UNL     1      45.291   2.331   9.790  0.00  0.00    +0.000 C 
ATOM     10  O   UNL     1      44.620   2.599   8.549  0.00  0.00    +0.000 OA
ATOM     11  C   UNL     1      44.598   4.014   8.295  0.00  0.00    +0.000 C 
ATOM     12  C   UNL     1      43.831   4.770   9.391  0.00  0.00    +0.000 C 
ATOM     13  N   UNL     1      44.703   6.678  11.225  0.00  0.00    +0.000 NA
ATOM     14  H   UNL     1      48.072   6.115  14.202  0.00  0.00    +0.000 HD
ENDROOT
BRANCH   1  16
ATOM     15  C   UNL     1      45.977   9.792  12.134  0.00  0.00    +0.000 C 
ATOM     16  O   UNL     1      44.955   8.868  11.785  0.00  0.00    +0.000 OA
ENDBRANCH   1  16
BRANCH   4  17
ATOM     17  C   UNL     1      47.061   4.349  14.855  0.00  0.00    +0.000 C 
BRANCH  17  18
ATOM     18  C   UNL     1      47.721   4.447  16.207  0.00  0.00    +0.000 A 
ATOM     19  C   UNL     1      47.528   3.450  17.174  0.00  0.00    +0.000 A 
ATOM     20  C   UNL     1      48.161   3.545  18.408  0.00  0.00    +0.000 A 
ATOM     21  C   UNL     1      48.984   4.640  18.638  0.00  0.00    +0.000 A 
ATOM     22  N   UNL     1      49.196   5.634  17.727  0.00  0.00    +0.000 NA
ATOM     23  C   UNL     1      48.556   5.509  16.541  0.00  0.00    +0.000 A 
BRANCH  21  24
ATOM     24  C   UNL     1      49.710   4.749  19.941  0.00  0.00    +0.000 C 
ATOM     25  N   UNL     1      49.088   4.185  21.023  0.00  0.00    +0.000 N 
ATOM     26  O   UNL     1      50.793   5.319  20.055  0.00  0.00    +0.000 OA
ATOM     27  H   UNL     1      48.186   3.737  20.901  0.00  0.00    +0.000 HD
ATOM     28  H   UNL     1      49.512   4.250  21.933  0.00  0.00    +0.000 HD
ENDBRANCH  21  24
ENDBRANCH  17  18
ENDBRANCH   4  17
TORSDOF 4
ENDMDL
MODEL 6
REMARK VINA RESULT:    -6.092      1.822      4.333
REMARK INTER + INTRA:          -8.049
REMARK INTER:                  -7.544
REMARK INTRA:                  -0.505
REMARK UNBOUND:                -0.533
REMARK  Name = 
REMARK  5 active torsions:
REMARK  status: ('A' for Active; 'I' for Inactive)
REMARK    1  A    between atoms: C_1  and  O_2
REMARK    2  A    between atoms: O_2  and  C_3
REMARK    3  A    between atoms: N_6  and  C_7
REMARK    4  A    between atoms: C_7  and  C_8
REMARK    5  A    between atoms: C_11  and  C_12
REMARK                            x       y       z     vdW  Elec       q    Type
REMARK                         _______ _______ _______ _____ _____    ______ ____
ROOT
ATOM      1  C   UNL     1      48.909   7.723  13.351  0.00  0.00    +0.000 A 
ATOM      2  N   UNL     1      47.697   7.849  12.826  0.00  0.00    +0.000 NA
ATOM      3  C   UNL     1      46.809   6.996  13.308  0.00  0.00    +0.000 A 
ATOM      4  N   UNL     1      45.567   7.019  12.734  0.00  0.00    +0.000 N 
ATOM      5  N   UNL     1      47.059   6.133  14.277  0.00  0.00    +0.000 NA
ATOM      6  C   UNL     1      48.268   6.166  14.824  0.00  0.00    +0.000 A 
ATOM      7  N   UNL     1      48.515   5.346  15.896  0.00  0.00    +0.000 N 
ATOM      8  C   UNL     1      47.490   4.437  16.411  0.00  0.00    +0.000 C 
ATOM      9  C   UNL     1      47.140   4.778  17.866  0.00  0.00    +0.000 C 
ATOM     10  O   UNL     1      48.312   4.874  18.691  0.00  0.00    +0.000 OA
ATOM     11  C   UNL     1      49.185   5.902  18.190  0.00  0.00    +0.000 C 
ATOM     12  C   UNL     1      49.665   5.586  16.764  0.00  0.00    +0.000 C 
ATOM     13  N   UNL     1      49.235   6.941  14.367  0.00  0.00    +0.000 NA
ATOM     14  H   UNL     1      45.183   7.941  12.605  0.00  0.00    +0.000 HD
ENDROOT
BRANCH   1  16
ATOM     15  C   UNL     1      49.662   9.020  11.559  0.00  0.00    +0.000 C 
ATOM     16  O   UNL     1      49.962   8.443  12.823  0.00  0.00    +0.000 OA
ENDBRANCH   1  16
BRANCH   4  17
ATOM     17  C   UNL     1      44.704   5.867  12.793  0.00  0.00    +0.000 C 
BRANCH  17  18
ATOM     18  C   UNL     1      44.951   5.027  11.565  0.00  0.00    +0.000 A 
ATOM     19  C   UNL     1      45.451   5.604  10.389  0.00  0.00    +0.000 A 
ATOM     20  C   UNL     1      45.693   4.812   9.272  0.00  0.00    +0.000 A 
ATOM     21  C   UNL     1      45.434   3.451   9.369  0.00  0.00    +0.000 A 
ATOM     22  N   UNL     1      44.943   2.849  10.491  0.00  0.00    +0.000 NA
ATOM     23  C   UNL     1      44.713   3.655  11.554  0.00  0.00    +0.000 A 
BRANCH  21  24
ATOM     24  C   UNL     1      45.721   2.567   8.197  0.00  0.00    +0.000 C 
ATOM     25  N   UNL     1      45.690   3.171   6.968  0.00  0.00    +0.000 N 
ATOM     26  O   UNL     1      45.961   1.367   8.311  0.00  0.00    +0.000 OA
ATOM     27  H   UNL     1      45.472   4.159   6.905  0.00  0.00    +0.000 HD
ATOM     28  H   UNL     1      45.848   2.624   6.138  0.00  0.00    +0.000 HD
ENDBRANCH  21  24
ENDBRANCH  17  18
ENDBRANCH   4  17
TORSDOF 4
ENDMDL
MODEL 7
REMARK VINA RESULT:    -5.818      3.883      7.666
REMARK INTER + INTRA:          -7.712
REMARK INTER:                  -7.197
REMARK INTRA:                  -0.514
REMARK UNBOUND:                -0.533
REMARK  Name = 
REMARK  5 active torsions:
REMARK  status: ('A' for Active; 'I' for Inactive)
REMARK    1  A    between atoms: C_1  and  O_2
REMARK    2  A    between atoms: O_2  and  C_3
REMARK    3  A    between atoms: N_6  and  C_7
REMARK    4  A    between atoms: C_7  and  C_8
REMARK    5  A    between atoms: C_11  and  C_12
REMARK                            x       y       z     vdW  Elec       q    Type
REMARK                         _______ _______ _______ _____ _____    ______ ____
ROOT
ATOM      1  C   UNL     1      44.966   6.226  12.116  0.00  0.00    +0.000 A 
ATOM      2  N   UNL     1      44.978   5.270  13.037  0.00  0.00    +0.000 NA
ATOM      3  C   UNL     1      46.146   5.114  13.637  0.00  0.00    +0.000 A 
ATOM      4  N   UNL     1      46.240   4.080  14.527  0.00  0.00    +0.000 N 
ATOM      5  N   UNL     1      47.203   5.875  13.411  0.00  0.00    +0.000 NA
ATOM      6  C   UNL     1      47.056   6.884  12.561  0.00  0.00    +0.000 A 
ATOM      7  N   UNL     1      48.113   7.742  12.388  0.00  0.00    +0.000 N 
ATOM      8  C   UNL     1      49.379   7.542  13.095  0.00  0.00    +0.000 C 
ATOM      9  C   UNL     1      49.687   8.737  14.008  0.00  0.00    +0.000 C 
ATOM     10  O   UNL     1      49.594   9.987  13.305  0.00  0.00    +0.000 OA
ATOM     11  C   UNL     1      48.266  10.159  12.779  0.00  0.00    +0.000 C 
ATOM     12  C   UNL     1      47.912   9.052  11.774  0.00  0.00    +0.000 C 
ATOM     13  N   UNL     1      45.948   7.078  11.871  0.00  0.00    +0.000 NA
ATOM     14  H   UNL     1      45.467   4.009  15.169  0.00  0.00    +0.000 HD
ENDROOT
BRANCH   1  16
ATOM     15  C   UNL     1      42.762   5.567  11.702  0.00  0.00    +0.000 C 
ATOM     16  O   UNL     1      43.857   6.383  11.308  0.00  0.00    +0.000 OA
ENDBRANCH   1  16
BRANCH   4  17
ATOM     17  C   UNL     1      47.518   3.499  14.852  0.00  0.00    +0.000 C 
BRANCH  17  18
ATOM     18  C   UNL     1      47.834   3.821  16.290  0.00  0.00    +0.000 A 
ATOM     19  C   UNL     1      47.630   2.869  17.300  0.00  0.00    +0.000 A 
ATOM     20  C   UNL     1      47.945   3.175  18.619  0.00  0.00    +0.000 A 
ATOM     21  C   UNL     1      48.470   4.432  18.891  0.00  0.00    +0.000 A 
ATOM     22  N   UNL     1      48.679   5.388  17.940  0.00  0.00    +0.000 NA
ATOM     23  C   UNL     1      48.352   5.056  16.670  0.00  0.00    +0.000 A 
BRANCH  21  24
ATOM     24  C   UNL     1      48.855   4.776  20.295  0.00  0.00    +0.000 C 
ATOM     25  N   UNL     1      47.826   5.094  21.139  0.00  0.00    +0.000 N 
ATOM     26  O   UNL     1      50.022   4.788  20.680  0.00  0.00    +0.000 OA
ATOM     27  H   UNL     1      46.874   5.093  20.787  0.00  0.00    +0.000 HD
ATOM     28  H   UNL     1      48.023   5.362  22.089  0.00  0.00    +0.000 HD
ENDBRANCH  21  24
ENDBRANCH  17  18
ENDBRANCH   4  17
TORSDOF 4
ENDMDL
MODEL 8
REMARK VINA RESULT:    -5.732      3.169      8.097
REMARK INTER + INTRA:          -7.605
REMARK INTER:                  -7.067
REMARK INTRA:                  -0.538
REMARK UNBOUND:                -0.533
REMARK  Name = 
REMARK  5 active torsions:
REMARK  status: ('A' for Active; 'I' for Inactive)
REMARK    1  A    between atoms: C_1  and  O_2
REMARK    2  A    between atoms: O_2  and  C_3
REMARK    3  A    between atoms: N_6  and  C_7
REMARK    4  A    between atoms: C_7  and  C_8
REMARK    5  A    between atoms: C_11  and  C_12
REMARK                            x       y       z     vdW  Elec       q    Type
REMARK                         _______ _______ _______ _____ _____    ______ ____
ROOT
ATOM      1  C   UNL     1      45.816   5.003  12.500  0.00  0.00    +0.000 A 
ATOM      2  N   UNL     1      45.739   4.381  13.670  0.00  0.00    +0.000 NA
ATOM      3  C   UNL     1      46.746   4.643  14.486  0.00  0.00    +0.000 A 
ATOM      4  N   UNL     1      46.767   3.955  15.669  0.00  0.00    +0.000 N 
ATOM      5  N   UNL     1      47.718   5.497  14.216  0.00  0.00    +0.000 NA
ATOM      6  C   UNL     1      47.641   6.163  13.070  0.00  0.00    +0.000 A 
ATOM      7  N   UNL     1      48.587   7.124  12.817  0.00  0.00    +0.000 N 
ATOM      8  C   UNL     1      49.669   7.396  13.764  0.00  0.00    +0.000 C 
ATOM      9  C   UNL     1      49.597   8.842  14.274  0.00  0.00    +0.000 C 
ATOM     10  O   UNL     1      49.506   9.786  13.195  0.00  0.00    +0.000 OA
ATOM     11  C   UNL     1      48.326   9.530  12.413  0.00  0.00    +0.000 C 
ATOM     12  C   UNL     1      48.363   8.129  11.781  0.00  0.00    +0.000 C 
ATOM     13  N   UNL     1      46.707   5.923  12.169  0.00  0.00    +0.000 NA
ATOM     14  H   UNL     1      45.882   3.923  16.149  0.00  0.00    +0.000 HD
ENDROOT
BRANCH   1  16
ATOM     15  C   UNL     1      44.806   3.296  11.263  0.00  0.00    +0.000 C 
ATOM     16  O   UNL     1      44.914   4.694  11.501  0.00  0.00    +0.000 OA
ENDBRANCH   1  16
BRANCH   4  17
ATOM     17  C   UNL     1      47.999   3.759  16.389  0.00  0.00    +0.000 C 
BRANCH  17  18
ATOM     18  C   UNL     1      48.123   4.851  17.422  0.00  0.00    +0.000 A 
ATOM     19  C   UNL     1      49.259   5.672  17.466  0.00  0.00    +0.000 A 
ATOM     20  C   UNL     1      49.348   6.687  18.411  0.00  0.00    +0.000 A 
ATOM     21  C   UNL     1      48.284   6.860  19.287  0.00  0.00    +0.000 A 
ATOM     22  N   UNL     1      47.163   6.081  19.282  0.00  0.00    +0.000 NA
ATOM     23  C   UNL     1      47.118   5.099  18.352  0.00  0.00    +0.000 A 
BRANCH  21  24
ATOM     24  C   UNL     1      48.334   7.969  20.289  0.00  0.00    +0.000 C 
ATOM     25  N   UNL     1      49.583   8.347  20.703  0.00  0.00    +0.000 N 
ATOM     26  O   UNL     1      47.324   8.511  20.734  0.00  0.00    +0.000 OA
ATOM     27  H   UNL     1      50.397   7.869  20.331  0.00  0.00    +0.000 HD
ATOM     28  H   UNL     1      49.682   9.069  21.397  0.00  0.00    +0.000 HD
ENDBRANCH  21  24
ENDBRANCH  17  18
ENDBRANCH   4  17
TORSDOF 4
ENDMDL
MODEL 9
REMARK VINA RESULT:    -5.719      3.349      6.357
REMARK INTER + INTRA:          -7.589
REMARK INTER:                  -7.117
REMARK INTRA:                  -0.472
REMARK UNBOUND:                -0.533
REMARK  Name = 
REMARK  5 active torsions:
REMARK  status: ('A' for Active; 'I' for Inactive)
REMARK    1  A    between atoms: C_1  and  O_2
REMARK    2  A    between atoms: O_2  and  C_3
REMARK    3  A    between atoms: N_6  and  C_7
REMARK    4  A    between atoms: C_7  and  C_8
REMARK    5  A    between atoms: C_11  and  C_12
REMARK                            x       y       z     vdW  Elec       q    Type
REMARK                         _______ _______ _______ _____ _____    ______ ____
ROOT
ATOM      1  C   UNL     1      45.960   4.180  13.265  0.00  0.00    +0.000 A 
ATOM      2  N   UNL     1      46.420   5.091  12.417  0.00  0.00    +0.000 NA
ATOM      3  C   UNL     1      47.266   5.951  12.956  0.00  0.00    +0.000 A 
ATOM      4  N   UNL     1      47.698   6.969  12.150  0.00  0.00    +0.000 N 
ATOM      5  N   UNL     1      47.690   5.890  14.206  0.00  0.00    +0.000 NA
ATOM      6  C   UNL     1      47.268   4.870  14.943  0.00  0.00    +0.000 A 
ATOM      7  N   UNL     1      47.774   4.735  16.211  0.00  0.00    +0.000 N 
ATOM      8  C   UNL     1      48.730   5.700  16.756  0.00  0.00    +0.000 C 
ATOM      9  C   UNL     1      50.062   5.016  17.093  0.00  0.00    +0.000 C 
ATOM     10  O   UNL     1      49.873   3.848  17.907  0.00  0.00    +0.000 OA
ATOM     11  C   UNL     1      49.045   2.894  17.219  0.00  0.00    +0.000 C 
ATOM     12  C   UNL     1      47.649   3.469  16.929  0.00  0.00    +0.000 C 
ATOM     13  N   UNL     1      46.376   3.999  14.507  0.00  0.00    +0.000 NA
ATOM     14  H   UNL     1      47.980   6.681  11.227  0.00  0.00    +0.000 HD
ENDROOT
BRANCH   1  16
ATOM     15  C   UNL     1      44.762   3.302  11.460  0.00  0.00    +0.000 C 
ATOM     16  O   UNL     1      44.951   3.324  12.869  0.00  0.00    +0.000 OA
ENDBRANCH   1  16
BRANCH   4  17
ATOM     17  C   UNL     1      48.185   8.202  12.713  0.00  0.00    +0.000 C 
BRANCH  17  18
ATOM     18  C   UNL     1      49.437   8.599  11.972  0.00  0.00    +0.000 A 
ATOM     19  C   UNL     1      50.375   7.634  11.579  0.00  0.00    +0.000 A 
ATOM     20  C   UNL     1      51.514   8.014  10.879  0.00  0.00    +0.000 A 
ATOM     21  C   UNL     1      51.678   9.361  10.580  0.00  0.00    +0.000 A 
ATOM     22  N   UNL     1      50.793  10.333  10.947  0.00  0.00    +0.000 NA
ATOM     23  C   UNL     1      49.702   9.924  11.635  0.00  0.00    +0.000 A 
BRANCH  21  24
ATOM     24  C   UNL     1      52.874   9.795   9.793  0.00  0.00    +0.000 C 
ATOM     25  N   UNL     1      53.155   9.060   8.674  0.00  0.00    +0.000 N 
ATOM     26  O   UNL     1      53.580  10.746  10.125  0.00  0.00    +0.000 OA
ATOM     27  H   UNL     1      52.564   8.271   8.435  0.00  0.00    +0.000 HD
ATOM     28  H   UNL     1      53.963   9.285   8.118  0.00  0.00    +0.000 HD
ENDBRANCH  21  24
ENDBRANCH  17  18
ENDBRANCH   4  17
TORSDOF 4
ENDMDL
