MODEL 1
REMARK VINA RESULT:    -8.422      0.000      0.000
REMARK INTER + INTRA:         -12.189
REMARK INTER:                 -11.376
REMARK INTRA:                  -0.812
REMARK UNBOUND:                -0.812
REMARK  Name = 
REMARK  7 active torsions:
REMARK  status: ('A' for Active; 'I' for Inactive)
REMARK    1  A    between atoms: C_1  and  C_2
REMARK    2  A    between atoms: C_2  and  C_3
REMARK    3  A    between atoms: C_2  and  C_15
REMARK    4  A    between atoms: C_3  and  N_4
REMARK    5  A    between atoms: N_4  and  C_5
REMARK    6  A    between atoms: C_8  and  C_9
REMARK    7  A    between atoms: C_19  and  C_20
REMARK                            x       y       z     vdW  Elec       q    Type
REMARK                         _______ _______ _______ _____ _____    ______ ____
ROOT
ATOM      1  C   UNL     1      44.816   5.939  10.884  0.00  0.00    +0.000 C 
ENDROOT
BRANCH   1   3
ATOM      2  C   UNL     1      43.442   4.953  12.833  0.00  0.00    +0.000 C 
ATOM      3  C   UNL     1      44.765   5.330  12.248  0.00  0.00    +0.000 C 
BRANCH   3   4
ATOM      4  C   UNL     1      45.865   5.597  13.170  0.00  0.00    +0.000 A 
ATOM      5  C   UNL     1      46.653   6.739  13.070  0.00  0.00    +0.000 A 
ATOM      6  C   UNL     1      47.785   6.846  13.875  0.00  0.00    +0.000 A 
ATOM      7  C   UNL     1      48.096   5.813  14.752  0.00  0.00    +0.000 A 
ATOM      8  C   UNL     1      47.236   4.725  14.808  0.00  0.00    +0.000 A 
ATOM      9  N   UNL     1      46.121   4.599  14.041  0.00  0.00    +0.000 NA
BRANCH   8  10
ATOM     10  C   UNL     1      47.518   3.584  15.728  0.00  0.00    +0.000 C 
ATOM     11  N   UNL     1      46.827   3.603  16.912  0.00  0.00    +0.000 N 
ATOM     12  O   UNL     1      48.308   2.691  15.452  0.00  0.00    +0.000 OA
ATOM     13  H   UNL     1      46.205   4.370  17.114  0.00  0.00    +0.000 HD
ATOM     14  H   UNL     1      46.963   2.857  17.581  0.00  0.00    +0.000 HD
ENDBRANCH   8  10
ENDBRANCH   3   4
ENDBRANCH   1   3
BRANCH   1  15
ATOM     15  N   UNL     1      44.051   5.107   9.961  0.00  0.00    +0.000 N 
ATOM     16  H   UNL     1      43.498   5.682   9.327  0.00  0.00    +0.000 HD
BRANCH  15  17
ATOM     17  C   UNL     1      44.843   4.213   9.218  0.00  0.00    +0.000 A 
ATOM     18  N   UNL     1      45.672   4.725   8.278  0.00  0.00    +0.000 NA
ATOM     19  C   UNL     1      46.449   3.877   7.563  0.00  0.00    +0.000 A 
ATOM     20  C   UNL     1      46.473   2.506   7.746  0.00  0.00    +0.000 A 
ATOM     21  C   UNL     1      45.637   1.978   8.732  0.00  0.00    +0.000 A 
ATOM     22  C   UNL     1      44.812   2.831   9.469  0.00  0.00    +0.000 A 
ATOM     23 CL   UNL     1      43.766   2.139  10.656  0.00  0.00    +0.000 Cl
BRANCH  20  24
ATOM     24  C   UNL     1      47.321   1.595   6.946  0.00  0.00    +0.000 C 
ATOM     25  N   UNL     1      48.351   2.115   6.209  0.00  0.00    +0.000 N 
ATOM     26  O   UNL     1      47.106   0.389   6.928  0.00  0.00    +0.000 OA
ATOM     27  H   UNL     1      48.607   3.086   6.131  0.00  0.00    +0.000 HD
ATOM     28  H   UNL     1      48.895   1.451   5.670  0.00  0.00    +0.000 HD
ENDBRANCH  20  24
ENDBRANCH  15  17
ENDBRANCH   1  15
TORSDOF 6
ENDMDL
MODEL 2
REMARK VINA RESULT:    -7.450      3.727      4.963
REMARK INTER + INTRA:         -10.876
REMARK INTER:                 -10.204
REMARK INTRA:                  -0.672
REMARK UNBOUND:                -0.812
REMARK  Name = 
REMARK  7 active torsions:
REMARK  status: ('A' for Active; 'I' for Inactive)
REMARK    1  A    between atoms: C_1  and  C_2
REMARK    2  A    between atoms: C_2  and  C_3
REMARK    3  A    between atoms: C_2  and  C_15
REMARK    4  A    between atoms: C_3  and  N_4
REMARK    5  A    between atoms: N_4  and  C_5
REMARK    6  A    between atoms: C_8  and  C_9
REMARK    7  A    between atoms: C_19  and  C_20
REMARK                            x       y       z     vdW  Elec       q    Type
REMARK                         _______ _______ _______ _____ _____    ______ ____
ROOT
ATOM      1  C   UNL     1      45.832   6.249  10.580  0.00  0.00    +0.000 C 
ENDROOT
BRANCH   1   3
ATOM      2  C   UNL     1      44.330   6.212  12.678  0.00  0.00    +0.000 C 
ATOM      3  C   UNL     1      45.154   6.979  11.694  0.00  0.00    +0.000 C 
BRANCH   3   4
ATOM      4  C   UNL     1      44.856   8.397  11.518  0.00  0.00    +0.000 A 
ATOM      5  C   UNL     1      45.733   9.394  11.935  0.00  0.00    +0.000 A 
ATOM      6  C   UNL     1      45.312  10.721  11.888  0.00  0.00    +0.000 A 
ATOM      7  C   UNL     1      44.033  11.012  11.427  0.00  0.00    +0.000 A 
ATOM      8  C   UNL     1      43.238   9.958  11.001  0.00  0.00    +0.000 A 
ATOM      9  N   UNL     1      43.626   8.655  11.029  0.00  0.00    +0.000 NA
BRANCH   8  10
ATOM     10  C   UNL     1      41.855  10.208  10.500  0.00  0.00    +0.000 C 
ATOM     11  N   UNL     1      40.858   9.572  11.196  0.00  0.00    +0.000 N 
ATOM     12  O   UNL     1      41.617  10.928   9.540  0.00  0.00    +0.000 OA
ATOM     13  H   UNL     1      41.095   8.967  11.965  0.00  0.00    +0.000 HD
ATOM     14  H   UNL     1      39.895   9.702  10.916  0.00  0.00    +0.000 HD
ENDBRANCH   8  10
ENDBRANCH   3   4
ENDBRANCH   1   3
BRANCH   1  15
ATOM     15  N   UNL     1      44.832   5.519   9.809  0.00  0.00    +0.000 N 
ATOM     16  H   UNL     1      44.385   6.127   9.125  0.00  0.00    +0.000 HD
BRANCH  15  17
ATOM     17  C   UNL     1      45.341   4.377   9.165  0.00  0.00    +0.000 A 
ATOM     18  N   UNL     1      46.216   4.556   8.147  0.00  0.00    +0.000 NA
ATOM     19  C   UNL     1      46.724   3.464   7.525  0.00  0.00    +0.000 A 
ATOM     20  C   UNL     1      46.423   2.161   7.877  0.00  0.00    +0.000 A 
ATOM     21  C   UNL     1      45.540   1.973   8.942  0.00  0.00    +0.000 A 
ATOM     22  C   UNL     1      44.988   3.083   9.587  0.00  0.00    +0.000 A 
ATOM     23 CL   UNL     1      43.872   2.814  10.876  0.00  0.00    +0.000 Cl
BRANCH  20  24
ATOM     24  C   UNL     1      46.979   0.982   7.176  0.00  0.00    +0.000 C 
ATOM     25  N   UNL     1      46.684  -0.272   7.639  0.00  0.00    +0.000 N 
ATOM     26  O   UNL     1      47.704   1.117   6.197  0.00  0.00    +0.000 OA
ATOM     27  H   UNL     1      46.120  -0.502   8.441  0.00  0.00    +0.000 HD
ATOM     28  H   UNL     1      47.098  -1.045   7.130  0.00  0.00    +0.000 HD
ENDBRANCH  20  24
ENDBRANCH  15  17
ENDBRANCH   1  15
TORSDOF 6
ENDMDL
MODEL 3
REMARK VINA RESULT:    -7.063      2.779      4.829
REMARK INTER + INTRA:         -10.352
REMARK INTER:                  -9.663
REMARK INTRA:                  -0.689
REMARK UNBOUND:                -0.812
REMARK  Name = 
REMARK  7 active torsions:
REMARK  status: ('A' for Active; 'I' for Inactive)
REMARK    1  A    between atoms: C_1  and  C_2
REMARK    2  A    between atoms: C_2  and  C_3
REMARK    3  A    between atoms: C_2  and  C_15
REMARK    4  A    between atoms: C_3  and  N_4
REMARK    5  A    between atoms: N_4  and  C_5
REMARK    6  A    between atoms: C_8  and  C_9
REMARK    7  A    between atoms: C_19  and  C_20
REMARK                            x       y       z     vdW  Elec       q    Type
REMARK                         _______ _______ _______ _____ _____    ______ ____
ROOT
ATOM      1  C   UNL     1      48.029   6.298  14.386  0.00  0.00    +0.000 C 
ENDROOT
BRANCH   1   3
ATOM      2  C   UNL     1      49.765   7.665  15.718  0.00  0.00    +0.000 C 
ATOM      3  C   UNL     1      48.671   6.648  15.690  0.00  0.00    +0.000 C 
BRANCH   3   4
ATOM      4  C   UNL     1      48.624   5.670  16.773  0.00  0.00    +0.000 A 
ATOM      5  C   UNL     1      48.200   6.006  18.055  0.00  0.00    +0.000 A 
ATOM      6  C   UNL     1      48.340   5.069  19.076  0.00  0.00    +0.000 A 
ATOM      7  C   UNL     1      48.897   3.828  18.788  0.00  0.00    +0.000 A 
ATOM      8  C   UNL     1      49.263   3.567  17.475  0.00  0.00    +0.000 A 
ATOM      9  N   UNL     1      49.130   4.460  16.459  0.00  0.00    +0.000 NA
BRANCH   8  10
ATOM     10  C   UNL     1      49.869   2.255  17.105  0.00  0.00    +0.000 C 
ATOM     11  N   UNL     1      50.862   1.814  17.943  0.00  0.00    +0.000 N 
ATOM     12  O   UNL     1      49.512   1.610  16.129  0.00  0.00    +0.000 OA
ATOM     13  H   UNL     1      51.147   2.386  18.723  0.00  0.00    +0.000 HD
ATOM     14  H   UNL     1      51.314   0.929  17.758  0.00  0.00    +0.000 HD
ENDBRANCH   8  10
ENDBRANCH   3   4
ENDBRANCH   1   3
BRANCH   1  15
ATOM     15  N   UNL     1      46.813   5.532  14.643  0.00  0.00    +0.000 N 
ATOM     16  H   UNL     1      46.150   6.077  15.191  0.00  0.00    +0.000 HD
BRANCH  15  17
ATOM     17  C   UNL     1      46.187   5.061  13.475  0.00  0.00    +0.000 A 
ATOM     18  N   UNL     1      46.188   3.727  13.244  0.00  0.00    +0.000 NA
ATOM     19  C   UNL     1      45.578   3.258  12.130  0.00  0.00    +0.000 A 
ATOM     20  C   UNL     1      44.924   4.057  11.209  0.00  0.00    +0.000 A 
ATOM     21  C   UNL     1      44.901   5.431  11.456  0.00  0.00    +0.000 A 
ATOM     22  C   UNL     1      45.539   5.940  12.590  0.00  0.00    +0.000 A 
ATOM     23 CL   UNL     1      45.520   7.647  12.846  0.00  0.00    +0.000 Cl
BRANCH  20  24
ATOM     24  C   UNL     1      44.275   3.525   9.990  0.00  0.00    +0.000 C 
ATOM     25  N   UNL     1      44.102   4.349   8.911  0.00  0.00    +0.000 N 
ATOM     26  O   UNL     1      43.884   2.365   9.941  0.00  0.00    +0.000 OA
ATOM     27  H   UNL     1      44.363   5.320   8.845  0.00  0.00    +0.000 HD
ATOM     28  H   UNL     1      43.643   3.940   8.105  0.00  0.00    +0.000 HD
ENDBRANCH  20  24
ENDBRANCH  15  17
ENDBRANCH   1  15
TORSDOF 6
ENDMDL
MODEL 4
REMARK VINA RESULT:    -6.987      2.118      6.531
REMARK INTER + INTRA:         -10.250
REMARK INTER:                  -9.631
REMARK INTRA:                  -0.619
REMARK UNBOUND:                -0.812
REMARK  Name = 
REMARK  7 active torsions:
REMARK  status: ('A' for Active; 'I' for Inactive)
REMARK    1  A    between atoms: C_1  and  C_2
REMARK    2  A    between atoms: C_2  and  C_3
REMARK    3  A    between atoms: C_2  and  C_15
REMARK    4  A    between atoms: C_3  and  N_4
REMARK    5  A    between atoms: N_4  and  C_5
REMARK    6  A    between atoms: C_8  and  C_9
REMARK    7  A    between atoms: C_19  and  C_20
REMARK                            x       y       z     vdW  Elec       q    Type
REMARK                         _______ _______ _______ _____ _____    ______ ____
ROOT
ATOM      1  C   UNL     1      43.069   4.530  11.204  0.00  0.00    +0.000 C 
ENDROOT
BRANCH   1   3
ATOM      2  C   UNL     1      43.692   2.037  11.434  0.00  0.00    +0.000 C 
ATOM      3  C   UNL     1      43.725   3.308  10.649  0.00  0.00    +0.000 C 
BRANCH   3   4
ATOM      4  C   UNL     1      44.800   3.477   9.675  0.00  0.00    +0.000 A 
ATOM      5  C   UNL     1      45.149   4.726   9.170  0.00  0.00    +0.000 A 
ATOM      6  C   UNL     1      46.067   4.794   8.123  0.00  0.00    +0.000 A 
ATOM      7  C   UNL     1      46.606   3.618   7.615  0.00  0.00    +0.000 A 
ATOM      8  C   UNL     1      46.225   2.419   8.202  0.00  0.00    +0.000 A 
ATOM      9  N   UNL     1      45.338   2.325   9.228  0.00  0.00    +0.000 NA
BRANCH   8  10
ATOM     10  C   UNL     1      46.767   1.124   7.697  0.00  0.00    +0.000 C 
ATOM     11  N   UNL     1      47.812   1.233   6.814  0.00  0.00    +0.000 N 
ATOM     12  O   UNL     1      46.321   0.038   8.041  0.00  0.00    +0.000 OA
ATOM     13  H   UNL     1      48.135   2.145   6.534  0.00  0.00    +0.000 HD
ATOM     14  H   UNL     1      48.234   0.396   6.436  0.00  0.00    +0.000 HD
ENDBRANCH   8  10
ENDBRANCH   3   4
ENDBRANCH   1   3
BRANCH   1  15
ATOM     15  N   UNL     1      43.323   4.599  12.639  0.00  0.00    +0.000 N 
ATOM     16  H   UNL     1      43.199   3.686  13.074  0.00  0.00    +0.000 HD
BRANCH  15  17
ATOM     17  C   UNL     1      44.593   5.109  12.963  0.00  0.00    +0.000 A 
ATOM     18  N   UNL     1      45.419   4.337  13.707  0.00  0.00    +0.000 NA
ATOM     19  C   UNL     1      46.650   4.810  14.017  0.00  0.00    +0.000 A 
ATOM     20  C   UNL     1      47.137   6.036  13.600  0.00  0.00    +0.000 A 
ATOM     21  C   UNL     1      46.296   6.824  12.813  0.00  0.00    +0.000 A 
ATOM     22  C   UNL     1      45.015   6.366  12.496  0.00  0.00    +0.000 A 
ATOM     23 CL   UNL     1      43.989   7.382  11.549  0.00  0.00    +0.000 Cl
BRANCH  20  24
ATOM     24  C   UNL     1      48.481   6.541  13.961  0.00  0.00    +0.000 C 
ATOM     25  N   UNL     1      48.770   6.793  15.274  0.00  0.00    +0.000 N 
ATOM     26  O   UNL     1      49.328   6.743  13.099  0.00  0.00    +0.000 OA
ATOM     27  H   UNL     1      48.150   6.684  16.061  0.00  0.00    +0.000 HD
ATOM     28  H   UNL     1      49.700   7.147  15.467  0.00  0.00    +0.000 HD
ENDBRANCH  20  24
ENDBRANCH  15  17
ENDBRANCH   1  15
TORSDOF 6
ENDMDL
MODEL 5
REMARK VINA RESULT:    -6.812      3.109      4.729
REMARK INTER + INTRA:         -10.014
REMARK INTER:                  -9.069
REMARK INTRA:                  -0.945
REMARK UNBOUND:                -0.812
REMARK  Name = 
REMARK  7 active torsions:
REMARK  status: ('A' for Active; 'I' for Inactive)
REMARK    1  A    between atoms: C_1  and  C_2
REMARK    2  A    between atoms: C_2  and  C_3
REMARK    3  A    between atoms: C_2  and  C_15
REMARK    4  A    between atoms: C_3  and  N_4
REMARK    5  A    between atoms: N_4  and  C_5
REMARK    6  A    between atoms: C_8  and  C_9
REMARK    7  A    between atoms: C_19  and  C_20
REMARK                            x       y       z     vdW  Elec       q    Type
REMARK                         _______ _______ _______ _____ _____    ______ ____
ROOT
ATOM      1  C   UNL     1      48.525   7.006  13.588  0.00  0.00    +0.000 C 
ENDROOT
BRANCH   1   3
ATOM      2  C   UNL     1      50.708   7.668  14.793  0.00  0.00    +0.000 C 
ATOM      3  C   UNL     1      49.276   7.248  14.857  0.00  0.00    +0.000 C 
BRANCH   3   4
ATOM      4  C   UNL     1      48.816   6.586  16.075  0.00  0.00    +0.000 A 
ATOM      5  C   UNL     1      48.793   7.234  17.306  0.00  0.00    +0.000 A 
ATOM      6  C   UNL     1      48.503   6.493  18.449  0.00  0.00    +0.000 A 
ATOM      7  C   UNL     1      48.246   5.132  18.330  0.00  0.00    +0.000 A 
ATOM      8  C   UNL     1      48.259   4.575  17.059  0.00  0.00    +0.000 A 
ATOM      9  N   UNL     1      48.531   5.276  15.927  0.00  0.00    +0.000 NA
BRANCH   8  10
ATOM     10  C   UNL     1      47.994   3.119  16.869  0.00  0.00    +0.000 C 
ATOM     11  N   UNL     1      46.995   2.600  17.653  0.00  0.00    +0.000 N 
ATOM     12  O   UNL     1      48.616   2.430  16.072  0.00  0.00    +0.000 OA
ATOM     13  H   UNL     1      46.523   3.193  18.316  0.00  0.00    +0.000 HD
ATOM     14  H   UNL     1      46.756   1.621  17.573  0.00  0.00    +0.000 HD
ENDBRANCH   8  10
ENDBRANCH   3   4
ENDBRANCH   1   3
BRANCH   1  15
ATOM     15  N   UNL     1      47.094   7.007  13.872  0.00  0.00    +0.000 N 
ATOM     16  H   UNL     1      46.693   7.929  13.711  0.00  0.00    +0.000 HD
BRANCH  15  17
ATOM     17  C   UNL     1      46.373   6.044  13.142  0.00  0.00    +0.000 A 
ATOM     18  N   UNL     1      46.514   4.743  13.491  0.00  0.00    +0.000 NA
ATOM     19  C   UNL     1      45.817   3.806  12.805  0.00  0.00    +0.000 A 
ATOM     20  C   UNL     1      44.942   4.091  11.773  0.00  0.00    +0.000 A 
ATOM     21  C   UNL     1      44.777   5.434  11.427  0.00  0.00    +0.000 A 
ATOM     22  C   UNL     1      45.499   6.417  12.107  0.00  0.00    +0.000 A 
ATOM     23 CL   UNL     1      45.297   8.064  11.629  0.00  0.00    +0.000 Cl
BRANCH  20  24
ATOM     24  C   UNL     1      44.200   3.050  11.027  0.00  0.00    +0.000 C 
ATOM     25  N   UNL     1      44.828   2.379  10.013  0.00  0.00    +0.000 N 
ATOM     26  O   UNL     1      43.034   2.793  11.300  0.00  0.00    +0.000 OA
ATOM     27  H   UNL     1      45.771   2.520   9.688  0.00  0.00    +0.000 HD
ATOM     28  H   UNL     1      44.273   1.684   9.527  0.00  0.00    +0.000 HD
ENDBRANCH  20  24
ENDBRANCH  15  17
ENDBRANCH   1  15
TORSDOF 6
ENDMDL
MODEL 6
REMARK VINA RESULT:    -6.656      4.206      5.724
REMARK INTER + INTRA:          -9.803
REMARK INTER:                  -8.734
REMARK INTRA:                  -1.069
REMARK UNBOUND:                -0.812
REMARK  Name = 
REMARK  7 active torsions:
REMARK  status: ('A' for Active; 'I' for Inactive)
REMARK    1  A    between atoms: C_1  and  C_2
REMARK    2  A    between atoms: C_2  and  C_3
REMARK    3  A    between atoms: C_2  and  C_15
REMARK    4  A    between atoms: C_3  and  N_4
REMARK    5  A    between atoms: N_4  and  C_5
REMARK    6  A    between atoms: C_8  and  C_9
REMARK    7  A    between atoms: C_19  and  C_20
REMARK                            x       y       z     vdW  Elec       q    Type
REMARK                         _______ _______ _______ _____ _____    ______ ____
ROOT
ATOM      1  C   UNL     1      48.555   7.487  14.994  0.00  0.00    +0.000 C 
ENDROOT
BRANCH   1   3
ATOM      2  C   UNL     1      50.883   7.364  16.099  0.00  0.00    +0.000 C 
ATOM      3  C   UNL     1      49.421   7.060  16.135  0.00  0.00    +0.000 C 
BRANCH   3   4
ATOM      4  C   UNL     1      48.979   5.940  16.962  0.00  0.00    +0.000 A 
ATOM      5  C   UNL     1      48.198   6.123  18.099  0.00  0.00    +0.000 A 
ATOM      6  C   UNL     1      47.955   5.031  18.929  0.00  0.00    +0.000 A 
ATOM      7  C   UNL     1      48.498   3.794  18.602  0.00  0.00    +0.000 A 
ATOM      8  C   UNL     1      49.239   3.696  17.432  0.00  0.00    +0.000 A 
ATOM      9  N   UNL     1      49.484   4.743  16.600  0.00  0.00    +0.000 NA
BRANCH   8  10
ATOM     10  C   UNL     1      49.850   2.396  17.030  0.00  0.00    +0.000 C 
ATOM     11  N   UNL     1      50.897   1.977  17.810  0.00  0.00    +0.000 N 
ATOM     12  O   UNL     1      49.450   1.741  16.076  0.00  0.00    +0.000 OA
ATOM     13  H   UNL     1      51.214   2.556  18.571  0.00  0.00    +0.000 HD
ATOM     14  H   UNL     1      51.356   1.100  17.600  0.00  0.00    +0.000 HD
ENDBRANCH   8  10
ENDBRANCH   3   4
ENDBRANCH   1   3
BRANCH   1  15
ATOM     15  N   UNL     1      48.433   6.384  14.047  0.00  0.00    +0.000 N 
ATOM     16  H   UNL     1      48.712   5.504  14.477  0.00  0.00    +0.000 HD
BRANCH  15  17
ATOM     17  C   UNL     1      47.146   6.255  13.495  0.00  0.00    +0.000 A 
ATOM     18  N   UNL     1      46.624   7.319  12.840  0.00  0.00    +0.000 NA
ATOM     19  C   UNL     1      45.390   7.204  12.293  0.00  0.00    +0.000 A 
ATOM     20  C   UNL     1      44.625   6.053  12.337  0.00  0.00    +0.000 A 
ATOM     21  C   UNL     1      45.171   4.947  12.992  0.00  0.00    +0.000 A 
ATOM     22  C   UNL     1      46.434   5.046  13.581  0.00  0.00    +0.000 A 
ATOM     23 CL   UNL     1      47.064   3.670  14.411  0.00  0.00    +0.000 Cl
BRANCH  20  24
ATOM     24  C   UNL     1      43.273   5.953  11.744  0.00  0.00    +0.000 C 
ATOM     25  N   UNL     1      42.679   7.079  11.240  0.00  0.00    +0.000 N 
ATOM     26  O   UNL     1      42.679   4.882  11.709  0.00  0.00    +0.000 OA
ATOM     27  H   UNL     1      43.061   8.011  11.233  0.00  0.00    +0.000 HD
ATOM     28  H   UNL     1      41.749   6.959  10.854  0.00  0.00    +0.000 HD
ENDBRANCH  20  24
ENDBRANCH  15  17
ENDBRANCH   1  15
TORSDOF 6
ENDMDL
MODEL 7
REMARK VINA RESULT:    -6.556      2.356      6.983
REMARK INTER + INTRA:          -9.669
REMARK INTER:                  -8.528
REMARK INTRA:                  -1.141
REMARK UNBOUND:                -0.812
REMARK  Name = 
REMARK  7 active torsions:
REMARK  status: ('A' for Active; 'I' for Inactive)
REMARK    1  A    between atoms: C_1  and  C_2
REMARK    2  A    between atoms: C_2  and  C_3
REMARK    3  A    between atoms: C_2  and  C_15
REMARK    4  A    between atoms: C_3  and  N_4
REMARK    5  A    between atoms: N_4  and  C_5
REMARK    6  A    between atoms: C_8  and  C_9
REMARK    7  A    between atoms: C_19  and  C_20
REMARK                            x       y       z     vdW  Elec       q    Type
REMARK                         _______ _______ _______ _____ _____    ______ ____
ROOT
ATOM      1  C   UNL     1      46.537   7.467  12.590  0.00  0.00    +0.000 C 
ENDROOT
BRANCH   1   3
ATOM      2  C   UNL     1      44.645   8.762  11.407  0.00  0.00    +0.000 C 
ATOM      3  C   UNL     1      45.306   7.465  11.741  0.00  0.00    +0.000 C 
BRANCH   3   4
ATOM      4  C   UNL     1      44.489   6.255  11.704  0.00  0.00    +0.000 A 
ATOM      5  C   UNL     1      43.664   5.888  12.762  0.00  0.00    +0.000 A 
ATOM      6  C   UNL     1      43.044   4.641  12.728  0.00  0.00    +0.000 A 
ATOM      7  C   UNL     1      43.267   3.801  11.643  0.00  0.00    +0.000 A 
ATOM      8  C   UNL     1      44.079   4.262  10.617  0.00  0.00    +0.000 A 
ATOM      9  N   UNL     1      44.690   5.477  10.621  0.00  0.00    +0.000 NA
BRANCH   8  10
ATOM     10  C   UNL     1      44.358   3.404   9.429  0.00  0.00    +0.000 C 
ATOM     11  N   UNL     1      44.236   4.031   8.215  0.00  0.00    +0.000 N 
ATOM     12  O   UNL     1      44.675   2.226   9.521  0.00  0.00    +0.000 OA
ATOM     13  H   UNL     1      43.947   4.995   8.179  0.00  0.00    +0.000 HD
ATOM     14  H   UNL     1      44.416   3.512   7.366  0.00  0.00    +0.000 HD
ENDBRANCH   8  10
ENDBRANCH   3   4
ENDBRANCH   1   3
BRANCH   1  15
ATOM     15  N   UNL     1      47.132   6.136  12.572  0.00  0.00    +0.000 N 
ATOM     16  H   UNL     1      47.953   6.113  11.969  0.00  0.00    +0.000 HD
BRANCH  15  17
ATOM     17  C   UNL     1      47.470   5.651  13.848  0.00  0.00    +0.000 A 
ATOM     18  N   UNL     1      48.122   6.484  14.694  0.00  0.00    +0.000 NA
ATOM     19  C   UNL     1      48.444   6.035  15.931  0.00  0.00    +0.000 A 
ATOM     20  C   UNL     1      48.127   4.775  16.405  0.00  0.00    +0.000 A 
ATOM     21  C   UNL     1      47.434   3.923  15.544  0.00  0.00    +0.000 A 
ATOM     22  C   UNL     1      47.108   4.356  14.256  0.00  0.00    +0.000 A 
ATOM     23 CL   UNL     1      46.281   3.264  13.206  0.00  0.00    +0.000 Cl
BRANCH  20  24
ATOM     24  C   UNL     1      48.499   4.299  17.756  0.00  0.00    +0.000 C 
ATOM     25  N   UNL     1      47.529   4.185  18.715  0.00  0.00    +0.000 N 
ATOM     26  O   UNL     1      49.660   4.018  18.026  0.00  0.00    +0.000 OA
ATOM     27  H   UNL     1      46.552   4.407  18.615  0.00  0.00    +0.000 HD
ATOM     28  H   UNL     1      47.838   3.866  19.627  0.00  0.00    +0.000 HD
ENDBRANCH  20  24
ENDBRANCH  15  17
ENDBRANCH   1  15
TORSDOF 6
ENDMDL
MODEL 8
REMARK VINA RESULT:    -6.460      3.700      7.883
REMARK INTER + INTRA:          -9.539
REMARK INTER:                  -8.911
REMARK INTRA:                  -0.628
REMARK UNBOUND:                -0.812
REMARK  Name = 
REMARK  7 active torsions:
REMARK  status: ('A' for Active; 'I' for Inactive)
REMARK    1  A    between atoms: C_1  and  C_2
REMARK    2  A    between atoms: C_2  and  C_3
REMARK    3  A    between atoms: C_2  and  C_15
REMARK    4  A    between atoms: C_3  and  N_4
REMARK    5  A    between atoms: N_4  and  C_5
REMARK    6  A    between atoms: C_8  and  C_9
REMARK    7  A    between atoms: C_19  and  C_20
REMARK                            x       y       z     vdW  Elec       q    Type
REMARK                         _______ _______ _______ _____ _____    ______ ____
ROOT
ATOM      1  C   UNL     1      46.949   4.056  14.759  0.00  0.00    +0.000 C 
ENDROOT
BRANCH   1   3
ATOM      2  C   UNL     1      47.833   6.397  14.131  0.00  0.00    +0.000 C 
ATOM      3  C   UNL     1      47.072   5.165  13.764  0.00  0.00    +0.000 C 
BRANCH   3   4
ATOM      4  C   UNL     1      46.057   5.277  12.720  0.00  0.00    +0.000 A 
ATOM      5  C   UNL     1      45.594   6.510  12.269  0.00  0.00    +0.000 A 
ATOM      6  C   UNL     1      44.510   6.540  11.395  0.00  0.00    +0.000 A 
ATOM      7  C   UNL     1      43.923   5.344  10.998  0.00  0.00    +0.000 A 
ATOM      8  C   UNL     1      44.471   4.160  11.472  0.00  0.00    +0.000 A 
ATOM      9  N   UNL     1      45.532   4.102  12.320  0.00  0.00    +0.000 NA
BRANCH   8  10
ATOM     10  C   UNL     1      43.881   2.846  11.085  0.00  0.00    +0.000 C 
ATOM     11  N   UNL     1      44.461   2.244   9.997  0.00  0.00    +0.000 N 
ATOM     12  O   UNL     1      42.949   2.332  11.689  0.00  0.00    +0.000 OA
ATOM     13  H   UNL     1      45.209   2.710   9.510  0.00  0.00    +0.000 HD
ATOM     14  H   UNL     1      44.117   1.347   9.681  0.00  0.00    +0.000 HD
ENDBRANCH   8  10
ENDBRANCH   3   4
ENDBRANCH   1   3
BRANCH   1  15
ATOM     15  N   UNL     1      47.345   4.548  16.074  0.00  0.00    +0.000 N 
ATOM     16  H   UNL     1      46.596   4.416  16.752  0.00  0.00    +0.000 HD
BRANCH  15  17
ATOM     17  C   UNL     1      48.531   3.968  16.560  0.00  0.00    +0.000 A 
ATOM     18  N   UNL     1      48.722   2.643  16.355  0.00  0.00    +0.000 NA
ATOM     19  C   UNL     1      49.865   2.073  16.807  0.00  0.00    +0.000 A 
ATOM     20  C   UNL     1      50.874   2.764  17.453  0.00  0.00    +0.000 A 
ATOM     21  C   UNL     1      50.690   4.135  17.644  0.00  0.00    +0.000 A 
ATOM     22  C   UNL     1      49.511   4.742  17.204  0.00  0.00    +0.000 A 
ATOM     23 CL   UNL     1      49.302   6.432  17.488  0.00  0.00    +0.000 Cl
BRANCH  20  24
ATOM     24  C   UNL     1      52.110   2.119  17.950  0.00  0.00    +0.000 C 
ATOM     25  N   UNL     1      52.771   2.673  19.013  0.00  0.00    +0.000 N 
ATOM     26  O   UNL     1      52.548   1.107  17.418  0.00  0.00    +0.000 OA
ATOM     27  H   UNL     1      52.517   3.510  19.513  0.00  0.00    +0.000 HD
ATOM     28  H   UNL     1      53.618   2.199  19.308  0.00  0.00    +0.000 HD
ENDBRANCH  20  24
ENDBRANCH  15  17
ENDBRANCH   1  15
TORSDOF 6
ENDMDL
MODEL 9
REMARK VINA RESULT:    -6.400      3.515      5.485
REMARK INTER + INTRA:          -9.457
REMARK INTER:                  -8.909
REMARK INTRA:                  -0.548
REMARK UNBOUND:                -0.812
REMARK  Name = 
REMARK  7 active torsions:
REMARK  status: ('A' for Active; 'I' for Inactive)
REMARK    1  A    between atoms: C_1  and  C_2
REMARK    2  A    between atoms: C_2  and  C_3
REMARK    3  A    between atoms: C_2  and  C_15
REMARK    4  A    between atoms: C_3  and  N_4
REMARK    5  A    between atoms: N_4  and  C_5
REMARK    6  A    between atoms: C_8  and  C_9
REMARK    7  A    between atoms: C_19  and  C_20
REMARK                            x       y       z     vdW  Elec       q    Type
REMARK                         _______ _______ _______ _____ _____    ______ ____
ROOT
ATOM      1  C   UNL     1      47.510   3.936  15.894  0.00  0.00    +0.000 C 
ENDROOT
BRANCH   1   3
ATOM      2  C   UNL     1      47.150   5.141  18.147  0.00  0.00    +0.000 C 
ATOM      3  C   UNL     1      48.021   4.332  17.241  0.00  0.00    +0.000 C 
BRANCH   3   4
ATOM      4  C   UNL     1      49.465   4.404  17.444  0.00  0.00    +0.000 A 
ATOM      5  C   UNL     1      50.178   5.588  17.274  0.00  0.00    +0.000 A 
ATOM      6  C   UNL     1      51.569   5.547  17.319  0.00  0.00    +0.000 A 
ATOM      7  C   UNL     1      52.206   4.329  17.533  0.00  0.00    +0.000 A 
ATOM      8  C   UNL     1      51.416   3.205  17.724  0.00  0.00    +0.000 A 
ATOM      9  N   UNL     1      50.057   3.218  17.693  0.00  0.00    +0.000 NA
BRANCH   8  10
ATOM     10  C   UNL     1      52.043   1.871  17.954  0.00  0.00    +0.000 C 
ATOM     11  N   UNL     1      51.294   0.796  17.546  0.00  0.00    +0.000 N 
ATOM     12  O   UNL     1      53.146   1.735  18.467  0.00  0.00    +0.000 OA
ATOM     13  H   UNL     1      50.379   0.947  17.152  0.00  0.00    +0.000 HD
ATOM     14  H   UNL     1      51.659  -0.140  17.664  0.00  0.00    +0.000 HD
ENDBRANCH   8  10
ENDBRANCH   3   4
ENDBRANCH   1   3
BRANCH   1  15
ATOM     15  N   UNL     1      47.203   5.139  15.127  0.00  0.00    +0.000 N 
ATOM     16  H   UNL     1      48.044   5.690  14.964  0.00  0.00    +0.000 HD
BRANCH  15  17
ATOM     17  C   UNL     1      46.563   4.879  13.902  0.00  0.00    +0.000 A 
ATOM     18  N   UNL     1      46.156   3.612  13.653  0.00  0.00    +0.000 NA
ATOM     19  C   UNL     1      45.527   3.349  12.482  0.00  0.00    +0.000 A 
ATOM     20  C   UNL     1      45.247   4.302  11.520  0.00  0.00    +0.000 A 
ATOM     21  C   UNL     1      45.644   5.614  11.786  0.00  0.00    +0.000 A 
ATOM     22  C   UNL     1      46.312   5.907  12.978  0.00  0.00    +0.000 A 
ATOM     23 CL   UNL     1      46.820   7.533  13.257  0.00  0.00    +0.000 Cl
BRANCH  20  24
ATOM     24  C   UNL     1      44.570   3.991  10.242  0.00  0.00    +0.000 C 
ATOM     25  N   UNL     1      44.831   4.763   9.142  0.00  0.00    +0.000 N 
ATOM     26  O   UNL     1      43.776   3.062  10.161  0.00  0.00    +0.000 OA
ATOM     27  H   UNL     1      45.445   5.561   9.096  0.00  0.00    +0.000 HD
ATOM     28  H   UNL     1      44.333   4.516   8.294  0.00  0.00    +0.000 HD
ENDBRANCH  20  24
ENDBRANCH  15  17
ENDBRANCH   1  15
TORSDOF 6
ENDMDL
