MODEL 1
REMARK VINA RESULT:    -7.469      0.000      0.000
REMARK INTER + INTRA:         -12.560
REMARK INTER:                 -11.617
REMARK INTRA:                  -0.942
REMARK UNBOUND:                -0.942
REMARK  Name = 
REMARK  10 active torsions:
REMARK  status: ('A' for Active; 'I' for Inactive)
REMARK    1  A    between atoms: N_1  and  C_2
REMARK    2  A    between atoms: C_2  and  C_3
REMARK    3  A    between atoms: C_3  and  C_4
REMARK    4  A    between atoms: C_4  and  N_5
REMARK    5  A    between atoms: C_8  and  C_9
REMARK    6  A    between atoms: N_11  and  C_12
REMARK    7  A    between atoms: C_12  and  C_13
REMARK    8  A    between atoms: C_16  and  C_17
REMARK    9  A    between atoms: C_17  and  N_18
REMARK   10  A    between atoms: C_19  and  C_21
REMARK                            x       y       z     vdW  Elec       q    Type
REMARK                         _______ _______ _______ _____ _____    ______ ____
ROOT
ATOM      1  C   UNL     1      46.341   4.827  13.940  0.00  0.00    +0.000 A 
ATOM      2  C   UNL     1      46.747   4.412  15.215  0.00  0.00    +0.000 A 
ATOM      3  C   UNL     1      47.803   5.055  15.868  0.00  0.00    +0.000 A 
ATOM      4  C   UNL     1      48.460   6.136  15.267  0.00  0.00    +0.000 A 
ATOM      5  C   UNL     1      48.058   6.544  13.987  0.00  0.00    +0.000 A 
ATOM      6  C   UNL     1      47.001   5.903  13.336  0.00  0.00    +0.000 A 
ENDROOT
BRANCH   1   7
ATOM      7  C   UNL     1      45.192   4.148  13.244  0.00  0.00    +0.000 C 
BRANCH   7  10
ATOM      8  C   UNL     1      44.191   4.066  11.013  0.00  0.00    +0.000 C 
ATOM      9  O   UNL     1      43.090   3.800  11.491  0.00  0.00    +0.000 OA
ATOM     10  N   UNL     1      45.289   4.288  11.810  0.00  0.00    +0.000 N 
ATOM     11  H   UNL     1      46.201   4.450  11.403  0.00  0.00    +0.000 HD
BRANCH   8  15
ATOM     12  N   UNL     1      45.357   2.877   7.794  0.00  0.00    +0.000 NA
ATOM     13  C   UNL     1      45.943   4.227   7.719  0.00  0.00    +0.000 C 
ATOM     14  C   UNL     1      45.785   4.799   9.116  0.00  0.00    +0.000 C 
ATOM     15  C   UNL     1      44.404   4.310   9.527  0.00  0.00    +0.000 C 
ATOM     16  C   UNL     1      44.198   3.029   8.706  0.00  0.00    +0.000 C 
BRANCH  12  17
ATOM     17  C   UNL     1      46.355   1.914   8.307  0.00  0.00    +0.000 C 
BRANCH  17  18
ATOM     18  C   UNL     1      47.194   1.254   7.203  0.00  0.00    +0.000 C 
BRANCH  18  19
ATOM     19  C   UNL     1      48.206   2.220   6.582  0.00  0.00    +0.000 C 
BRANCH  19  20
ATOM     20  N   UNL     1      48.398   1.970   5.156  0.00  0.00    +0.000 NA
ATOM     21  H   UNL     1      48.214   2.825   4.633  0.00  0.00    +0.000 HD
ATOM     22  H   UNL     1      47.714   1.284   4.834  0.00  0.00    +0.000 HD
ENDBRANCH  19  20
ENDBRANCH  18  19
ENDBRANCH  17  18
ENDBRANCH  12  17
ENDBRANCH   8  15
ENDBRANCH   7  10
ENDBRANCH   1   7
BRANCH   4  23
ATOM     23  C   UNL     1      49.603   6.828  15.962  0.00  0.00    +0.000 C 
BRANCH  23  24
ATOM     24  N   UNL     1      50.579   5.882  16.442  0.00  0.00    +0.000 N 
ATOM     25  C   UNL     1      50.687   5.599  17.780  0.00  0.00    +0.000 C 
ATOM     26  O   UNL     1      49.927   6.091  18.609  0.00  0.00    +0.000 OA
ATOM     27  H   UNL     1      51.339   5.642  15.814  0.00  0.00    +0.000 HD
BRANCH  25  28
ATOM     28  C   UNL     1      51.723   4.634  18.171  0.00  0.00    +0.000 A 
ATOM     29  C   UNL     1      52.839   5.073  18.869  0.00  0.00    +0.000 A 
ATOM     30  S   UNL     1      53.925   3.826  19.282  0.00  0.00    +0.000 S 
ATOM     31  C   UNL     1      52.966   2.659  18.498  0.00  0.00    +0.000 A 
ATOM     32  N   UNL     1      53.350   1.355  18.455  0.00  0.00    +0.000 NA
ATOM     33  C   UNL     1      52.547   0.584  17.802  0.00  0.00    +0.000 A 
ATOM     34  N   UNL     1      51.390   0.998  17.193  0.00  0.00    +0.000 N 
ATOM     35  C   UNL     1      50.947   2.298  17.236  0.00  0.00    +0.000 A 
ATOM     36  O   UNL     1      49.885   2.628  16.717  0.00  0.00    +0.000 OA
ATOM     37  C   UNL     1      51.822   3.211  17.946  0.00  0.00    +0.000 A 
ATOM     38  H   UNL     1      50.799   0.341  16.706  0.00  0.00    +0.000 HD
ENDBRANCH  25  28
ENDBRANCH  23  24
ENDBRANCH   4  23
TORSDOF 10
ENDMDL
MODEL 2
REMARK VINA RESULT:    -7.299      5.473      7.450
REMARK INTER + INTRA:         -12.295
REMARK INTER:                 -10.972
REMARK INTRA:                  -1.323
REMARK UNBOUND:                -0.942
REMARK  Name = 
REMARK  10 active torsions:
REMARK  status: ('A' for Active; 'I' for Inactive)
REMARK    1  A    between atoms: N_1  and  C_2
REMARK    2  A    between atoms: C_2  and  C_3
REMARK    3  A    between atoms: C_3  and  C_4
REMARK    4  A    between atoms: C_4  and  N_5
REMARK    5  A    between atoms: C_8  and  C_9
REMARK    6  A    between atoms: N_11  and  C_12
REMARK    7  A    between atoms: C_12  and  C_13
REMARK    8  A    between atoms: C_16  and  C_17
REMARK    9  A    between atoms: C_17  and  N_18
REMARK   10  A    between atoms: C_19  and  C_21
REMARK                            x       y       z     vdW  Elec       q    Type
REMARK                         _______ _______ _______ _____ _____    ______ ____
ROOT
ATOM      1  C   UNL     1      48.674   6.822  13.678  0.00  0.00    +0.000 A 
ATOM      2  C   UNL     1      48.553   7.012  12.295  0.00  0.00    +0.000 A 
ATOM      3  C   UNL     1      49.503   7.763  11.596  0.00  0.00    +0.000 A 
ATOM      4  C   UNL     1      50.600   8.323  12.263  0.00  0.00    +0.000 A 
ATOM      5  C   UNL     1      50.714   8.139  13.648  0.00  0.00    +0.000 A 
ATOM      6  C   UNL     1      49.766   7.387  14.346  0.00  0.00    +0.000 A 
ENDROOT
BRANCH   1   7
ATOM      7  C   UNL     1      47.663   5.998  14.427  0.00  0.00    +0.000 C 
BRANCH   7  10
ATOM      8  C   UNL     1      45.895   4.635  13.424  0.00  0.00    +0.000 C 
ATOM      9  O   UNL     1      46.410   3.606  13.858  0.00  0.00    +0.000 OA
ATOM     10  N   UNL     1      46.430   5.874  13.684  0.00  0.00    +0.000 N 
ATOM     11  H   UNL     1      46.029   6.708  13.276  0.00  0.00    +0.000 HD
BRANCH   8  15
ATOM     12  N   UNL     1      43.817   3.407  10.720  0.00  0.00    +0.000 NA
ATOM     13  C   UNL     1      43.470   4.833  10.591  0.00  0.00    +0.000 C 
ATOM     14  C   UNL     1      44.461   5.559  11.484  0.00  0.00    +0.000 C 
ATOM     15  C   UNL     1      44.561   4.641  12.693  0.00  0.00    +0.000 C 
ATOM     16  C   UNL     1      44.211   3.251  12.142  0.00  0.00    +0.000 C 
BRANCH  12  17
ATOM     17  C   UNL     1      44.915   3.062   9.791  0.00  0.00    +0.000 C 
BRANCH  17  18
ATOM     18  C   UNL     1      44.718   3.623   8.375  0.00  0.00    +0.000 C 
BRANCH  18  19
ATOM     19  C   UNL     1      45.873   3.266   7.438  0.00  0.00    +0.000 C 
BRANCH  19  20
ATOM     20  N   UNL     1      46.807   4.376   7.268  0.00  0.00    +0.000 NA
ATOM     21  H   UNL     1      47.622   4.059   6.746  0.00  0.00    +0.000 HD
ATOM     22  H   UNL     1      47.149   4.677   8.182  0.00  0.00    +0.000 HD
ENDBRANCH  19  20
ENDBRANCH  18  19
ENDBRANCH  17  18
ENDBRANCH  12  17
ENDBRANCH   8  15
ENDBRANCH   7  10
ENDBRANCH   1   7
BRANCH   4  23
ATOM     23  C   UNL     1      51.623   9.139  11.517  0.00  0.00    +0.000 C 
BRANCH  23  24
ATOM     24  N   UNL     1      51.929   8.557  10.235  0.00  0.00    +0.000 N 
ATOM     25  C   UNL     1      53.044   8.942   9.533  0.00  0.00    +0.000 C 
ATOM     26  O   UNL     1      53.849   9.748   9.990  0.00  0.00    +0.000 OA
ATOM     27  H   UNL     1      51.179   8.066   9.758  0.00  0.00    +0.000 HD
BRANCH  25  28
ATOM     28  C   UNL     1      53.259   8.301   8.229  0.00  0.00    +0.000 A 
ATOM     29  C   UNL     1      53.250   9.075   7.077  0.00  0.00    +0.000 A 
ATOM     30  S   UNL     1      53.555   8.189   5.653  0.00  0.00    +0.000 S 
ATOM     31  C   UNL     1      53.660   6.729   6.520  0.00  0.00    +0.000 A 
ATOM     32  N   UNL     1      53.885   5.551   5.879  0.00  0.00    +0.000 NA
ATOM     33  C   UNL     1      53.910   4.518   6.653  0.00  0.00    +0.000 A 
ATOM     34  N   UNL     1      53.736   4.558   8.012  0.00  0.00    +0.000 N 
ATOM     35  C   UNL     1      53.537   5.727   8.706  0.00  0.00    +0.000 A 
ATOM     36  O   UNL     1      53.428   5.732   9.929  0.00  0.00    +0.000 OA
ATOM     37  C   UNL     1      53.486   6.918   7.880  0.00  0.00    +0.000 A 
ATOM     38  H   UNL     1      53.777   3.713   8.563  0.00  0.00    +0.000 HD
ENDBRANCH  25  28
ENDBRANCH  23  24
ENDBRANCH   4  23
TORSDOF 10
ENDMDL
MODEL 3
REMARK VINA RESULT:    -7.238      3.414      9.395
REMARK INTER + INTRA:         -12.200
REMARK INTER:                 -10.432
REMARK INTRA:                  -1.768
REMARK UNBOUND:                -0.942
REMARK  Name = 
REMARK  10 active torsions:
REMARK  status: ('A' for Active; 'I' for Inactive)
REMARK    1  A    between atoms: N_1  and  C_2
REMARK    2  A    between atoms: C_2  and  C_3
REMARK    3  A    between atoms: C_3  and  C_4
REMARK    4  A    between atoms: C_4  and  N_5
REMARK    5  A    between atoms: C_8  and  C_9
REMARK    6  A    between atoms: N_11  and  C_12
REMARK    7  A    between atoms: C_12  and  C_13
REMARK    8  A    between atoms: C_16  and  C_17
REMARK    9  A    between atoms: C_17  and  N_18
REMARK   10  A    between atoms: C_19  and  C_21
REMARK                            x       y       z     vdW  Elec       q    Type
REMARK                         _______ _______ _______ _____ _____    ______ ____
ROOT
ATOM      1  C   UNL     1      50.631   7.530  14.915  0.00  0.00    +0.000 A 
ATOM      2  C   UNL     1      49.318   7.107  15.162  0.00  0.00    +0.000 A 
ATOM      3  C   UNL     1      48.337   7.222  14.174  0.00  0.00    +0.000 A 
ATOM      4  C   UNL     1      48.652   7.746  12.914  0.00  0.00    +0.000 A 
ATOM      5  C   UNL     1      49.964   8.177  12.671  0.00  0.00    +0.000 A 
ATOM      6  C   UNL     1      50.945   8.059  13.658  0.00  0.00    +0.000 A 
ENDROOT
BRANCH   1   7
ATOM      7  C   UNL     1      51.693   7.388  15.971  0.00  0.00    +0.000 C 
BRANCH   7  10
ATOM      8  C   UNL     1      50.959   6.792  18.228  0.00  0.00    +0.000 C 
ATOM      9  O   UNL     1      50.884   7.978  18.542  0.00  0.00    +0.000 OA
ATOM     10  N   UNL     1      51.322   6.402  16.960  0.00  0.00    +0.000 N 
ATOM     11  H   UNL     1      51.434   5.424  16.731  0.00  0.00    +0.000 HD
BRANCH   8  15
ATOM     12  N   UNL     1      48.932   3.847  18.824  0.00  0.00    +0.000 NA
ATOM     13  C   UNL     1      48.690   4.507  20.119  0.00  0.00    +0.000 C 
ATOM     14  C   UNL     1      49.253   5.907  19.955  0.00  0.00    +0.000 C 
ATOM     15  C   UNL     1      50.526   5.668  19.157  0.00  0.00    +0.000 C 
ATOM     16  C   UNL     1      50.249   4.370  18.385  0.00  0.00    +0.000 C 
BRANCH  12  17
ATOM     17  C   UNL     1      47.850   4.177  17.871  0.00  0.00    +0.000 C 
BRANCH  17  18
ATOM     18  C   UNL     1      47.912   3.365  16.569  0.00  0.00    +0.000 C 
BRANCH  18  19
ATOM     19  C   UNL     1      47.158   4.040  15.422  0.00  0.00    +0.000 C 
BRANCH  19  20
ATOM     20  N   UNL     1      47.289   3.301  14.169  0.00  0.00    +0.000 NA
ATOM     21  H   UNL     1      48.064   3.682  13.629  0.00  0.00    +0.000 HD
ATOM     22  H   UNL     1      46.450   3.437  13.603  0.00  0.00    +0.000 HD
ENDBRANCH  19  20
ENDBRANCH  18  19
ENDBRANCH  17  18
ENDBRANCH  12  17
ENDBRANCH   8  15
ENDBRANCH   7  10
ENDBRANCH   1   7
BRANCH   4  23
ATOM     23  C   UNL     1      47.597   7.879  11.847  0.00  0.00    +0.000 C 
BRANCH  23  24
ATOM     24  N   UNL     1      46.915   6.630  11.621  0.00  0.00    +0.000 N 
ATOM     25  C   UNL     1      45.565   6.515  11.840  0.00  0.00    +0.000 C 
ATOM     26  O   UNL     1      44.880   7.475  12.179  0.00  0.00    +0.000 OA
ATOM     27  H   UNL     1      47.488   5.795  11.556  0.00  0.00    +0.000 HD
BRANCH  25  28
ATOM     28  C   UNL     1      44.966   5.196  11.596  0.00  0.00    +0.000 A 
ATOM     29  C   UNL     1      44.282   4.556  12.620  0.00  0.00    +0.000 A 
ATOM     30  S   UNL     1      43.612   3.056  12.164  0.00  0.00    +0.000 S 
ATOM     31  C   UNL     1      44.255   3.184  10.595  0.00  0.00    +0.000 A 
ATOM     32  N   UNL     1      44.068   2.196   9.680  0.00  0.00    +0.000 NA
ATOM     33  C   UNL     1      44.636   2.408   8.540  0.00  0.00    +0.000 A 
ATOM     34  N   UNL     1      45.371   3.524   8.231  0.00  0.00    +0.000 N 
ATOM     35  C   UNL     1      45.561   4.561   9.111  0.00  0.00    +0.000 A 
ATOM     36  O   UNL     1      46.188   5.566   8.787  0.00  0.00    +0.000 OA
ATOM     37  C   UNL     1      44.955   4.366  10.414  0.00  0.00    +0.000 A 
ATOM     38  H   UNL     1      45.781   3.634   7.315  0.00  0.00    +0.000 HD
ENDBRANCH  25  28
ENDBRANCH  23  24
ENDBRANCH   4  23
TORSDOF 10
ENDMDL
MODEL 4
REMARK VINA RESULT:    -6.712      5.552      7.992
REMARK INTER + INTRA:         -11.383
REMARK INTER:                  -9.662
REMARK INTRA:                  -1.721
REMARK UNBOUND:                -0.942
REMARK  Name = 
REMARK  10 active torsions:
REMARK  status: ('A' for Active; 'I' for Inactive)
REMARK    1  A    between atoms: N_1  and  C_2
REMARK    2  A    between atoms: C_2  and  C_3
REMARK    3  A    between atoms: C_3  and  C_4
REMARK    4  A    between atoms: C_4  and  N_5
REMARK    5  A    between atoms: C_8  and  C_9
REMARK    6  A    between atoms: N_11  and  C_12
REMARK    7  A    between atoms: C_12  and  C_13
REMARK    8  A    between atoms: C_16  and  C_17
REMARK    9  A    between atoms: C_17  and  N_18
REMARK   10  A    between atoms: C_19  and  C_21
REMARK                            x       y       z     vdW  Elec       q    Type
REMARK                         _______ _______ _______ _____ _____    ______ ____
ROOT
ATOM      1  C   UNL     1      48.643   6.754  13.730  0.00  0.00    +0.000 A 
ATOM      2  C   UNL     1      48.584   6.896  12.337  0.00  0.00    +0.000 A 
ATOM      3  C   UNL     1      49.552   7.640  11.657  0.00  0.00    +0.000 A 
ATOM      4  C   UNL     1      50.608   8.241  12.354  0.00  0.00    +0.000 A 
ATOM      5  C   UNL     1      50.661   8.106  13.748  0.00  0.00    +0.000 A 
ATOM      6  C   UNL     1      49.694   7.360  14.427  0.00  0.00    +0.000 A 
ENDROOT
BRANCH   1   7
ATOM      7  C   UNL     1      47.612   5.937  14.461  0.00  0.00    +0.000 C 
BRANCH   7  10
ATOM      8  C   UNL     1      46.456   4.100  13.333  0.00  0.00    +0.000 C 
ATOM      9  O   UNL     1      47.146   3.272  13.922  0.00  0.00    +0.000 OA
ATOM     10  N   UNL     1      46.594   5.449  13.560  0.00  0.00    +0.000 N 
ATOM     11  H   UNL     1      46.059   6.122  13.028  0.00  0.00    +0.000 HD
BRANCH   8  15
ATOM     12  N   UNL     1      43.912   5.060  10.935  0.00  0.00    +0.000 NA
ATOM     13  C   UNL     1      43.071   4.171  11.755  0.00  0.00    +0.000 C 
ATOM     14  C   UNL     1      43.905   3.873  12.989  0.00  0.00    +0.000 C 
ATOM     15  C   UNL     1      45.305   3.708  12.418  0.00  0.00    +0.000 C 
ATOM     16  C   UNL     1      45.290   4.548  11.133  0.00  0.00    +0.000 C 
BRANCH  12  17
ATOM     17  C   UNL     1      43.763   6.462  11.381  0.00  0.00    +0.000 C 
BRANCH  17  18
ATOM     18  C   UNL     1      45.072   7.264  11.329  0.00  0.00    +0.000 C 
BRANCH  18  19
ATOM     19  C   UNL     1      44.939   8.644  11.975  0.00  0.00    +0.000 C 
BRANCH  19  20
ATOM     20  N   UNL     1      45.515   8.679  13.317  0.00  0.00    +0.000 NA
ATOM     21  H   UNL     1      44.832   8.338  13.991  0.00  0.00    +0.000 HD
ATOM     22  H   UNL     1      45.717   9.646  13.576  0.00  0.00    +0.000 HD
ENDBRANCH  19  20
ENDBRANCH  18  19
ENDBRANCH  17  18
ENDBRANCH  12  17
ENDBRANCH   8  15
ENDBRANCH   7  10
ENDBRANCH   1   7
BRANCH   4  23
ATOM     23  C   UNL     1      51.651   9.050  11.627  0.00  0.00    +0.000 C 
BRANCH  23  24
ATOM     24  N   UNL     1      51.930   8.501  10.324  0.00  0.00    +0.000 N 
ATOM     25  C   UNL     1      53.029   8.906   9.609  0.00  0.00    +0.000 C 
ATOM     26  O   UNL     1      53.843   9.702  10.070  0.00  0.00    +0.000 OA
ATOM     27  H   UNL     1      51.171   8.022   9.851  0.00  0.00    +0.000 HD
BRANCH  25  28
ATOM     28  C   UNL     1      53.217   8.300   8.285  0.00  0.00    +0.000 A 
ATOM     29  C   UNL     1      53.171   9.102   7.153  0.00  0.00    +0.000 A 
ATOM     30  S   UNL     1      53.448   8.254   5.700  0.00  0.00    +0.000 S 
ATOM     31  C   UNL     1      53.591   6.775   6.527  0.00  0.00    +0.000 A 
ATOM     32  N   UNL     1      53.812   5.615   5.852  0.00  0.00    +0.000 NA
ATOM     33  C   UNL     1      53.867   4.564   6.599  0.00  0.00    +0.000 A 
ATOM     34  N   UNL     1      53.728   4.569   7.963  0.00  0.00    +0.000 N 
ATOM     35  C   UNL     1      53.534   5.719   8.691  0.00  0.00    +0.000 A 
ATOM     36  O   UNL     1      53.456   5.693   9.916  0.00  0.00    +0.000 OA
ATOM     37  C   UNL     1      53.449   6.929   7.896  0.00  0.00    +0.000 A 
ATOM     38  H   UNL     1      53.792   3.712   8.492  0.00  0.00    +0.000 HD
ENDBRANCH  25  28
ENDBRANCH  23  24
ENDBRANCH   4  23
TORSDOF 10
ENDMDL
MODEL 5
REMARK VINA RESULT:    -6.592      3.180      4.350
REMARK INTER + INTRA:         -11.195
REMARK INTER:                  -8.915
REMARK INTRA:                  -2.280
REMARK UNBOUND:                -0.942
REMARK  Name = 
REMARK  10 active torsions:
REMARK  status: ('A' for Active; 'I' for Inactive)
REMARK    1  A    between atoms: N_1  and  C_2
REMARK    2  A    between atoms: C_2  and  C_3
REMARK    3  A    between atoms: C_3  and  C_4
REMARK    4  A    between atoms: C_4  and  N_5
REMARK    5  A    between atoms: C_8  and  C_9
REMARK    6  A    between atoms: N_11  and  C_12
REMARK    7  A    between atoms: C_12  and  C_13
REMARK    8  A    between atoms: C_16  and  C_17
REMARK    9  A    between atoms: C_17  and  N_18
REMARK   10  A    between atoms: C_19  and  C_21
REMARK                            x       y       z     vdW  Elec       q    Type
REMARK                         _______ _______ _______ _____ _____    ______ ____
ROOT
ATOM      1  C   UNL     1      46.561   8.243  12.604  0.00  0.00    +0.000 A 
ATOM      2  C   UNL     1      47.130   8.979  13.652  0.00  0.00    +0.000 A 
ATOM      3  C   UNL     1      48.518   9.025  13.815  0.00  0.00    +0.000 A 
ATOM      4  C   UNL     1      49.363   8.352  12.924  0.00  0.00    +0.000 A 
ATOM      5  C   UNL     1      48.792   7.609  11.882  0.00  0.00    +0.000 A 
ATOM      6  C   UNL     1      47.405   7.564  11.717  0.00  0.00    +0.000 A 
ENDROOT
BRANCH   1   7
ATOM      7  C   UNL     1      45.069   8.208  12.416  0.00  0.00    +0.000 C 
BRANCH   7  10
ATOM      8  C   UNL     1      43.465   6.515  11.676  0.00  0.00    +0.000 C 
ATOM      9  O   UNL     1      42.906   7.330  10.945  0.00  0.00    +0.000 OA
ATOM     10  N   UNL     1      44.570   6.853  12.421  0.00  0.00    +0.000 N 
ATOM     11  H   UNL     1      44.986   6.190  13.061  0.00  0.00    +0.000 HD
BRANCH   8  15
ATOM     12  N   UNL     1      44.261   3.105  12.612  0.00  0.00    +0.000 NA
ATOM     13  C   UNL     1      43.766   2.816  11.255  0.00  0.00    +0.000 C 
ATOM     14  C   UNL     1      43.629   4.175  10.592  0.00  0.00    +0.000 C 
ATOM     15  C   UNL     1      43.078   5.044  11.713  0.00  0.00    +0.000 C 
ATOM     16  C   UNL     1      43.571   4.360  12.996  0.00  0.00    +0.000 C 
BRANCH  12  17
ATOM     17  C   UNL     1      45.732   3.252  12.600  0.00  0.00    +0.000 C 
BRANCH  17  18
ATOM     18  C   UNL     1      46.249   4.316  13.579  0.00  0.00    +0.000 C 
BRANCH  18  19
ATOM     19  C   UNL     1      47.140   3.722  14.672  0.00  0.00    +0.000 C 
BRANCH  19  20
ATOM     20  N   UNL     1      46.866   4.307  15.982  0.00  0.00    +0.000 NA
ATOM     21  H   UNL     1      46.427   3.611  16.581  0.00  0.00    +0.000 HD
ATOM     22  H   UNL     1      46.192   5.068  15.882  0.00  0.00    +0.000 HD
ENDBRANCH  19  20
ENDBRANCH  18  19
ENDBRANCH  17  18
ENDBRANCH  12  17
ENDBRANCH   8  15
ENDBRANCH   7  10
ENDBRANCH   1   7
BRANCH   4  23
ATOM     23  C   UNL     1      50.859   8.393  13.099  0.00  0.00    +0.000 C 
BRANCH  23  24
ATOM     24  N   UNL     1      51.293   7.492  14.137  0.00  0.00    +0.000 N 
ATOM     25  C   UNL     1      51.819   7.971  15.311  0.00  0.00    +0.000 C 
ATOM     26  O   UNL     1      51.888   9.174  15.546  0.00  0.00    +0.000 OA
ATOM     27  H   UNL     1      51.443   6.523  13.877  0.00  0.00    +0.000 HD
BRANCH  25  28
ATOM     28  C   UNL     1      52.247   6.972  16.300  0.00  0.00    +0.000 A 
ATOM     29  C   UNL     1      53.559   6.978  16.754  0.00  0.00    +0.000 A 
ATOM     30  S   UNL     1      53.883   5.785  17.927  0.00  0.00    +0.000 S 
ATOM     31  C   UNL     1      52.295   5.184  17.834  0.00  0.00    +0.000 A 
ATOM     32  N   UNL     1      51.906   4.117  18.583  0.00  0.00    +0.000 NA
ATOM     33  C   UNL     1      50.685   3.747  18.390  0.00  0.00    +0.000 A 
ATOM     34  N   UNL     1      49.814   4.351  17.521  0.00  0.00    +0.000 N 
ATOM     35  C   UNL     1      50.152   5.449  16.767  0.00  0.00    +0.000 A 
ATOM     36  O   UNL     1      49.334   5.992  16.029  0.00  0.00    +0.000 OA
ATOM     37  C   UNL     1      51.520   5.898  16.934  0.00  0.00    +0.000 A 
ATOM     38  H   UNL     1      48.866   4.018  17.425  0.00  0.00    +0.000 HD
ENDBRANCH  25  28
ENDBRANCH  23  24
ENDBRANCH   4  23
TORSDOF 10
ENDMDL
MODEL 6
REMARK VINA RESULT:    -6.201      5.914      9.235
REMARK INTER + INTRA:         -10.587
REMARK INTER:                  -9.339
REMARK INTRA:                  -1.248
REMARK UNBOUND:                -0.942
REMARK  Name = 
REMARK  10 active torsions:
REMARK  status: ('A' for Active; 'I' for Inactive)
REMARK    1  A    between atoms: N_1  and  C_2
REMARK    2  A    between atoms: C_2  and  C_3
REMARK    3  A    between atoms: C_3  and  C_4
REMARK    4  A    between atoms: C_4  and  N_5
REMARK    5  A    between atoms: C_8  and  C_9
REMARK    6  A    between atoms: N_11  and  C_12
REMARK    7  A    between atoms: C_12  and  C_13
REMARK    8  A    between atoms: C_16  and  C_17
REMARK    9  A    between atoms: C_17  and  N_18
REMARK   10  A    between atoms: C_19  and  C_21
REMARK                            x       y       z     vdW  Elec       q    Type
REMARK                         _______ _______ _______ _____ _____    ______ ____
ROOT
ATOM      1  C   UNL     1      50.188   9.113  11.385  0.00  0.00    +0.000 A 
ATOM      2  C   UNL     1      49.226  10.107  11.610  0.00  0.00    +0.000 A 
ATOM      3  C   UNL     1      47.973   9.775  12.133  0.00  0.00    +0.000 A 
ATOM      4  C   UNL     1      47.665   8.449  12.459  0.00  0.00    +0.000 A 
ATOM      5  C   UNL     1      48.625   7.455  12.225  0.00  0.00    +0.000 A 
ATOM      6  C   UNL     1      49.878   7.786  11.704  0.00  0.00    +0.000 A 
ENDROOT
BRANCH   1   7
ATOM      7  C   UNL     1      51.544   9.471  10.840  0.00  0.00    +0.000 C 
BRANCH   7  10
ATOM      8  C   UNL     1      53.521   8.039  11.004  0.00  0.00    +0.000 C 
ATOM      9  O   UNL     1      54.006   8.767  11.867  0.00  0.00    +0.000 OA
ATOM     10  N   UNL     1      52.285   8.291  10.458  0.00  0.00    +0.000 N 
ATOM     11  H   UNL     1      51.922   7.717   9.709  0.00  0.00    +0.000 HD
BRANCH   8  15
ATOM     12  N   UNL     1      55.464   6.175   8.577  0.00  0.00    +0.000 NA
ATOM     13  C   UNL     1      54.434   5.150   8.820  0.00  0.00    +0.000 C 
ATOM     14  C   UNL     1      53.360   5.859   9.626  0.00  0.00    +0.000 C 
ATOM     15  C   UNL     1      54.170   6.732  10.573  0.00  0.00    +0.000 C 
ATOM     16  C   UNL     1      55.490   6.974   9.827  0.00  0.00    +0.000 C 
BRANCH  12  17
ATOM     17  C   UNL     1      55.107   6.990   7.396  0.00  0.00    +0.000 C 
BRANCH  17  18
ATOM     18  C   UNL     1      53.811   6.537   6.708  0.00  0.00    +0.000 C 
BRANCH  18  19
ATOM     19  C   UNL     1      52.766   7.652   6.637  0.00  0.00    +0.000 C 
BRANCH  19  20
ATOM     20  N   UNL     1      53.141   8.809   7.446  0.00  0.00    +0.000 NA
ATOM     21  H   UNL     1      52.728   9.651   7.048  0.00  0.00    +0.000 HD
ATOM     22  H   UNL     1      54.153   8.939   7.407  0.00  0.00    +0.000 HD
ENDBRANCH  19  20
ENDBRANCH  18  19
ENDBRANCH  17  18
ENDBRANCH  12  17
ENDBRANCH   8  15
ENDBRANCH   7  10
ENDBRANCH   1   7
BRANCH   4  23
ATOM     23  C   UNL     1      46.314   8.085  13.017  0.00  0.00    +0.000 C 
BRANCH  23  24
ATOM     24  N   UNL     1      45.916   6.759  12.614  0.00  0.00    +0.000 N 
ATOM     25  C   UNL     1      44.857   6.570  11.762  0.00  0.00    +0.000 C 
ATOM     26  O   UNL     1      44.247   7.514  11.269  0.00  0.00    +0.000 OA
ATOM     27  H   UNL     1      46.259   5.983  13.171  0.00  0.00    +0.000 HD
BRANCH  25  28
ATOM     28  C   UNL     1      44.520   5.181  11.424  0.00  0.00    +0.000 A 
ATOM     29  C   UNL     1      43.770   4.423  12.312  0.00  0.00    +0.000 A 
ATOM     30  S   UNL     1      43.431   2.848  11.754  0.00  0.00    +0.000 S 
ATOM     31  C   UNL     1      44.318   3.106  10.325  0.00  0.00    +0.000 A 
ATOM     32  N   UNL     1      44.451   2.119   9.398  0.00  0.00    +0.000 NA
ATOM     33  C   UNL     1      45.176   2.439   8.379  0.00  0.00    +0.000 A 
ATOM     34  N   UNL     1      45.773   3.660   8.199  0.00  0.00    +0.000 N 
ATOM     35  C   UNL     1      45.642   4.696   9.092  0.00  0.00    +0.000 A 
ATOM     36  O   UNL     1      46.155   5.791   8.879  0.00  0.00    +0.000 OA
ATOM     37  C   UNL     1      44.849   4.383  10.265  0.00  0.00    +0.000 A 
ATOM     38  H   UNL     1      46.320   3.850   7.372  0.00  0.00    +0.000 HD
ENDBRANCH  25  28
ENDBRANCH  23  24
ENDBRANCH   4  23
TORSDOF 10
ENDMDL
MODEL 7
REMARK VINA RESULT:    -5.752      5.878      9.272
REMARK INTER + INTRA:          -9.888
REMARK INTER:                  -8.330
REMARK INTRA:                  -1.558
REMARK UNBOUND:                -0.942
REMARK  Name = 
REMARK  10 active torsions:
REMARK  status: ('A' for Active; 'I' for Inactive)
REMARK    1  A    between atoms: N_1  and  C_2
REMARK    2  A    between atoms: C_2  and  C_3
REMARK    3  A    between atoms: C_3  and  C_4
REMARK    4  A    between atoms: C_4  and  N_5
REMARK    5  A    between atoms: C_8  and  C_9
REMARK    6  A    between atoms: N_11  and  C_12
REMARK    7  A    between atoms: C_12  and  C_13
REMARK    8  A    between atoms: C_16  and  C_17
REMARK    9  A    between atoms: C_17  and  N_18
REMARK   10  A    between atoms: C_19  and  C_21
REMARK                            x       y       z     vdW  Elec       q    Type
REMARK                         _______ _______ _______ _____ _____    ______ ____
ROOT
ATOM      1  C   UNL     1      49.440   9.053  12.864  0.00  0.00    +0.000 A 
ATOM      2  C   UNL     1      49.184   7.954  12.034  0.00  0.00    +0.000 A 
ATOM      3  C   UNL     1      47.872   7.606  11.702  0.00  0.00    +0.000 A 
ATOM      4  C   UNL     1      46.792   8.361  12.178  0.00  0.00    +0.000 A 
ATOM      5  C   UNL     1      47.050   9.454  13.016  0.00  0.00    +0.000 A 
ATOM      6  C   UNL     1      48.361   9.804  13.346  0.00  0.00    +0.000 A 
ENDROOT
BRANCH   1   7
ATOM      7  C   UNL     1      50.853   9.440  13.207  0.00  0.00    +0.000 C 
BRANCH   7  10
ATOM      8  C   UNL     1      52.751   9.047  11.714  0.00  0.00    +0.000 C 
ATOM      9  O   UNL     1      53.123   8.096  12.398  0.00  0.00    +0.000 OA
ATOM     10  N   UNL     1      51.614   9.756  12.020  0.00  0.00    +0.000 N 
ATOM     11  H   UNL     1      51.350  10.570  11.482  0.00  0.00    +0.000 HD
BRANCH   8  15
ATOM     12  N   UNL     1      54.310   8.041   8.599  0.00  0.00    +0.000 NA
ATOM     13  C   UNL     1      55.289   9.075   8.974  0.00  0.00    +0.000 C 
ATOM     14  C   UNL     1      54.947   9.436  10.409  0.00  0.00    +0.000 C 
ATOM     15  C   UNL     1      53.426   9.429  10.405  0.00  0.00    +0.000 C 
ATOM     16  C   UNL     1      53.056   8.461   9.272  0.00  0.00    +0.000 C 
BRANCH  12  17
ATOM     17  C   UNL     1      54.772   6.711   9.050  0.00  0.00    +0.000 C 
BRANCH  17  18
ATOM     18  C   UNL     1      53.685   5.628   8.980  0.00  0.00    +0.000 C 
BRANCH  18  19
ATOM     19  C   UNL     1      53.502   5.073   7.567  0.00  0.00    +0.000 C 
BRANCH  19  20
ATOM     20  N   UNL     1      52.715   5.969   6.723  0.00  0.00    +0.000 NA
ATOM     21  H   UNL     1      53.314   6.376   6.006  0.00  0.00    +0.000 HD
ATOM     22  H   UNL     1      52.368   6.749   7.283  0.00  0.00    +0.000 HD
ENDBRANCH  19  20
ENDBRANCH  18  19
ENDBRANCH  17  18
ENDBRANCH  12  17
ENDBRANCH   8  15
ENDBRANCH   7  10
ENDBRANCH   1   7
BRANCH   4  23
ATOM     23  C   UNL     1      45.375   7.987  11.829  0.00  0.00    +0.000 C 
BRANCH  23  24
ATOM     24  N   UNL     1      45.266   6.590  11.491  0.00  0.00    +0.000 N 
ATOM     25  C   UNL     1      44.042   6.008  11.280  0.00  0.00    +0.000 C 
ATOM     26  O   UNL     1      43.002   6.660  11.314  0.00  0.00    +0.000 OA
ATOM     27  H   UNL     1      46.077   6.005  11.671  0.00  0.00    +0.000 HD
BRANCH  25  28
ATOM     28  C   UNL     1      44.036   4.576  10.957  0.00  0.00    +0.000 A 
ATOM     29  C   UNL     1      43.318   3.697  11.756  0.00  0.00    +0.000 A 
ATOM     30  S   UNL     1      43.380   2.079  11.223  0.00  0.00    +0.000 S 
ATOM     31  C   UNL     1      44.410   2.486   9.932  0.00  0.00    +0.000 A 
ATOM     32  N   UNL     1      44.873   1.533   9.080  0.00  0.00    +0.000 NA
ATOM     33  C   UNL     1      45.670   1.976   8.166  0.00  0.00    +0.000 A 
ATOM     34  N   UNL     1      46.041   3.288   8.023  0.00  0.00    +0.000 N 
ATOM     35  C   UNL     1      45.576   4.290   8.841  0.00  0.00    +0.000 A 
ATOM     36  O   UNL     1      45.895   5.461   8.659  0.00  0.00    +0.000 OA
ATOM     37  C   UNL     1      44.687   3.843   9.896  0.00  0.00    +0.000 A 
ATOM     38  H   UNL     1      46.661   3.571   7.279  0.00  0.00    +0.000 HD
ENDBRANCH  25  28
ENDBRANCH  23  24
ENDBRANCH   4  23
TORSDOF 10
ENDMDL
MODEL 8
REMARK VINA RESULT:    -5.673      3.693     10.056
REMARK INTER + INTRA:          -9.767
REMARK INTER:                  -8.290
REMARK INTRA:                  -1.477
REMARK UNBOUND:                -0.942
REMARK  Name = 
REMARK  10 active torsions:
REMARK  status: ('A' for Active; 'I' for Inactive)
REMARK    1  A    between atoms: N_1  and  C_2
REMARK    2  A    between atoms: C_2  and  C_3
REMARK    3  A    between atoms: C_3  and  C_4
REMARK    4  A    between atoms: C_4  and  N_5
REMARK    5  A    between atoms: C_8  and  C_9
REMARK    6  A    between atoms: N_11  and  C_12
REMARK    7  A    between atoms: C_12  and  C_13
REMARK    8  A    between atoms: C_16  and  C_17
REMARK    9  A    between atoms: C_17  and  N_18
REMARK   10  A    between atoms: C_19  and  C_21
REMARK                            x       y       z     vdW  Elec       q    Type
REMARK                         _______ _______ _______ _____ _____    ______ ____
ROOT
ATOM      1  C   UNL     1      48.418   8.927  12.700  0.00  0.00    +0.000 A 
ATOM      2  C   UNL     1      48.517   7.580  12.326  0.00  0.00    +0.000 A 
ATOM      3  C   UNL     1      47.386   6.876  11.902  0.00  0.00    +0.000 A 
ATOM      4  C   UNL     1      46.139   7.509  11.826  0.00  0.00    +0.000 A 
ATOM      5  C   UNL     1      46.040   8.854  12.210  0.00  0.00    +0.000 A 
ATOM      6  C   UNL     1      47.171   9.558  12.631  0.00  0.00    +0.000 A 
ENDROOT
BRANCH   1   7
ATOM      7  C   UNL     1      49.638   9.691  13.137  0.00  0.00    +0.000 C 
BRANCH   7  10
ATOM      8  C   UNL     1      50.092   8.983  15.435  0.00  0.00    +0.000 C 
ATOM      9  O   UNL     1      49.115   9.606  15.845  0.00  0.00    +0.000 OA
ATOM     10  N   UNL     1      50.412   8.940  14.099  0.00  0.00    +0.000 N 
ATOM     11  H   UNL     1      51.249   8.471  13.781  0.00  0.00    +0.000 HD
BRANCH   8  15
ATOM     12  N   UNL     1      50.323   6.197  17.743  0.00  0.00    +0.000 NA
ATOM     13  C   UNL     1      51.169   7.138  18.498  0.00  0.00    +0.000 C 
ATOM     14  C   UNL     1      50.974   8.477  17.810  0.00  0.00    +0.000 C 
ATOM     15  C   UNL     1      50.939   8.098  16.337  0.00  0.00    +0.000 C 
ATOM     16  C   UNL     1      50.443   6.645  16.333  0.00  0.00    +0.000 C 
BRANCH  12  17
ATOM     17  C   UNL     1      48.929   6.254  18.234  0.00  0.00    +0.000 C 
BRANCH  17  18
ATOM     18  C   UNL     1      48.463   4.953  18.904  0.00  0.00    +0.000 C 
BRANCH  18  19
ATOM     19  C   UNL     1      48.808   3.713  18.077  0.00  0.00    +0.000 C 
BRANCH  19  20
ATOM     20  N   UNL     1      50.187   3.279  18.288  0.00  0.00    +0.000 NA
ATOM     21  H   UNL     1      50.823   4.038  18.052  0.00  0.00    +0.000 HD
ATOM     22  H   UNL     1      50.405   2.512  17.651  0.00  0.00    +0.000 HD
ENDBRANCH  19  20
ENDBRANCH  18  19
ENDBRANCH  17  18
ENDBRANCH  12  17
ENDBRANCH   8  15
ENDBRANCH   7  10
ENDBRANCH   1   7
BRANCH   4  23
ATOM     23  C   UNL     1      44.916   6.754  11.377  0.00  0.00    +0.000 C 
BRANCH  23  24
ATOM     24  N   UNL     1      45.270   5.559  10.652  0.00  0.00    +0.000 N 
ATOM     25  C   UNL     1      44.304   4.709  10.178  0.00  0.00    +0.000 C 
ATOM     26  O   UNL     1      43.107   4.958  10.299  0.00  0.00    +0.000 OA
ATOM     27  H   UNL     1      46.229   5.236  10.734  0.00  0.00    +0.000 HD
BRANCH  25  28
ATOM     28  C   UNL     1      44.767   3.511   9.466  0.00  0.00    +0.000 A 
ATOM     29  C   UNL     1      44.183   2.283   9.742  0.00  0.00    +0.000 A 
ATOM     30  S   UNL     1      44.803   1.002   8.804  0.00  0.00    +0.000 S 
ATOM     31  C   UNL     1      45.911   2.034   8.029  0.00  0.00    +0.000 A 
ATOM     32  N   UNL     1      46.784   1.554   7.103  0.00  0.00    +0.000 NA
ATOM     33  C   UNL     1      47.589   2.439   6.619  0.00  0.00    +0.000 A 
ATOM     34  N   UNL     1      47.595   3.764   6.971  0.00  0.00    +0.000 N 
ATOM     35  C   UNL     1      46.713   4.300   7.878  0.00  0.00    +0.000 A 
ATOM     36  O   UNL     1      46.718   5.500   8.140  0.00  0.00    +0.000 OA
ATOM     37  C   UNL     1      45.795   3.344   8.466  0.00  0.00    +0.000 A 
ATOM     38  H   UNL     1      48.245   4.408   6.546  0.00  0.00    +0.000 HD
ENDBRANCH  25  28
ENDBRANCH  23  24
ENDBRANCH   4  23
TORSDOF 10
ENDMDL
MODEL 9
REMARK VINA RESULT:    -5.624      2.712      3.665
REMARK INTER + INTRA:          -9.689
REMARK INTER:                  -8.408
REMARK INTRA:                  -1.281
REMARK UNBOUND:                -0.942
REMARK  Name = 
REMARK  10 active torsions:
REMARK  status: ('A' for Active; 'I' for Inactive)
REMARK    1  A    between atoms: N_1  and  C_2
REMARK    2  A    between atoms: C_2  and  C_3
REMARK    3  A    between atoms: C_3  and  C_4
REMARK    4  A    between atoms: C_4  and  N_5
REMARK    5  A    between atoms: C_8  and  C_9
REMARK    6  A    between atoms: N_11  and  C_12
REMARK    7  A    between atoms: C_12  and  C_13
REMARK    8  A    between atoms: C_16  and  C_17
REMARK    9  A    between atoms: C_17  and  N_18
REMARK   10  A    between atoms: C_19  and  C_21
REMARK                            x       y       z     vdW  Elec       q    Type
REMARK                         _______ _______ _______ _____ _____    ______ ____
ROOT
ATOM      1  C   UNL     1      47.334   8.585  12.788  0.00  0.00    +0.000 A 
ATOM      2  C   UNL     1      47.665   8.746  14.139  0.00  0.00    +0.000 A 
ATOM      3  C   UNL     1      48.976   9.053  14.518  0.00  0.00    +0.000 A 
ATOM      4  C   UNL     1      49.975   9.222  13.551  0.00  0.00    +0.000 A 
ATOM      5  C   UNL     1      49.644   9.051  12.200  0.00  0.00    +0.000 A 
ATOM      6  C   UNL     1      48.334   8.747  11.822  0.00  0.00    +0.000 A 
ENDROOT
BRANCH   1   7
ATOM      7  C   UNL     1      45.920   8.274  12.378  0.00  0.00    +0.000 C 
BRANCH   7  10
ATOM      8  C   UNL     1      44.453   6.343  12.057  0.00  0.00    +0.000 C 
ATOM      9  O   UNL     1      43.674   7.016  11.386  0.00  0.00    +0.000 OA
ATOM     10  N   UNL     1      45.614   6.875  12.565  0.00  0.00    +0.000 N 
ATOM     11  H   UNL     1      46.219   6.326  13.161  0.00  0.00    +0.000 HD
BRANCH   8  15
ATOM     12  N   UNL     1      44.511   2.982  10.698  0.00  0.00    +0.000 NA
ATOM     13  C   UNL     1      43.256   2.855  11.459  0.00  0.00    +0.000 C 
ATOM     14  C   UNL     1      42.918   4.271  11.894  0.00  0.00    +0.000 C 
ATOM     15  C   UNL     1      44.278   4.845  12.261  0.00  0.00    +0.000 C 
ATOM     16  C   UNL     1      45.270   4.037  11.413  0.00  0.00    +0.000 C 
BRANCH  12  17
ATOM     17  C   UNL     1      44.223   3.350   9.295  0.00  0.00    +0.000 C 
BRANCH  17  18
ATOM     18  C   UNL     1      45.312   4.224   8.655  0.00  0.00    +0.000 C 
BRANCH  18  19
ATOM     19  C   UNL     1      46.033   3.514   7.508  0.00  0.00    +0.000 C 
BRANCH  19  20
ATOM     20  N   UNL     1      47.174   4.284   7.017  0.00  0.00    +0.000 NA
ATOM     21  H   UNL     1      47.882   4.347   7.747  0.00  0.00    +0.000 HD
ATOM     22  H   UNL     1      46.880   5.241   6.818  0.00  0.00    +0.000 HD
ENDBRANCH  19  20
ENDBRANCH  18  19
ENDBRANCH  17  18
ENDBRANCH  12  17
ENDBRANCH   8  15
ENDBRANCH   7  10
ENDBRANCH   1   7
BRANCH   4  23
ATOM     23  C   UNL     1      51.391   9.546  13.953  0.00  0.00    +0.000 C 
BRANCH  23  24
ATOM     24  N   UNL     1      52.026   8.424  14.597  0.00  0.00    +0.000 N 
ATOM     25  C   UNL     1      52.920   8.612  15.620  0.00  0.00    +0.000 C 
ATOM     26  O   UNL     1      53.170   9.729  16.063  0.00  0.00    +0.000 OA
ATOM     27  H   UNL     1      51.998   7.534  14.110  0.00  0.00    +0.000 HD
BRANCH  25  28
ATOM     28  C   UNL     1      53.525   7.406  16.201  0.00  0.00    +0.000 A 
ATOM     29  C   UNL     1      54.908   7.286  16.242  0.00  0.00    +0.000 A 
ATOM     30  S   UNL     1      55.450   5.849  16.982  0.00  0.00    +0.000 S 
ATOM     31  C   UNL     1      53.855   5.311  17.229  0.00  0.00    +0.000 A 
ATOM     32  N   UNL     1      53.606   4.107  17.809  0.00  0.00    +0.000 NA
ATOM     33  C   UNL     1      52.354   3.809  17.906  0.00  0.00    +0.000 A 
ATOM     34  N   UNL     1      51.327   4.611  17.481  0.00  0.00    +0.000 N 
ATOM     35  C   UNL     1      51.528   5.848  16.918  0.00  0.00    +0.000 A 
ATOM     36  O   UNL     1      50.584   6.560  16.588  0.00  0.00    +0.000 OA
ATOM     37  C   UNL     1      52.920   6.225  16.771  0.00  0.00    +0.000 A 
ATOM     38  H   UNL     1      50.366   4.324  17.597  0.00  0.00    +0.000 HD
ENDBRANCH  25  28
ENDBRANCH  23  24
ENDBRANCH   4  23
TORSDOF 10
ENDMDL
