MODEL 1
REMARK VINA RESULT:    -8.637      0.000      0.000
REMARK INTER + INTRA:         -12.437
REMARK INTER:                 -11.667
REMARK INTRA:                  -0.770
REMARK UNBOUND:                -0.770
REMARK  Name = 
REMARK  6 active torsions:
REMARK  status: ('A' for Active; 'I' for Inactive)
REMARK    1  A    between atoms: C_2  and  C_4
REMARK    2  A    between atoms: N_8  and  C_9
REMARK    3  A    between atoms: C_9  and  C_10
REMARK    4  A    between atoms: C_10  and  C_11
REMARK    5  A    between atoms: C_15  and  C_16
REMARK    6  A    between atoms: C_16  and  C_17
REMARK                            x       y       z     vdW  Elec       q    Type
REMARK                         _______ _______ _______ _____ _____    ______ ____
ROOT
ATOM      1  C   UNL     1      46.464   2.509   7.721  0.00  0.00    +0.000 A 
ATOM      2  C   UNL     1      45.642   1.861   8.636  0.00  0.00    +0.000 A 
ATOM      3  C   UNL     1      44.722   2.611   9.366  0.00  0.00    +0.000 A 
ATOM      4  C   UNL     1      44.654   3.991   9.193  0.00  0.00    +0.000 A 
ATOM      5  N   UNL     1      43.696   4.781   9.813  0.00  0.00    +0.000 N 
ATOM      6  N   UNL     1      45.479   4.634   8.345  0.00  0.00    +0.000 NA
ATOM      7  C   UNL     1      46.366   3.889   7.633  0.00  0.00    +0.000 A 
ATOM      8  H   UNL     1      43.961   5.751   9.662  0.00  0.00    +0.000 HD
ENDROOT
BRANCH   1  10
ATOM      9  N   UNL     1      48.537   2.443   6.469  0.00  0.00    +0.000 N 
ATOM     10  C   UNL     1      47.405   1.781   6.853  0.00  0.00    +0.000 C 
ATOM     11  O   UNL     1      47.205   0.616   6.527  0.00  0.00    +0.000 OA
ATOM     12  H   UNL     1      49.234   1.900   5.974  0.00  0.00    +0.000 HD
ATOM     13  H   UNL     1      48.850   3.292   6.922  0.00  0.00    +0.000 HD
ENDBRANCH   1  10
BRANCH   5  14
ATOM     14  C   UNL     1      43.269   4.418  11.154  0.00  0.00    +0.000 C 
BRANCH  14  15
ATOM     15  C   UNL     1      43.461   5.579  12.135  0.00  0.00    +0.000 C 
BRANCH  15  16
ATOM     16  C   UNL     1      44.910   5.652  12.558  0.00  0.00    +0.000 A 
ATOM     17  C   UNL     1      45.715   6.722  12.146  0.00  0.00    +0.000 A 
ATOM     18  C   UNL     1      47.026   6.827  12.604  0.00  0.00    +0.000 A 
ATOM     19  C   UNL     1      47.542   5.875  13.485  0.00  0.00    +0.000 A 
ATOM     20  C   UNL     1      46.754   4.800  13.915  0.00  0.00    +0.000 A 
ATOM     21  C   UNL     1      45.437   4.696  13.440  0.00  0.00    +0.000 A 
BRANCH  20  22
ATOM     22  C   UNL     1      47.303   3.772  14.878  0.00  0.00    +0.000 C 
BRANCH  22  23
ATOM     23  C   UNL     1      47.271   4.292  16.310  0.00  0.00    +0.000 C 
ATOM     24  C   UNL     1      48.595   4.653  16.997  0.00  0.00    +0.000 C 
ATOM     25  O   UNL     1      48.368   3.690  18.051  0.00  0.00    +0.000 OA
ATOM     26  C   UNL     1      47.177   3.207  17.393  0.00  0.00    +0.000 C 
ENDBRANCH  22  23
ENDBRANCH  20  22
ENDBRANCH  15  16
ENDBRANCH  14  15
ENDBRANCH   5  14
TORSDOF 6
ENDMDL
MODEL 2
REMARK VINA RESULT:    -8.329      2.283      3.554
REMARK INTER + INTRA:         -12.020
REMARK INTER:                 -11.194
REMARK INTRA:                  -0.826
REMARK UNBOUND:                -0.770
REMARK  Name = 
REMARK  6 active torsions:
REMARK  status: ('A' for Active; 'I' for Inactive)
REMARK    1  A    between atoms: C_2  and  C_4
REMARK    2  A    between atoms: N_8  and  C_9
REMARK    3  A    between atoms: C_9  and  C_10
REMARK    4  A    between atoms: C_10  and  C_11
REMARK    5  A    between atoms: C_15  and  C_16
REMARK    6  A    between atoms: C_16  and  C_17
REMARK                            x       y       z     vdW  Elec       q    Type
REMARK                         _______ _______ _______ _____ _____    ______ ____
ROOT
ATOM      1  C   UNL     1      46.426   2.321   7.746  0.00  0.00    +0.000 A 
ATOM      2  C   UNL     1      45.597   1.776   8.720  0.00  0.00    +0.000 A 
ATOM      3  C   UNL     1      44.697   2.607   9.383  0.00  0.00    +0.000 A 
ATOM      4  C   UNL     1      44.656   3.968   9.085  0.00  0.00    +0.000 A 
ATOM      5  N   UNL     1      43.718   4.830   9.635  0.00  0.00    +0.000 N 
ATOM      6  N   UNL     1      45.489   4.513   8.178  0.00  0.00    +0.000 NA
ATOM      7  C   UNL     1      46.356   3.688   7.533  0.00  0.00    +0.000 A 
ATOM      8  H   UNL     1      44.003   5.777   9.396  0.00  0.00    +0.000 HD
ENDROOT
BRANCH   1  10
ATOM      9  N   UNL     1      48.496   2.093   6.507  0.00  0.00    +0.000 N 
ATOM     10  C   UNL     1      47.346   1.496   6.944  0.00  0.00    +0.000 C 
ATOM     11  O   UNL     1      47.115   0.315   6.715  0.00  0.00    +0.000 OA
ATOM     12  H   UNL     1      49.177   1.492   6.062  0.00  0.00    +0.000 HD
ATOM     13  H   UNL     1      48.832   2.968   6.889  0.00  0.00    +0.000 HD
ENDBRANCH   1  10
BRANCH   5  14
ATOM     14  C   UNL     1      43.293   4.600  11.006  0.00  0.00    +0.000 C 
BRANCH  14  15
ATOM     15  C   UNL     1      43.519   5.839  11.877  0.00  0.00    +0.000 C 
BRANCH  15  16
ATOM     16  C   UNL     1      44.929   5.827  12.420  0.00  0.00    +0.000 A 
ATOM     17  C   UNL     1      45.318   4.865  13.361  0.00  0.00    +0.000 A 
ATOM     18  C   UNL     1      46.639   4.807  13.797  0.00  0.00    +0.000 A 
ATOM     19  C   UNL     1      47.587   5.700  13.291  0.00  0.00    +0.000 A 
ATOM     20  C   UNL     1      47.222   6.666  12.345  0.00  0.00    +0.000 A 
ATOM     21  C   UNL     1      45.886   6.723  11.918  0.00  0.00    +0.000 A 
BRANCH  20  22
ATOM     22  C   UNL     1      48.247   7.626  11.784  0.00  0.00    +0.000 C 
BRANCH  22  23
ATOM     23  C   UNL     1      47.899   9.066  12.138  0.00  0.00    +0.000 C 
ATOM     24  C   UNL     1      48.634  10.205  11.416  0.00  0.00    +0.000 C 
ATOM     25  O   UNL     1      49.148  10.728  12.661  0.00  0.00    +0.000 OA
ATOM     26  C   UNL     1      48.594   9.613  13.393  0.00  0.00    +0.000 C 
ENDBRANCH  22  23
ENDBRANCH  20  22
ENDBRANCH  15  16
ENDBRANCH  14  15
ENDBRANCH   5  14
TORSDOF 6
ENDMDL
MODEL 3
REMARK VINA RESULT:    -7.517      2.939      8.152
REMARK INTER + INTRA:         -10.923
REMARK INTER:                 -10.269
REMARK INTRA:                  -0.654
REMARK UNBOUND:                -0.770
REMARK  Name = 
REMARK  6 active torsions:
REMARK  status: ('A' for Active; 'I' for Inactive)
REMARK    1  A    between atoms: C_2  and  C_4
REMARK    2  A    between atoms: N_8  and  C_9
REMARK    3  A    between atoms: C_9  and  C_10
REMARK    4  A    between atoms: C_10  and  C_11
REMARK    5  A    between atoms: C_15  and  C_16
REMARK    6  A    between atoms: C_16  and  C_17
REMARK                            x       y       z     vdW  Elec       q    Type
REMARK                         _______ _______ _______ _____ _____    ______ ____
ROOT
ATOM      1  C   UNL     1      48.207   4.623  16.668  0.00  0.00    +0.000 A 
ATOM      2  C   UNL     1      47.120   4.058  16.011  0.00  0.00    +0.000 A 
ATOM      3  C   UNL     1      46.724   4.584  14.784  0.00  0.00    +0.000 A 
ATOM      4  C   UNL     1      47.397   5.678  14.245  0.00  0.00    +0.000 A 
ATOM      5  N   UNL     1      47.119   6.186  12.984  0.00  0.00    +0.000 N 
ATOM      6  N   UNL     1      48.421   6.263  14.897  0.00  0.00    +0.000 NA
ATOM      7  C   UNL     1      48.802   5.733  16.089  0.00  0.00    +0.000 A 
ATOM      8  H   UNL     1      47.618   7.069  12.897  0.00  0.00    +0.000 HD
ENDROOT
BRANCH   1  10
ATOM      9  N   UNL     1      48.032   3.063  18.514  0.00  0.00    +0.000 N 
ATOM     10  C   UNL     1      48.739   4.076  17.928  0.00  0.00    +0.000 C 
ATOM     11  O   UNL     1      49.793   4.477  18.407  0.00  0.00    +0.000 OA
ATOM     12  H   UNL     1      48.463   2.612  19.310  0.00  0.00    +0.000 HD
ATOM     13  H   UNL     1      47.316   2.545  18.021  0.00  0.00    +0.000 HD
ENDBRANCH   1  10
BRANCH   5  14
ATOM     14  C   UNL     1      45.740   6.165  12.524  0.00  0.00    +0.000 C 
BRANCH  14  15
ATOM     15  C   UNL     1      45.657   6.301  11.001  0.00  0.00    +0.000 C 
BRANCH  15  16
ATOM     16  C   UNL     1      45.314   4.961  10.390  0.00  0.00    +0.000 A 
ATOM     17  C   UNL     1      44.576   4.019  11.119  0.00  0.00    +0.000 A 
ATOM     18  C   UNL     1      44.192   2.820  10.524  0.00  0.00    +0.000 A 
ATOM     19  C   UNL     1      44.529   2.554   9.195  0.00  0.00    +0.000 A 
ATOM     20  C   UNL     1      45.261   3.484   8.446  0.00  0.00    +0.000 A 
ATOM     21  C   UNL     1      45.652   4.686   9.057  0.00  0.00    +0.000 A 
BRANCH  20  22
ATOM     22  C   UNL     1      45.619   3.207   7.003  0.00  0.00    +0.000 C 
BRANCH  22  23
ATOM     23  C   UNL     1      47.117   2.991   6.842  0.00  0.00    +0.000 C 
ATOM     24  C   UNL     1      47.681   2.724   5.439  0.00  0.00    +0.000 C 
ATOM     25  O   UNL     1      48.218   1.444   5.843  0.00  0.00    +0.000 OA
ATOM     26  C   UNL     1      47.605   1.566   7.145  0.00  0.00    +0.000 C 
ENDBRANCH  22  23
ENDBRANCH  20  22
ENDBRANCH  15  16
ENDBRANCH  14  15
ENDBRANCH   5  14
TORSDOF 6
ENDMDL
MODEL 4
REMARK VINA RESULT:    -7.368      2.697      3.174
REMARK INTER + INTRA:         -10.722
REMARK INTER:                 -10.245
REMARK INTRA:                  -0.477
REMARK UNBOUND:                -0.770
REMARK  Name = 
REMARK  6 active torsions:
REMARK  status: ('A' for Active; 'I' for Inactive)
REMARK    1  A    between atoms: C_2  and  C_4
REMARK    2  A    between atoms: N_8  and  C_9
REMARK    3  A    between atoms: C_9  and  C_10
REMARK    4  A    between atoms: C_10  and  C_11
REMARK    5  A    between atoms: C_15  and  C_16
REMARK    6  A    between atoms: C_16  and  C_17
REMARK                            x       y       z     vdW  Elec       q    Type
REMARK                         _______ _______ _______ _____ _____    ______ ____
ROOT
ATOM      1  C   UNL     1      46.531   2.554   7.648  0.00  0.00    +0.000 A 
ATOM      2  C   UNL     1      45.704   1.921   8.570  0.00  0.00    +0.000 A 
ATOM      3  C   UNL     1      44.781   2.682   9.283  0.00  0.00    +0.000 A 
ATOM      4  C   UNL     1      44.713   4.060   9.087  0.00  0.00    +0.000 A 
ATOM      5  N   UNL     1      43.752   4.859   9.689  0.00  0.00    +0.000 N 
ATOM      6  N   UNL     1      45.543   4.689   8.231  0.00  0.00    +0.000 NA
ATOM      7  C   UNL     1      46.433   3.932   7.536  0.00  0.00    +0.000 A 
ATOM      8  H   UNL     1      44.018   5.827   9.523  0.00  0.00    +0.000 HD
ENDROOT
BRANCH   1  10
ATOM      9  N   UNL     1      48.568   2.493   6.338  0.00  0.00    +0.000 N 
ATOM     10  C   UNL     1      47.475   1.811   6.797  0.00  0.00    +0.000 C 
ATOM     11  O   UNL     1      47.315   0.622   6.547  0.00  0.00    +0.000 OA
ATOM     12  H   UNL     1      49.271   1.949   5.856  0.00  0.00    +0.000 HD
ATOM     13  H   UNL     1      48.858   3.380   6.729  0.00  0.00    +0.000 HD
ENDBRANCH   1  10
BRANCH   5  14
ATOM     14  C   UNL     1      43.320   4.519  11.034  0.00  0.00    +0.000 C 
BRANCH  14  15
ATOM     15  C   UNL     1      42.751   5.740  11.764  0.00  0.00    +0.000 C 
BRANCH  15  16
ATOM     16  C   UNL     1      43.793   6.834  11.811  0.00  0.00    +0.000 A 
ATOM     17  C   UNL     1      43.577   8.046  11.143  0.00  0.00    +0.000 A 
ATOM     18  C   UNL     1      44.502   9.081  11.255  0.00  0.00    +0.000 A 
ATOM     19  C   UNL     1      45.644   8.921  12.043  0.00  0.00    +0.000 A 
ATOM     20  C   UNL     1      45.877   7.720  12.725  0.00  0.00    +0.000 A 
ATOM     21  C   UNL     1      44.944   6.679  12.597  0.00  0.00    +0.000 A 
BRANCH  20  22
ATOM     22  C   UNL     1      47.106   7.546  13.589  0.00  0.00    +0.000 C 
BRANCH  22  23
ATOM     23  C   UNL     1      48.265   6.974  12.784  0.00  0.00    +0.000 C 
ATOM     24  C   UNL     1      49.697   7.392  13.148  0.00  0.00    +0.000 C 
ATOM     25  O   UNL     1      49.927   7.937  11.830  0.00  0.00    +0.000 OA
ATOM     26  C   UNL     1      48.553   7.693  11.457  0.00  0.00    +0.000 C 
ENDBRANCH  22  23
ENDBRANCH  20  22
ENDBRANCH  15  16
ENDBRANCH  14  15
ENDBRANCH   5  14
TORSDOF 6
ENDMDL
MODEL 5
REMARK VINA RESULT:    -6.595      2.950      7.429
REMARK INTER + INTRA:          -9.679
REMARK INTER:                  -8.977
REMARK INTRA:                  -0.702
REMARK UNBOUND:                -0.770
REMARK  Name = 
REMARK  6 active torsions:
REMARK  status: ('A' for Active; 'I' for Inactive)
REMARK    1  A    between atoms: C_2  and  C_4
REMARK    2  A    between atoms: N_8  and  C_9
REMARK    3  A    between atoms: C_9  and  C_10
REMARK    4  A    between atoms: C_10  and  C_11
REMARK    5  A    between atoms: C_15  and  C_16
REMARK    6  A    between atoms: C_16  and  C_17
REMARK                            x       y       z     vdW  Elec       q    Type
REMARK                         _______ _______ _______ _____ _____    ______ ____
ROOT
ATOM      1  C   UNL     1      47.473   4.523  16.174  0.00  0.00    +0.000 A 
ATOM      2  C   UNL     1      46.994   4.038  14.963  0.00  0.00    +0.000 A 
ATOM      3  C   UNL     1      47.266   4.748  13.796  0.00  0.00    +0.000 A 
ATOM      4  C   UNL     1      47.987   5.938  13.856  0.00  0.00    +0.000 A 
ATOM      5  N   UNL     1      48.378   6.640  12.725  0.00  0.00    +0.000 N 
ATOM      6  N   UNL     1      48.414   6.441  15.031  0.00  0.00    +0.000 NA
ATOM      7  C   UNL     1      48.149   5.733  16.161  0.00  0.00    +0.000 A 
ATOM      8  H   UNL     1      48.734   7.540  13.036  0.00  0.00    +0.000 HD
ENDROOT
BRANCH   1  10
ATOM      9  N   UNL     1      47.803   4.373  18.570  0.00  0.00    +0.000 N 
ATOM     10  C   UNL     1      47.299   3.791  17.441  0.00  0.00    +0.000 C 
ATOM     11  O   UNL     1      46.689   2.729  17.489  0.00  0.00    +0.000 OA
ATOM     12  H   UNL     1      47.576   3.927  19.450  0.00  0.00    +0.000 HD
ATOM     13  H   UNL     1      48.075   5.347  18.603  0.00  0.00    +0.000 HD
ENDBRANCH   1  10
BRANCH   5  14
ATOM     14  C   UNL     1      47.483   6.649  11.579  0.00  0.00    +0.000 C 
BRANCH  14  15
ATOM     15  C   UNL     1      46.107   7.209  11.948  0.00  0.00    +0.000 C 
BRANCH  15  16
ATOM     16  C   UNL     1      45.066   6.119  11.827  0.00  0.00    +0.000 A 
ATOM     17  C   UNL     1      43.974   6.082  12.703  0.00  0.00    +0.000 A 
ATOM     18  C   UNL     1      42.976   5.125  12.536  0.00  0.00    +0.000 A 
ATOM     19  C   UNL     1      43.051   4.205  11.488  0.00  0.00    +0.000 A 
ATOM     20  C   UNL     1      44.131   4.227  10.597  0.00  0.00    +0.000 A 
ATOM     21  C   UNL     1      45.138   5.189  10.778  0.00  0.00    +0.000 A 
BRANCH  20  22
ATOM     22  C   UNL     1      44.212   3.241   9.453  0.00  0.00    +0.000 C 
BRANCH  22  23
ATOM     23  C   UNL     1      45.633   3.142   8.915  0.00  0.00    +0.000 C 
ATOM     24  C   UNL     1      45.932   3.673   7.506  0.00  0.00    +0.000 C 
ATOM     25  O   UNL     1      46.386   2.375   7.059  0.00  0.00    +0.000 OA
ATOM     26  C   UNL     1      46.008   1.777   8.318  0.00  0.00    +0.000 C 
ENDBRANCH  22  23
ENDBRANCH  20  22
ENDBRANCH  15  16
ENDBRANCH  14  15
ENDBRANCH   5  14
TORSDOF 6
ENDMDL
MODEL 6
REMARK VINA RESULT:    -6.362      3.601      8.526
REMARK INTER + INTRA:          -9.363
REMARK INTER:                  -8.793
REMARK INTRA:                  -0.570
REMARK UNBOUND:                -0.770
REMARK  Name = 
REMARK  6 active torsions:
REMARK  status: ('A' for Active; 'I' for Inactive)
REMARK    1  A    between atoms: C_2  and  C_4
REMARK    2  A    between atoms: N_8  and  C_9
REMARK    3  A    between atoms: C_9  and  C_10
REMARK    4  A    between atoms: C_10  and  C_11
REMARK    5  A    between atoms: C_15  and  C_16
REMARK    6  A    between atoms: C_16  and  C_17
REMARK                            x       y       z     vdW  Elec       q    Type
REMARK                         _______ _______ _______ _____ _____    ______ ____
ROOT
ATOM      1  C   UNL     1      49.254   8.105  16.104  0.00  0.00    +0.000 A 
ATOM      2  C   UNL     1      48.514   8.855  15.198  0.00  0.00    +0.000 A 
ATOM      3  C   UNL     1      47.882   8.205  14.140  0.00  0.00    +0.000 A 
ATOM      4  C   UNL     1      48.018   6.827  13.987  0.00  0.00    +0.000 A 
ATOM      5  N   UNL     1      47.336   6.106  13.018  0.00  0.00    +0.000 N 
ATOM      6  N   UNL     1      48.773   6.098  14.832  0.00  0.00    +0.000 NA
ATOM      7  C   UNL     1      49.377   6.745  15.865  0.00  0.00    +0.000 A 
ATOM      8  H   UNL     1      47.730   5.168  13.006  0.00  0.00    +0.000 HD
ENDROOT
BRANCH   1  10
ATOM      9  N   UNL     1      49.144   9.608  18.001  0.00  0.00    +0.000 N 
ATOM     10  C   UNL     1      49.885   8.703  17.293  0.00  0.00    +0.000 C 
ATOM     11  O   UNL     1      51.007   8.372  17.659  0.00  0.00    +0.000 OA
ATOM     12  H   UNL     1      49.534   9.923  18.880  0.00  0.00    +0.000 HD
ATOM     13  H   UNL     1      48.145   9.706  17.878  0.00  0.00    +0.000 HD
ENDBRANCH   1  10
BRANCH   5  14
ATOM     14  C   UNL     1      47.104   6.736  11.729  0.00  0.00    +0.000 C 
BRANCH  14  15
ATOM     15  C   UNL     1      45.615   6.743  11.369  0.00  0.00    +0.000 C 
BRANCH  15  16
ATOM     16  C   UNL     1      45.231   5.407  10.776  0.00  0.00    +0.000 A 
ATOM     17  C   UNL     1      44.373   4.544  11.472  0.00  0.00    +0.000 A 
ATOM     18  C   UNL     1      43.957   3.351  10.887  0.00  0.00    +0.000 A 
ATOM     19  C   UNL     1      44.382   3.013   9.600  0.00  0.00    +0.000 A 
ATOM     20  C   UNL     1      45.234   3.862   8.884  0.00  0.00    +0.000 A 
ATOM     21  C   UNL     1      45.656   5.058   9.486  0.00  0.00    +0.000 A 
BRANCH  20  22
ATOM     22  C   UNL     1      45.687   3.507   7.486  0.00  0.00    +0.000 C 
BRANCH  22  23
ATOM     23  C   UNL     1      47.016   2.763   7.513  0.00  0.00    +0.000 C 
ATOM     24  C   UNL     1      47.782   2.565   6.198  0.00  0.00    +0.000 C 
ATOM     25  O   UNL     1      47.738   1.126   6.331  0.00  0.00    +0.000 OA
ATOM     26  C   UNL     1      46.904   1.231   7.506  0.00  0.00    +0.000 C 
ENDBRANCH  22  23
ENDBRANCH  20  22
ENDBRANCH  15  16
ENDBRANCH  14  15
ENDBRANCH   5  14
TORSDOF 6
ENDMDL
MODEL 7
REMARK VINA RESULT:    -6.335      4.055      7.694
REMARK INTER + INTRA:          -9.326
REMARK INTER:                  -8.434
REMARK INTRA:                  -0.892
REMARK UNBOUND:                -0.770
REMARK  Name = 
REMARK  6 active torsions:
REMARK  status: ('A' for Active; 'I' for Inactive)
REMARK    1  A    between atoms: C_2  and  C_4
REMARK    2  A    between atoms: N_8  and  C_9
REMARK    3  A    between atoms: C_9  and  C_10
REMARK    4  A    between atoms: C_10  and  C_11
REMARK    5  A    between atoms: C_15  and  C_16
REMARK    6  A    between atoms: C_16  and  C_17
REMARK                            x       y       z     vdW  Elec       q    Type
REMARK                         _______ _______ _______ _____ _____    ______ ____
ROOT
ATOM      1  C   UNL     1      48.305   4.534  16.993  0.00  0.00    +0.000 A 
ATOM      2  C   UNL     1      47.583   5.115  15.957  0.00  0.00    +0.000 A 
ATOM      3  C   UNL     1      48.200   6.077  15.161  0.00  0.00    +0.000 A 
ATOM      4  C   UNL     1      49.512   6.463  15.424  0.00  0.00    +0.000 A 
ATOM      5  N   UNL     1      50.216   7.340  14.611  0.00  0.00    +0.000 N 
ATOM      6  N   UNL     1      50.204   5.940  16.455  0.00  0.00    +0.000 NA
ATOM      7  C   UNL     1      49.592   4.996  17.218  0.00  0.00    +0.000 A 
ATOM      8  H   UNL     1      51.072   7.586  15.102  0.00  0.00    +0.000 HD
ENDROOT
BRANCH   1  10
ATOM      9  N   UNL     1      48.422   3.158  18.984  0.00  0.00    +0.000 N 
ATOM     10  C   UNL     1      47.755   3.452  17.828  0.00  0.00    +0.000 C 
ATOM     11  O   UNL     1      46.719   2.872  17.524  0.00  0.00    +0.000 OA
ATOM     12  H   UNL     1      47.975   2.500  19.610  0.00  0.00    +0.000 HD
ATOM     13  H   UNL     1      49.115   3.777  19.383  0.00  0.00    +0.000 HD
ENDBRANCH   1  10
BRANCH   5  14
ATOM     14  C   UNL     1      49.487   8.428  13.980  0.00  0.00    +0.000 C 
BRANCH  14  15
ATOM     15  C   UNL     1      49.185   8.119  12.511  0.00  0.00    +0.000 C 
BRANCH  15  16
ATOM     16  C   UNL     1      47.695   7.938  12.327  0.00  0.00    +0.000 A 
ATOM     17  C   UNL     1      46.802   8.921  12.772  0.00  0.00    +0.000 A 
ATOM     18  C   UNL     1      45.437   8.788  12.528  0.00  0.00    +0.000 A 
ATOM     19  C   UNL     1      44.953   7.681  11.828  0.00  0.00    +0.000 A 
ATOM     20  C   UNL     1      45.828   6.689  11.369  0.00  0.00    +0.000 A 
ATOM     21  C   UNL     1      47.201   6.827  11.628  0.00  0.00    +0.000 A 
BRANCH  20  22
ATOM     22  C   UNL     1      45.310   5.495  10.599  0.00  0.00    +0.000 C 
BRANCH  22  23
ATOM     23  C   UNL     1      44.618   4.505  11.526  0.00  0.00    +0.000 C 
ATOM     24  C   UNL     1      44.506   3.036  11.093  0.00  0.00    +0.000 C 
ATOM     25  O   UNL     1      43.063   3.076  11.152  0.00  0.00    +0.000 OA
ATOM     26  C   UNL     1      43.084   4.492  11.435  0.00  0.00    +0.000 C 
ENDBRANCH  22  23
ENDBRANCH  20  22
ENDBRANCH  15  16
ENDBRANCH  14  15
ENDBRANCH   5  14
TORSDOF 6
ENDMDL
MODEL 8
REMARK VINA RESULT:    -6.272      4.141      8.480
REMARK INTER + INTRA:          -9.242
REMARK INTER:                  -8.778
REMARK INTRA:                  -0.464
REMARK UNBOUND:                -0.770
REMARK  Name = 
REMARK  6 active torsions:
REMARK  status: ('A' for Active; 'I' for Inactive)
REMARK    1  A    between atoms: C_2  and  C_4
REMARK    2  A    between atoms: N_8  and  C_9
REMARK    3  A    between atoms: C_9  and  C_10
REMARK    4  A    between atoms: C_10  and  C_11
REMARK    5  A    between atoms: C_15  and  C_16
REMARK    6  A    between atoms: C_16  and  C_17
REMARK                            x       y       z     vdW  Elec       q    Type
REMARK                         _______ _______ _______ _____ _____    ______ ____
ROOT
ATOM      1  C   UNL     1      49.600   9.879  13.680  0.00  0.00    +0.000 A 
ATOM      2  C   UNL     1      49.324   9.333  12.432  0.00  0.00    +0.000 A 
ATOM      3  C   UNL     1      48.269   8.432  12.307  0.00  0.00    +0.000 A 
ATOM      4  C   UNL     1      47.524   8.071  13.427  0.00  0.00    +0.000 A 
ATOM      5  N   UNL     1      46.401   7.260  13.355  0.00  0.00    +0.000 N 
ATOM      6  N   UNL     1      47.814   8.558  14.650  0.00  0.00    +0.000 NA
ATOM      7  C   UNL     1      48.842   9.442  14.755  0.00  0.00    +0.000 A 
ATOM      8  H   UNL     1      46.145   7.013  14.308  0.00  0.00    +0.000 HD
ENDROOT
BRANCH   1  10
ATOM      9  N   UNL     1      50.863  11.320  15.163  0.00  0.00    +0.000 N 
ATOM     10  C   UNL     1      50.645  10.897  13.881  0.00  0.00    +0.000 C 
ATOM     11  O   UNL     1      51.321  11.315  12.948  0.00  0.00    +0.000 OA
ATOM     12  H   UNL     1      51.659  11.927  15.310  0.00  0.00    +0.000 HD
ATOM     13  H   UNL     1      50.511  10.818  15.968  0.00  0.00    +0.000 HD
ENDBRANCH   1  10
BRANCH   5  14
ATOM     14  C   UNL     1      46.390   6.187  12.375  0.00  0.00    +0.000 C 
BRANCH  14  15
ATOM     15  C   UNL     1      45.279   6.386  11.340  0.00  0.00    +0.000 C 
BRANCH  15  16
ATOM     16  C   UNL     1      45.186   5.165  10.454  0.00  0.00    +0.000 A 
ATOM     17  C   UNL     1      44.342   4.102  10.800  0.00  0.00    +0.000 A 
ATOM     18  C   UNL     1      44.198   3.015   9.940  0.00  0.00    +0.000 A 
ATOM     19  C   UNL     1      44.883   2.985   8.724  0.00  0.00    +0.000 A 
ATOM     20  C   UNL     1      45.728   4.040   8.355  0.00  0.00    +0.000 A 
ATOM     21  C   UNL     1      45.874   5.126   9.232  0.00  0.00    +0.000 A 
BRANCH  20  22
ATOM     22  C   UNL     1      46.463   4.018   7.034  0.00  0.00    +0.000 C 
BRANCH  22  23
ATOM     23  C   UNL     1      46.647   2.592   6.533  0.00  0.00    +0.000 C 
ATOM     24  C   UNL     1      47.773   1.736   7.129  0.00  0.00    +0.000 C 
ATOM     25  O   UNL     1      48.391   1.558   5.835  0.00  0.00    +0.000 OA
ATOM     26  C   UNL     1      47.441   2.459   5.225  0.00  0.00    +0.000 C 
ENDBRANCH  22  23
ENDBRANCH  20  22
ENDBRANCH  15  16
ENDBRANCH  14  15
ENDBRANCH   5  14
TORSDOF 6
ENDMDL
MODEL 9
REMARK VINA RESULT:    -6.161      3.955      5.768
REMARK INTER + INTRA:          -9.092
REMARK INTER:                  -8.056
REMARK INTRA:                  -1.036
REMARK UNBOUND:                -0.770
REMARK  Name = 
REMARK  6 active torsions:
REMARK  status: ('A' for Active; 'I' for Inactive)
REMARK    1  A    between atoms: C_2  and  C_4
REMARK    2  A    between atoms: N_8  and  C_9
REMARK    3  A    between atoms: C_9  and  C_10
REMARK    4  A    between atoms: C_10  and  C_11
REMARK    5  A    between atoms: C_15  and  C_16
REMARK    6  A    between atoms: C_16  and  C_17
REMARK                            x       y       z     vdW  Elec       q    Type
REMARK                         _______ _______ _______ _____ _____    ______ ____
ROOT
ATOM      1  C   UNL     1      45.137   5.279  13.069  0.00  0.00    +0.000 A 
ATOM      2  C   UNL     1      45.342   6.622  12.774  0.00  0.00    +0.000 A 
ATOM      3  C   UNL     1      46.647   7.100  12.678  0.00  0.00    +0.000 A 
ATOM      4  C   UNL     1      47.722   6.243  12.902  0.00  0.00    +0.000 A 
ATOM      5  N   UNL     1      49.043   6.629  12.725  0.00  0.00    +0.000 N 
ATOM      6  N   UNL     1      47.532   4.952  13.237  0.00  0.00    +0.000 NA
ATOM      7  C   UNL     1      46.253   4.497  13.319  0.00  0.00    +0.000 A 
ATOM      8  H   UNL     1      49.628   5.892  13.110  0.00  0.00    +0.000 HD
ENDROOT
BRANCH   1  10
ATOM      9  N   UNL     1      42.727   5.532  13.053  0.00  0.00    +0.000 N 
ATOM     10  C   UNL     1      43.793   4.678  13.108  0.00  0.00    +0.000 C 
ATOM     11  O   UNL     1      43.635   3.463  13.143  0.00  0.00    +0.000 OA
ATOM     12  H   UNL     1      41.812   5.110  12.959  0.00  0.00    +0.000 HD
ATOM     13  H   UNL     1      42.820   6.499  12.768  0.00  0.00    +0.000 HD
ENDBRANCH   1  10
BRANCH   5  14
ATOM     14  C   UNL     1      49.409   7.997  13.057  0.00  0.00    +0.000 C 
BRANCH  14  15
ATOM     15  C   UNL     1      50.465   8.039  14.166  0.00  0.00    +0.000 C 
BRANCH  15  16
ATOM     16  C   UNL     1      49.791   7.914  15.513  0.00  0.00    +0.000 A 
ATOM     17  C   UNL     1      49.058   8.986  16.040  0.00  0.00    +0.000 A 
ATOM     18  C   UNL     1      48.372   8.838  17.243  0.00  0.00    +0.000 A 
ATOM     19  C   UNL     1      48.400   7.620  17.924  0.00  0.00    +0.000 A 
ATOM     20  C   UNL     1      49.121   6.533  17.413  0.00  0.00    +0.000 A 
ATOM     21  C   UNL     1      49.818   6.694  16.205  0.00  0.00    +0.000 A 
BRANCH  20  22
ATOM     22  C   UNL     1      49.145   5.208  18.140  0.00  0.00    +0.000 C 
BRANCH  22  23
ATOM     23  C   UNL     1      48.565   4.098  17.274  0.00  0.00    +0.000 C 
ATOM     24  C   UNL     1      47.115   4.220  16.784  0.00  0.00    +0.000 C 
ATOM     25  O   UNL     1      46.737   2.990  17.442  0.00  0.00    +0.000 OA
ATOM     26  C   UNL     1      48.044   2.876  18.046  0.00  0.00    +0.000 C 
ENDBRANCH  22  23
ENDBRANCH  20  22
ENDBRANCH  15  16
ENDBRANCH  14  15
ENDBRANCH   5  14
TORSDOF 6
ENDMDL
