MODEL 1
REMARK VINA RESULT:    -9.331      0.000      0.000
REMARK INTER + INTRA:         -14.676
REMARK INTER:                 -13.422
REMARK INTRA:                  -1.254
REMARK UNBOUND:                -1.254
REMARK  Name = 
REMARK  9 active torsions:
REMARK  status: ('A' for Active; 'I' for Inactive)
REMARK    1  A    between atoms: C_1  and  C_2
REMARK    2  A    between atoms: C_2  and  O_3
REMARK    3  A    between atoms: N_6  and  C_7
REMARK    4  A    between atoms: C_9  and  C_10
REMARK    5  A    between atoms: C_10  and  C_11
REMARK    6  A    between atoms: C_11  and  N_12
REMARK    7  A    between atoms: N_12  and  C_13
REMARK    8  A    between atoms: C_16  and  C_17
REMARK    9  A    between atoms: C_23  and  C_24
REMARK                            x       y       z     vdW  Elec       q    Type
REMARK                         _______ _______ _______ _____ _____    ______ ____
ROOT
ATOM      1  C   UNL     1      47.505   5.470  14.773  0.00  0.00    +0.000 A 
ATOM      2  C   UNL     1      46.475   4.808  14.083  0.00  0.00    +0.000 A 
ATOM      3  C   UNL     1      46.120   5.148  12.763  0.00  0.00    +0.000 A 
ATOM      4  C   UNL     1      46.831   6.177  12.131  0.00  0.00    +0.000 A 
ATOM      5  C   UNL     1      47.861   6.859  12.778  0.00  0.00    +0.000 A 
ATOM      6  C   UNL     1      48.195   6.481  14.084  0.00  0.00    +0.000 A 
ENDROOT
BRANCH   1  11
ATOM      7  C   UNL     1      48.821   4.034  19.340  0.00  0.00    +0.000 C 
ATOM      8  C   UNL     1      49.283   3.506  17.974  0.00  0.00    +0.000 C 
ATOM      9  C   UNL     1      49.997   4.584  17.146  0.00  0.00    +0.000 C 
ATOM     10  C   UNL     1      49.051   5.706  16.720  0.00  0.00    +0.000 C 
ATOM     11  N   UNL     1      47.840   5.182  16.088  0.00  0.00    +0.000 N 
ATOM     12  C   UNL     1      47.135   4.066  16.752  0.00  0.00    +0.000 C 
ATOM     13  C   UNL     1      48.103   2.954  17.160  0.00  0.00    +0.000 C 
ATOM     14  F   UNL     1      48.583   2.369  16.017  0.00  0.00    +0.000 F 
BRANCH   8  15
ATOM     15  O   UNL     1      50.200   2.436  18.254  0.00  0.00    +0.000 OA
ATOM     16  H   UNL     1      50.865   2.405  17.546  0.00  0.00    +0.000 HD
ENDBRANCH   8  15
ENDBRANCH   1  11
BRANCH   5  17
ATOM     17  C   UNL     1      48.577   7.998  12.104  0.00  0.00    +0.000 C 
ATOM     18  F   UNL     1      49.505   8.603  12.900  0.00  0.00    +0.000 F 
ATOM     19  F   UNL     1      49.250   7.603  10.988  0.00  0.00    +0.000 F 
ATOM     20  F   UNL     1      47.733   8.988  11.703  0.00  0.00    +0.000 F 
ENDBRANCH   5  17
BRANCH   3  21
ATOM     21  C   UNL     1      44.962   4.427  12.090  0.00  0.00    +0.000 C 
BRANCH  21  22
ATOM     22  C   UNL     1      44.093   5.341  11.215  0.00  0.00    +0.000 C 
BRANCH  22  23
ATOM     23  N   UNL     1      43.680   4.722   9.964  0.00  0.00    +0.000 N 
ATOM     24  H   UNL     1      42.777   4.255  10.000  0.00  0.00    +0.000 HD
BRANCH  23  25
ATOM     25  C   UNL     1      44.633   3.960   9.269  0.00  0.00    +0.000 A 
ATOM     26  C   UNL     1      45.598   4.506   8.410  0.00  0.00    +0.000 A 
ATOM     27  C   UNL     1      46.485   3.692   7.696  0.00  0.00    +0.000 A 
ATOM     28  C   UNL     1      46.405   2.304   7.806  0.00  0.00    +0.000 A 
ATOM     29  C   UNL     1      45.417   1.739   8.618  0.00  0.00    +0.000 A 
ATOM     30  C   UNL     1      44.542   2.563   9.337  0.00  0.00    +0.000 A 
BRANCH  28  31
ATOM     31  C   UNL     1      47.361   1.478   7.018  0.00  0.00    +0.000 C 
ATOM     32  N   UNL     1      48.475   2.105   6.534  0.00  0.00    +0.000 N 
ATOM     33  O   UNL     1      47.147   0.300   6.774  0.00  0.00    +0.000 OA
ATOM     34  H   UNL     1      48.569   3.109   6.504  0.00  0.00    +0.000 HD
ATOM     35  H   UNL     1      49.058   1.558   5.913  0.00  0.00    +0.000 HD
ENDBRANCH  28  31
ENDBRANCH  23  25
ENDBRANCH  22  23
ENDBRANCH  21  22
ENDBRANCH   3  21
TORSDOF 8
ENDMDL
MODEL 2
REMARK VINA RESULT:    -8.612      1.473      1.947
REMARK INTER + INTRA:         -13.643
REMARK INTER:                 -12.318
REMARK INTRA:                  -1.325
REMARK UNBOUND:                -1.254
REMARK  Name = 
REMARK  9 active torsions:
REMARK  status: ('A' for Active; 'I' for Inactive)
REMARK    1  A    between atoms: C_1  and  C_2
REMARK    2  A    between atoms: C_2  and  O_3
REMARK    3  A    between atoms: N_6  and  C_7
REMARK    4  A    between atoms: C_9  and  C_10
REMARK    5  A    between atoms: C_10  and  C_11
REMARK    6  A    between atoms: C_11  and  N_12
REMARK    7  A    between atoms: N_12  and  C_13
REMARK    8  A    between atoms: C_16  and  C_17
REMARK    9  A    between atoms: C_23  and  C_24
REMARK                            x       y       z     vdW  Elec       q    Type
REMARK                         _______ _______ _______ _____ _____    ______ ____
ROOT
ATOM      1  C   UNL     1      47.741   5.503  14.853  0.00  0.00    +0.000 A 
ATOM      2  C   UNL     1      46.622   4.884  14.272  0.00  0.00    +0.000 A 
ATOM      3  C   UNL     1      46.119   5.274  13.015  0.00  0.00    +0.000 A 
ATOM      4  C   UNL     1      46.772   6.311  12.334  0.00  0.00    +0.000 A 
ATOM      5  C   UNL     1      47.887   6.952  12.874  0.00  0.00    +0.000 A 
ATOM      6  C   UNL     1      48.366   6.525  14.118  0.00  0.00    +0.000 A 
ENDROOT
BRANCH   1  11
ATOM      7  C   UNL     1      49.393   4.717  19.469  0.00  0.00    +0.000 C 
ATOM      8  C   UNL     1      48.409   5.774  18.946  0.00  0.00    +0.000 C 
ATOM      9  C   UNL     1      47.148   5.142  18.338  0.00  0.00    +0.000 C 
ATOM     10  C   UNL     1      47.450   4.365  17.057  0.00  0.00    +0.000 C 
ATOM     11  N   UNL     1      48.225   5.165  16.109  0.00  0.00    +0.000 N 
ATOM     12  C   UNL     1      49.400   5.904  16.617  0.00  0.00    +0.000 C 
ATOM     13  C   UNL     1      49.068   6.679  17.893  0.00  0.00    +0.000 C 
ATOM     14  F   UNL     1      48.199   7.686  17.564  0.00  0.00    +0.000 F 
BRANCH   8  15
ATOM     15  O   UNL     1      48.041   6.570  20.084  0.00  0.00    +0.000 OA
ATOM     16  H   UNL     1      48.633   7.340  20.127  0.00  0.00    +0.000 HD
ENDBRANCH   8  15
ENDBRANCH   1  11
BRANCH   5  17
ATOM     17  C   UNL     1      48.542   8.100  12.155  0.00  0.00    +0.000 C 
ATOM     18  F   UNL     1      49.189   7.726  11.014  0.00  0.00    +0.000 F 
ATOM     19  F   UNL     1      47.650   9.056  11.776  0.00  0.00    +0.000 F 
ATOM     20  F   UNL     1      49.475   8.735  12.916  0.00  0.00    +0.000 F 
ENDBRANCH   5  17
BRANCH   3  21
ATOM     21  C   UNL     1      44.873   4.598  12.464  0.00  0.00    +0.000 C 
BRANCH  21  22
ATOM     22  C   UNL     1      44.179   5.397  11.354  0.00  0.00    +0.000 C 
BRANCH  22  23
ATOM     23  N   UNL     1      43.688   4.568  10.263  0.00  0.00    +0.000 N 
ATOM     24  H   UNL     1      42.922   3.948  10.513  0.00  0.00    +0.000 HD
BRANCH  23  25
ATOM     25  C   UNL     1      44.641   3.919   9.460  0.00  0.00    +0.000 A 
ATOM     26  C   UNL     1      45.437   4.571   8.506  0.00  0.00    +0.000 A 
ATOM     27  C   UNL     1      46.328   3.863   7.691  0.00  0.00    +0.000 A 
ATOM     28  C   UNL     1      46.420   2.476   7.795  0.00  0.00    +0.000 A 
ATOM     29  C   UNL     1      45.600   1.802   8.705  0.00  0.00    +0.000 A 
ATOM     30  C   UNL     1      44.720   2.522   9.524  0.00  0.00    +0.000 A 
BRANCH  28  31
ATOM     31  C   UNL     1      47.373   1.764   6.899  0.00  0.00    +0.000 C 
ATOM     32  N   UNL     1      48.494   2.444   6.514  0.00  0.00    +0.000 N 
ATOM     33  O   UNL     1      47.150   0.635   6.487  0.00  0.00    +0.000 OA
ATOM     34  H   UNL     1      48.596   3.441   6.629  0.00  0.00    +0.000 HD
ATOM     35  H   UNL     1      49.075   1.987   5.822  0.00  0.00    +0.000 HD
ENDBRANCH  28  31
ENDBRANCH  23  25
ENDBRANCH  22  23
ENDBRANCH  21  22
ENDBRANCH   3  21
TORSDOF 8
ENDMDL
MODEL 3
REMARK VINA RESULT:    -7.150      4.004      7.435
REMARK INTER + INTRA:         -11.539
REMARK INTER:                  -9.737
REMARK INTRA:                  -1.801
REMARK UNBOUND:                -1.254
REMARK  Name = 
REMARK  9 active torsions:
REMARK  status: ('A' for Active; 'I' for Inactive)
REMARK    1  A    between atoms: C_1  and  C_2
REMARK    2  A    between atoms: C_2  and  O_3
REMARK    3  A    between atoms: N_6  and  C_7
REMARK    4  A    between atoms: C_9  and  C_10
REMARK    5  A    between atoms: C_10  and  C_11
REMARK    6  A    between atoms: C_11  and  N_12
REMARK    7  A    between atoms: N_12  and  C_13
REMARK    8  A    between atoms: C_16  and  C_17
REMARK    9  A    between atoms: C_23  and  C_24
REMARK                            x       y       z     vdW  Elec       q    Type
REMARK                         _______ _______ _______ _____ _____    ______ ____
ROOT
ATOM      1  C   UNL     1      47.009   5.231  13.766  0.00  0.00    +0.000 A 
ATOM      2  C   UNL     1      47.841   6.362  13.746  0.00  0.00    +0.000 A 
ATOM      3  C   UNL     1      48.599   6.754  14.866  0.00  0.00    +0.000 A 
ATOM      4  C   UNL     1      48.513   5.976  16.029  0.00  0.00    +0.000 A 
ATOM      5  C   UNL     1      47.699   4.845  16.092  0.00  0.00    +0.000 A 
ATOM      6  C   UNL     1      46.975   4.478  14.953  0.00  0.00    +0.000 A 
ENDROOT
BRANCH   1  11
ATOM      7  C   UNL     1      43.849   4.101  10.107  0.00  0.00    +0.000 C 
ATOM      8  C   UNL     1      43.827   5.277  11.094  0.00  0.00    +0.000 C 
ATOM      9  C   UNL     1      45.061   6.179  10.950  0.00  0.00    +0.000 C 
ATOM     10  C   UNL     1      46.348   5.470  11.369  0.00  0.00    +0.000 C 
ATOM     11  N   UNL     1      46.220   4.853  12.690  0.00  0.00    +0.000 N 
ATOM     12  C   UNL     1      45.011   4.050  12.968  0.00  0.00    +0.000 C 
ATOM     13  C   UNL     1      43.738   4.785  12.547  0.00  0.00    +0.000 C 
ATOM     14  F   UNL     1      43.578   5.866  13.375  0.00  0.00    +0.000 F 
BRANCH   8  15
ATOM     15  O   UNL     1      42.646   6.033  10.782  0.00  0.00    +0.000 OA
ATOM     16  H   UNL     1      42.019   5.947  11.520  0.00  0.00    +0.000 HD
ENDBRANCH   8  15
ENDBRANCH   1  11
BRANCH   5  17
ATOM     17  C   UNL     1      47.576   4.052  17.365  0.00  0.00    +0.000 C 
ATOM     18  F   UNL     1      48.729   3.418  17.723  0.00  0.00    +0.000 F 
ATOM     19  F   UNL     1      47.236   4.827  18.432  0.00  0.00    +0.000 F 
ATOM     20  F   UNL     1      46.627   3.078  17.290  0.00  0.00    +0.000 F 
ENDBRANCH   5  17
BRANCH   3  21
ATOM     21  C   UNL     1      49.442   8.019  14.795  0.00  0.00    +0.000 C 
BRANCH  21  22
ATOM     22  C   UNL     1      49.407   8.706  13.424  0.00  0.00    +0.000 C 
BRANCH  22  23
ATOM     23  N   UNL     1      48.686   9.971  13.429  0.00  0.00    +0.000 N 
ATOM     24  H   UNL     1      48.615  10.414  14.342  0.00  0.00    +0.000 HD
BRANCH  23  25
ATOM     25  C   UNL     1      47.474  10.032  12.723  0.00  0.00    +0.000 A 
ATOM     26  C   UNL     1      47.163  11.025  11.783  0.00  0.00    +0.000 A 
ATOM     27  C   UNL     1      45.913  11.070  11.154  0.00  0.00    +0.000 A 
ATOM     28  C   UNL     1      44.932  10.133  11.477  0.00  0.00    +0.000 A 
ATOM     29  C   UNL     1      45.205   9.166  12.448  0.00  0.00    +0.000 A 
ATOM     30  C   UNL     1      46.464   9.122  13.063  0.00  0.00    +0.000 A 
BRANCH  28  31
ATOM     31  C   UNL     1      43.614  10.227  10.791  0.00  0.00    +0.000 C 
ATOM     32  N   UNL     1      42.831   9.107  10.787  0.00  0.00    +0.000 N 
ATOM     33  O   UNL     1      43.257  11.246  10.218  0.00  0.00    +0.000 OA
ATOM     34  H   UNL     1      43.182   8.193  11.030  0.00  0.00    +0.000 HD
ATOM     35  H   UNL     1      41.990   9.156  10.226  0.00  0.00    +0.000 HD
ENDBRANCH  28  31
ENDBRANCH  23  25
ENDBRANCH  22  23
ENDBRANCH  21  22
ENDBRANCH   3  21
TORSDOF 8
ENDMDL
MODEL 4
REMARK VINA RESULT:    -6.897      3.403      8.446
REMARK INTER + INTRA:         -11.176
REMARK INTER:                  -9.817
REMARK INTRA:                  -1.359
REMARK UNBOUND:                -1.254
REMARK  Name = 
REMARK  9 active torsions:
REMARK  status: ('A' for Active; 'I' for Inactive)
REMARK    1  A    between atoms: C_1  and  C_2
REMARK    2  A    between atoms: C_2  and  O_3
REMARK    3  A    between atoms: N_6  and  C_7
REMARK    4  A    between atoms: C_9  and  C_10
REMARK    5  A    between atoms: C_10  and  C_11
REMARK    6  A    between atoms: C_11  and  N_12
REMARK    7  A    between atoms: N_12  and  C_13
REMARK    8  A    between atoms: C_16  and  C_17
REMARK    9  A    between atoms: C_23  and  C_24
REMARK                            x       y       z     vdW  Elec       q    Type
REMARK                         _______ _______ _______ _____ _____    ______ ____
ROOT
ATOM      1  C   UNL     1      46.962   5.197  13.855  0.00  0.00    +0.000 A 
ATOM      2  C   UNL     1      46.749   4.398  14.991  0.00  0.00    +0.000 A 
ATOM      3  C   UNL     1      47.482   4.579  16.180  0.00  0.00    +0.000 A 
ATOM      4  C   UNL     1      48.446   5.595  16.216  0.00  0.00    +0.000 A 
ATOM      5  C   UNL     1      48.689   6.412  15.111  0.00  0.00    +0.000 A 
ATOM      6  C   UNL     1      47.928   6.213  13.954  0.00  0.00    +0.000 A 
ENDROOT
BRANCH   1  11
ATOM      7  C   UNL     1      44.161   4.619   9.796  0.00  0.00    +0.000 C 
ATOM      8  C   UNL     1      43.897   5.450  11.060  0.00  0.00    +0.000 C 
ATOM      9  C   UNL     1      44.948   6.552  11.260  0.00  0.00    +0.000 C 
ATOM     10  C   UNL     1      46.332   5.982  11.569  0.00  0.00    +0.000 C 
ATOM     11  N   UNL     1      46.284   5.008  12.659  0.00  0.00    +0.000 N 
ATOM     12  C   UNL     1      45.236   3.967  12.617  0.00  0.00    +0.000 C 
ATOM     13  C   UNL     1      43.861   4.564  12.315  0.00  0.00    +0.000 C 
ATOM     14  F   UNL     1      43.484   5.327  13.389  0.00  0.00    +0.000 F 
BRANCH   8  15
ATOM     15  O   UNL     1      42.605   6.052  10.874  0.00  0.00    +0.000 OA
ATOM     16  H   UNL     1      42.290   6.378  11.734  0.00  0.00    +0.000 HD
ENDBRANCH   8  15
ENDBRANCH   1  11
BRANCH   5  17
ATOM     17  C   UNL     1      49.765   7.463  15.149  0.00  0.00    +0.000 C 
ATOM     18  F   UNL     1      49.460   8.523  15.951  0.00  0.00    +0.000 F 
ATOM     19  F   UNL     1      50.950   6.980  15.613  0.00  0.00    +0.000 F 
ATOM     20  F   UNL     1      50.028   7.991  13.922  0.00  0.00    +0.000 F 
ENDBRANCH   5  17
BRANCH   3  21
ATOM     21  C   UNL     1      47.239   3.647  17.358  0.00  0.00    +0.000 C 
BRANCH  21  22
ATOM     22  C   UNL     1      48.528   3.127  18.008  0.00  0.00    +0.000 C 
BRANCH  22  23
ATOM     23  N   UNL     1      49.368   2.364  17.097  0.00  0.00    +0.000 N 
ATOM     24  H   UNL     1      49.020   1.434  16.878  0.00  0.00    +0.000 HD
BRANCH  23  25
ATOM     25  C   UNL     1      50.752   2.359  17.338  0.00  0.00    +0.000 A 
ATOM     26  C   UNL     1      51.531   1.195  17.409  0.00  0.00    +0.000 A 
ATOM     27  C   UNL     1      52.897   1.247  17.713  0.00  0.00    +0.000 A 
ATOM     28  C   UNL     1      53.508   2.472  17.982  0.00  0.00    +0.000 A 
ATOM     29  C   UNL     1      52.737   3.638  17.965  0.00  0.00    +0.000 A 
ATOM     30  C   UNL     1      51.374   3.576  17.648  0.00  0.00    +0.000 A 
BRANCH  28  31
ATOM     31  C   UNL     1      54.959   2.477  18.312  0.00  0.00    +0.000 C 
ATOM     32  N   UNL     1      55.724   3.458  17.747  0.00  0.00    +0.000 N 
ATOM     33  O   UNL     1      55.462   1.620  19.024  0.00  0.00    +0.000 OA
ATOM     34  H   UNL     1      55.405   4.027  16.977  0.00  0.00    +0.000 HD
ATOM     35  H   UNL     1      56.723   3.384  17.895  0.00  0.00    +0.000 HD
ENDBRANCH  28  31
ENDBRANCH  23  25
ENDBRANCH  22  23
ENDBRANCH  21  22
ENDBRANCH   3  21
TORSDOF 8
ENDMDL
MODEL 5
REMARK VINA RESULT:    -6.894      3.434      9.016
REMARK INTER + INTRA:         -11.171
REMARK INTER:                  -9.181
REMARK INTRA:                  -1.990
REMARK UNBOUND:                -1.254
REMARK  Name = 
REMARK  9 active torsions:
REMARK  status: ('A' for Active; 'I' for Inactive)
REMARK    1  A    between atoms: C_1  and  C_2
REMARK    2  A    between atoms: C_2  and  O_3
REMARK    3  A    between atoms: N_6  and  C_7
REMARK    4  A    between atoms: C_9  and  C_10
REMARK    5  A    between atoms: C_10  and  C_11
REMARK    6  A    between atoms: C_11  and  N_12
REMARK    7  A    between atoms: N_12  and  C_13
REMARK    8  A    between atoms: C_16  and  C_17
REMARK    9  A    between atoms: C_23  and  C_24
REMARK                            x       y       z     vdW  Elec       q    Type
REMARK                         _______ _______ _______ _____ _____    ______ ____
ROOT
ATOM      1  C   UNL     1      46.830   5.009  13.890  0.00  0.00    +0.000 A 
ATOM      2  C   UNL     1      46.765   4.098  14.957  0.00  0.00    +0.000 A 
ATOM      3  C   UNL     1      47.533   4.258  16.127  0.00  0.00    +0.000 A 
ATOM      4  C   UNL     1      48.380   5.371  16.215  0.00  0.00    +0.000 A 
ATOM      5  C   UNL     1      48.475   6.301  15.179  0.00  0.00    +0.000 A 
ATOM      6  C   UNL     1      47.683   6.116  14.040  0.00  0.00    +0.000 A 
ENDROOT
BRANCH   1  11
ATOM      7  C   UNL     1      43.917   4.360   9.922  0.00  0.00    +0.000 C 
ATOM      8  C   UNL     1      43.553   4.817  11.342  0.00  0.00    +0.000 C 
ATOM      9  C   UNL     1      44.248   6.133  11.724  0.00  0.00    +0.000 C 
ATOM     10  C   UNL     1      45.762   5.973  11.848  0.00  0.00    +0.000 C 
ATOM     11  N   UNL     1      46.118   4.846  12.711  0.00  0.00    +0.000 N 
ATOM     12  C   UNL     1      45.425   3.558  12.496  0.00  0.00    +0.000 C 
ATOM     13  C   UNL     1      43.911   3.746  12.383  0.00  0.00    +0.000 C 
ATOM     14  F   UNL     1      43.441   4.140  13.609  0.00  0.00    +0.000 F 
BRANCH   8  15
ATOM     15  O   UNL     1      42.130   5.013  11.342  0.00  0.00    +0.000 OA
ATOM     16  H   UNL     1      41.949   5.967  11.401  0.00  0.00    +0.000 HD
ENDBRANCH   8  15
ENDBRANCH   1  11
BRANCH   5  17
ATOM     17  C   UNL     1      49.430   7.461  15.267  0.00  0.00    +0.000 C 
ATOM     18  F   UNL     1      49.213   8.416  14.318  0.00  0.00    +0.000 F 
ATOM     19  F   UNL     1      49.356   8.107  16.463  0.00  0.00    +0.000 F 
ATOM     20  F   UNL     1      50.730   7.085  15.122  0.00  0.00    +0.000 F 
ENDBRANCH   5  17
BRANCH   3  21
ATOM     21  C   UNL     1      47.454   3.209  17.225  0.00  0.00    +0.000 C 
BRANCH  21  22
ATOM     22  C   UNL     1      48.700   3.157  18.118  0.00  0.00    +0.000 C 
BRANCH  22  23
ATOM     23  N   UNL     1      48.474   3.678  19.458  0.00  0.00    +0.000 N 
ATOM     24  H   UNL     1      47.666   3.286  19.934  0.00  0.00    +0.000 HD
BRANCH  23  25
ATOM     25  C   UNL     1      48.561   5.068  19.639  0.00  0.00    +0.000 A 
ATOM     26  C   UNL     1      47.449   5.911  19.787  0.00  0.00    +0.000 A 
ATOM     27  C   UNL     1      47.594   7.298  19.903  0.00  0.00    +0.000 A 
ATOM     28  C   UNL     1      48.861   7.877  19.843  0.00  0.00    +0.000 A 
ATOM     29  C   UNL     1      49.978   7.060  19.645  0.00  0.00    +0.000 A 
ATOM     30  C   UNL     1      49.822   5.671  19.543  0.00  0.00    +0.000 A 
BRANCH  28  31
ATOM     31  C   UNL     1      48.966   9.358  19.959  0.00  0.00    +0.000 C 
ATOM     32  N   UNL     1      50.119   9.939  19.513  0.00  0.00    +0.000 N 
ATOM     33  O   UNL     1      48.080  10.029  20.468  0.00  0.00    +0.000 OA
ATOM     34  H   UNL     1      50.957   9.412  19.315  0.00  0.00    +0.000 HD
ATOM     35  H   UNL     1      50.217  10.930  19.697  0.00  0.00    +0.000 HD
ENDBRANCH  28  31
ENDBRANCH  23  25
ENDBRANCH  22  23
ENDBRANCH  21  22
ENDBRANCH   3  21
TORSDOF 8
ENDMDL
MODEL 6
REMARK VINA RESULT:    -6.852      4.357      5.888
REMARK INTER + INTRA:         -11.111
REMARK INTER:                  -9.032
REMARK INTRA:                  -2.079
REMARK UNBOUND:                -1.254
REMARK  Name = 
REMARK  9 active torsions:
REMARK  status: ('A' for Active; 'I' for Inactive)
REMARK    1  A    between atoms: C_1  and  C_2
REMARK    2  A    between atoms: C_2  and  O_3
REMARK    3  A    between atoms: N_6  and  C_7
REMARK    4  A    between atoms: C_9  and  C_10
REMARK    5  A    between atoms: C_10  and  C_11
REMARK    6  A    between atoms: C_11  and  N_12
REMARK    7  A    between atoms: N_12  and  C_13
REMARK    8  A    between atoms: C_16  and  C_17
REMARK    9  A    between atoms: C_23  and  C_24
REMARK                            x       y       z     vdW  Elec       q    Type
REMARK                         _______ _______ _______ _____ _____    ______ ____
ROOT
ATOM      1  C   UNL     1      48.814   7.597  16.706  0.00  0.00    +0.000 A 
ATOM      2  C   UNL     1      49.222   8.335  15.583  0.00  0.00    +0.000 A 
ATOM      3  C   UNL     1      49.093   9.737  15.521  0.00  0.00    +0.000 A 
ATOM      4  C   UNL     1      48.542  10.400  16.626  0.00  0.00    +0.000 A 
ATOM      5  C   UNL     1      48.125   9.706  17.762  0.00  0.00    +0.000 A 
ATOM      6  C   UNL     1      48.286   8.316  17.792  0.00  0.00    +0.000 A 
ENDROOT
BRANCH   1  11
ATOM      7  C   UNL     1      48.722   2.656  17.191  0.00  0.00    +0.000 C 
ATOM      8  C   UNL     1      47.579   3.675  17.308  0.00  0.00    +0.000 C 
ATOM      9  C   UNL     1      47.346   4.440  15.996  0.00  0.00    +0.000 C 
ATOM     10  C   UNL     1      48.519   5.356  15.645  0.00  0.00    +0.000 C 
ATOM     11  N   UNL     1      48.891   6.213  16.771  0.00  0.00    +0.000 N 
ATOM     12  C   UNL     1      49.034   5.591  18.103  0.00  0.00    +0.000 C 
ATOM     13  C   UNL     1      47.845   4.687  18.433  0.00  0.00    +0.000 C 
ATOM     14  F   UNL     1      46.740   5.482  18.590  0.00  0.00    +0.000 F 
BRANCH   8  15
ATOM     15  O   UNL     1      46.403   2.915  17.630  0.00  0.00    +0.000 OA
ATOM     16  H   UNL     1      46.372   2.134  17.053  0.00  0.00    +0.000 HD
ENDBRANCH   8  15
ENDBRANCH   1  11
BRANCH   5  17
ATOM     17  C   UNL     1      47.486  10.428  18.917  0.00  0.00    +0.000 C 
ATOM     18  F   UNL     1      48.386  10.891  19.832  0.00  0.00    +0.000 F 
ATOM     19  F   UNL     1      46.770  11.516  18.521  0.00  0.00    +0.000 F 
ATOM     20  F   UNL     1      46.621   9.642  19.616  0.00  0.00    +0.000 F 
ENDBRANCH   5  17
BRANCH   3  21
ATOM     21  C   UNL     1      49.507  10.472  14.255  0.00  0.00    +0.000 C 
BRANCH  21  22
ATOM     22  C   UNL     1      48.436  10.457  13.156  0.00  0.00    +0.000 C 
BRANCH  22  23
ATOM     23  N   UNL     1      48.507   9.285  12.295  0.00  0.00    +0.000 N 
ATOM     24  H   UNL     1      48.723   9.486  11.322  0.00  0.00    +0.000 HD
BRANCH  23  25
ATOM     25  C   UNL     1      47.486   8.328  12.415  0.00  0.00    +0.000 A 
ATOM     26  C   UNL     1      46.160   8.633  12.757  0.00  0.00    +0.000 A 
ATOM     27  C   UNL     1      45.197   7.630  12.920  0.00  0.00    +0.000 A 
ATOM     28  C   UNL     1      45.551   6.290  12.772  0.00  0.00    +0.000 A 
ATOM     29  C   UNL     1      46.878   5.961  12.481  0.00  0.00    +0.000 A 
ATOM     30  C   UNL     1      47.831   6.974  12.307  0.00  0.00    +0.000 A 
BRANCH  28  31
ATOM     31  C   UNL     1      44.497   5.257  12.968  0.00  0.00    +0.000 C 
ATOM     32  N   UNL     1      43.197   5.668  12.876  0.00  0.00    +0.000 N 
ATOM     33  O   UNL     1      44.772   4.098  13.240  0.00  0.00    +0.000 OA
ATOM     34  H   UNL     1      42.927   6.640  12.895  0.00  0.00    +0.000 HD
ATOM     35  H   UNL     1      42.495   4.979  13.117  0.00  0.00    +0.000 HD
ENDBRANCH  28  31
ENDBRANCH  23  25
ENDBRANCH  22  23
ENDBRANCH  21  22
ENDBRANCH   3  21
TORSDOF 8
ENDMDL
MODEL 7
REMARK VINA RESULT:    -6.810      3.987      7.289
REMARK INTER + INTRA:         -11.050
REMARK INTER:                  -9.446
REMARK INTRA:                  -1.604
REMARK UNBOUND:                -1.254
REMARK  Name = 
REMARK  9 active torsions:
REMARK  status: ('A' for Active; 'I' for Inactive)
REMARK    1  A    between atoms: C_1  and  C_2
REMARK    2  A    between atoms: C_2  and  O_3
REMARK    3  A    between atoms: N_6  and  C_7
REMARK    4  A    between atoms: C_9  and  C_10
REMARK    5  A    between atoms: C_10  and  C_11
REMARK    6  A    between atoms: C_11  and  N_12
REMARK    7  A    between atoms: N_12  and  C_13
REMARK    8  A    between atoms: C_16  and  C_17
REMARK    9  A    between atoms: C_23  and  C_24
REMARK                            x       y       z     vdW  Elec       q    Type
REMARK                         _______ _______ _______ _____ _____    ______ ____
ROOT
ATOM      1  C   UNL     1      47.071   5.264  13.869  0.00  0.00    +0.000 A 
ATOM      2  C   UNL     1      47.806   6.439  14.100  0.00  0.00    +0.000 A 
ATOM      3  C   UNL     1      48.494   6.665  15.308  0.00  0.00    +0.000 A 
ATOM      4  C   UNL     1      48.438   5.675  16.297  0.00  0.00    +0.000 A 
ATOM      5  C   UNL     1      47.721   4.493  16.110  0.00  0.00    +0.000 A 
ATOM      6  C   UNL     1      47.064   4.297  14.890  0.00  0.00    +0.000 A 
ENDROOT
BRANCH   1  11
ATOM      7  C   UNL     1      44.122   4.595   9.931  0.00  0.00    +0.000 C 
ATOM      8  C   UNL     1      43.940   5.513  11.148  0.00  0.00    +0.000 C 
ATOM      9  C   UNL     1      45.051   6.567  11.252  0.00  0.00    +0.000 C 
ATOM     10  C   UNL     1      46.413   5.944  11.558  0.00  0.00    +0.000 C 
ATOM     11  N   UNL     1      46.348   5.040  12.706  0.00  0.00    +0.000 N 
ATOM     12  C   UNL     1      45.247   4.055  12.756  0.00  0.00    +0.000 C 
ATOM     13  C   UNL     1      43.896   4.706  12.455  0.00  0.00    +0.000 C 
ATOM     14  F   UNL     1      43.592   5.550  13.491  0.00  0.00    +0.000 F 
BRANCH   8  15
ATOM     15  O   UNL     1      42.676   6.170  10.962  0.00  0.00    +0.000 OA
ATOM     16  H   UNL     1      42.071   5.885  11.667  0.00  0.00    +0.000 HD
ENDBRANCH   8  15
ENDBRANCH   1  11
BRANCH   5  17
ATOM     17  C   UNL     1      47.627   3.464  17.203  0.00  0.00    +0.000 C 
ATOM     18  F   UNL     1      46.371   2.957  17.365  0.00  0.00    +0.000 F 
ATOM     19  F   UNL     1      48.432   2.389  16.979  0.00  0.00    +0.000 F 
ATOM     20  F   UNL     1      47.987   3.955  18.421  0.00  0.00    +0.000 F 
ENDBRANCH   5  17
BRANCH   3  21
ATOM     21  C   UNL     1      49.230   7.981  15.515  0.00  0.00    +0.000 C 
BRANCH  21  22
ATOM     22  C   UNL     1      48.628   9.153  14.730  0.00  0.00    +0.000 C 
BRANCH  22  23
ATOM     23  N   UNL     1      49.613   9.906  13.967  0.00  0.00    +0.000 N 
ATOM     24  H   UNL     1      49.309  10.833  13.682  0.00  0.00    +0.000 HD
BRANCH  23  25
ATOM     25  C   UNL     1      50.285   9.236  12.932  0.00  0.00    +0.000 A 
ATOM     26  C   UNL     1      49.641   8.502  11.925  0.00  0.00    +0.000 A 
ATOM     27  C   UNL     1      50.366   7.803  10.952  0.00  0.00    +0.000 A 
ATOM     28  C   UNL     1      51.760   7.802  10.985  0.00  0.00    +0.000 A 
ATOM     29  C   UNL     1      52.420   8.486  12.009  0.00  0.00    +0.000 A 
ATOM     30  C   UNL     1      51.685   9.192  12.971  0.00  0.00    +0.000 A 
BRANCH  28  31
ATOM     31  C   UNL     1      52.488   7.035   9.937  0.00  0.00    +0.000 C 
ATOM     32  N   UNL     1      53.179   5.927  10.341  0.00  0.00    +0.000 N 
ATOM     33  O   UNL     1      52.508   7.396   8.770  0.00  0.00    +0.000 OA
ATOM     34  H   UNL     1      53.387   5.735  11.309  0.00  0.00    +0.000 HD
ATOM     35  H   UNL     1      53.754   5.481   9.637  0.00  0.00    +0.000 HD
ENDBRANCH  28  31
ENDBRANCH  23  25
ENDBRANCH  22  23
ENDBRANCH  21  22
ENDBRANCH   3  21
TORSDOF 8
ENDMDL
MODEL 8
REMARK VINA RESULT:    -6.739      3.071      7.917
REMARK INTER + INTRA:         -10.948
REMARK INTER:                  -9.874
REMARK INTRA:                  -1.074
REMARK UNBOUND:                -1.254
REMARK  Name = 
REMARK  9 active torsions:
REMARK  status: ('A' for Active; 'I' for Inactive)
REMARK    1  A    between atoms: C_1  and  C_2
REMARK    2  A    between atoms: C_2  and  O_3
REMARK    3  A    between atoms: N_6  and  C_7
REMARK    4  A    between atoms: C_9  and  C_10
REMARK    5  A    between atoms: C_10  and  C_11
REMARK    6  A    between atoms: C_11  and  N_12
REMARK    7  A    between atoms: N_12  and  C_13
REMARK    8  A    between atoms: C_16  and  C_17
REMARK    9  A    between atoms: C_23  and  C_24
REMARK                            x       y       z     vdW  Elec       q    Type
REMARK                         _______ _______ _______ _____ _____    ______ ____
ROOT
ATOM      1  C   UNL     1      47.236   6.358  12.594  0.00  0.00    +0.000 A 
ATOM      2  C   UNL     1      47.723   6.112  13.889  0.00  0.00    +0.000 A 
ATOM      3  C   UNL     1      48.631   6.981  14.525  0.00  0.00    +0.000 A 
ATOM      4  C   UNL     1      49.048   8.125  13.831  0.00  0.00    +0.000 A 
ATOM      5  C   UNL     1      48.589   8.408  12.544  0.00  0.00    +0.000 A 
ATOM      6  C   UNL     1      47.674   7.529  11.953  0.00  0.00    +0.000 A 
ENDROOT
BRANCH   1  11
ATOM      7  C   UNL     1      43.855   3.361  10.535  0.00  0.00    +0.000 C 
ATOM      8  C   UNL     1      43.658   4.592  11.432  0.00  0.00    +0.000 C 
ATOM      9  C   UNL     1      44.214   5.873  10.790  0.00  0.00    +0.000 C 
ATOM     10  C   UNL     1      45.736   5.843  10.665  0.00  0.00    +0.000 C 
ATOM     11  N   UNL     1      46.377   5.493  11.932  0.00  0.00    +0.000 N 
ATOM     12  C   UNL     1      45.845   4.338  12.686  0.00  0.00    +0.000 C 
ATOM     13  C   UNL     1      44.322   4.396  12.804  0.00  0.00    +0.000 C 
ATOM     14  F   UNL     1      43.999   5.455  13.611  0.00  0.00    +0.000 F 
BRANCH   8  15
ATOM     15  O   UNL     1      42.239   4.727  11.612  0.00  0.00    +0.000 OA
ATOM     16  H   UNL     1      42.068   5.536  12.124  0.00  0.00    +0.000 HD
ENDBRANCH   8  15
ENDBRANCH   1  11
BRANCH   5  17
ATOM     17  C   UNL     1      49.089   9.612  11.793  0.00  0.00    +0.000 C 
ATOM     18  F   UNL     1      48.131  10.210  11.027  0.00  0.00    +0.000 F 
ATOM     19  F   UNL     1      49.559  10.585  12.620  0.00  0.00    +0.000 F 
ATOM     20  F   UNL     1      50.110   9.316  10.942  0.00  0.00    +0.000 F 
ENDBRANCH   5  17
BRANCH   3  21
ATOM     21  C   UNL     1      49.160   6.631  15.907  0.00  0.00    +0.000 C 
BRANCH  21  22
ATOM     22  C   UNL     1      48.442   5.442  16.558  0.00  0.00    +0.000 C 
BRANCH  22  23
ATOM     23  N   UNL     1      49.077   4.984  17.786  0.00  0.00    +0.000 N 
ATOM     24  H   UNL     1      49.369   5.728  18.414  0.00  0.00    +0.000 HD
BRANCH  23  25
ATOM     25  C   UNL     1      50.053   3.979  17.679  0.00  0.00    +0.000 A 
ATOM     26  C   UNL     1      49.770   2.643  17.358  0.00  0.00    +0.000 A 
ATOM     27  C   UNL     1      50.778   1.671  17.325  0.00  0.00    +0.000 A 
ATOM     28  C   UNL     1      52.092   2.014  17.642  0.00  0.00    +0.000 A 
ATOM     29  C   UNL     1      52.385   3.329  18.012  0.00  0.00    +0.000 A 
ATOM     30  C   UNL     1      51.371   4.297  18.031  0.00  0.00    +0.000 A 
BRANCH  28  31
ATOM     31  C   UNL     1      53.127   0.945  17.604  0.00  0.00    +0.000 C 
ATOM     32  N   UNL     1      52.839  -0.225  18.250  0.00  0.00    +0.000 N 
ATOM     33  O   UNL     1      54.207   1.111  17.057  0.00  0.00    +0.000 OA
ATOM     34  H   UNL     1      52.078  -0.315  18.907  0.00  0.00    +0.000 HD
ATOM     35  H   UNL     1      53.593  -0.898  18.307  0.00  0.00    +0.000 HD
ENDBRANCH  28  31
ENDBRANCH  23  25
ENDBRANCH  22  23
ENDBRANCH  21  22
ENDBRANCH   3  21
TORSDOF 8
ENDMDL
MODEL 9
REMARK VINA RESULT:    -6.675      3.224      7.746
REMARK INTER + INTRA:         -10.856
REMARK INTER:                  -9.840
REMARK INTRA:                  -1.016
REMARK UNBOUND:                -1.254
REMARK  Name = 
REMARK  9 active torsions:
REMARK  status: ('A' for Active; 'I' for Inactive)
REMARK    1  A    between atoms: C_1  and  C_2
REMARK    2  A    between atoms: C_2  and  O_3
REMARK    3  A    between atoms: N_6  and  C_7
REMARK    4  A    between atoms: C_9  and  C_10
REMARK    5  A    between atoms: C_10  and  C_11
REMARK    6  A    between atoms: C_11  and  N_12
REMARK    7  A    between atoms: N_12  and  C_13
REMARK    8  A    between atoms: C_16  and  C_17
REMARK    9  A    between atoms: C_23  and  C_24
REMARK                            x       y       z     vdW  Elec       q    Type
REMARK                         _______ _______ _______ _____ _____    ______ ____
ROOT
ATOM      1  C   UNL     1      47.342   6.425  13.469  0.00  0.00    +0.000 A 
ATOM      2  C   UNL     1      47.932   6.288  14.737  0.00  0.00    +0.000 A 
ATOM      3  C   UNL     1      49.221   6.782  15.020  0.00  0.00    +0.000 A 
ATOM      4  C   UNL     1      49.920   7.431  13.994  0.00  0.00    +0.000 A 
ATOM      5  C   UNL     1      49.372   7.590  12.721  0.00  0.00    +0.000 A 
ATOM      6  C   UNL     1      48.082   7.101  12.484  0.00  0.00    +0.000 A 
ENDROOT
BRANCH   1  11
ATOM      7  C   UNL     1      43.007   4.562  11.923  0.00  0.00    +0.000 C 
ATOM      8  C   UNL     1      44.399   4.472  11.280  0.00  0.00    +0.000 C 
ATOM      9  C   UNL     1      45.407   3.739  12.178  0.00  0.00    +0.000 C 
ATOM     10  C   UNL     1      45.724   4.522  13.451  0.00  0.00    +0.000 C 
ATOM     11  N   UNL     1      46.093   5.907  13.156  0.00  0.00    +0.000 N 
ATOM     12  C   UNL     1      45.246   6.669  12.215  0.00  0.00    +0.000 C 
ATOM     13  C   UNL     1      44.952   5.866  10.947  0.00  0.00    +0.000 C 
ATOM     14  F   UNL     1      46.124   5.727  10.251  0.00  0.00    +0.000 F 
BRANCH   8  15
ATOM     15  O   UNL     1      44.224   3.734  10.060  0.00  0.00    +0.000 OA
ATOM     16  H   UNL     1      45.101   3.516   9.702  0.00  0.00    +0.000 HD
ENDBRANCH   8  15
ENDBRANCH   1  11
BRANCH   5  17
ATOM     17  C   UNL     1      50.158   8.242  11.617  0.00  0.00    +0.000 C 
ATOM     18  F   UNL     1      51.352   8.756  12.030  0.00  0.00    +0.000 F 
ATOM     19  F   UNL     1      50.459   7.376  10.609  0.00  0.00    +0.000 F 
ATOM     20  F   UNL     1      49.492   9.277  11.036  0.00  0.00    +0.000 F 
ENDBRANCH   5  17
BRANCH   3  21
ATOM     21  C   UNL     1      49.823   6.557  16.399  0.00  0.00    +0.000 C 
BRANCH  21  22
ATOM     22  C   UNL     1      48.780   6.483  17.521  0.00  0.00    +0.000 C 
BRANCH  22  23
ATOM     23  N   UNL     1      48.455   5.121  17.921  0.00  0.00    +0.000 N 
ATOM     24  H   UNL     1      47.886   5.050  18.761  0.00  0.00    +0.000 HD
BRANCH  23  25
ATOM     25  C   UNL     1      49.494   4.176  17.915  0.00  0.00    +0.000 A 
ATOM     26  C   UNL     1      50.755   4.393  18.492  0.00  0.00    +0.000 A 
ATOM     27  C   UNL     1      51.774   3.437  18.403  0.00  0.00    +0.000 A 
ATOM     28  C   UNL     1      51.559   2.249  17.705  0.00  0.00    +0.000 A 
ATOM     29  C   UNL     1      50.327   2.036  17.081  0.00  0.00    +0.000 A 
ATOM     30  C   UNL     1      49.310   2.994  17.187  0.00  0.00    +0.000 A 
BRANCH  28  31
ATOM     31  C   UNL     1      52.676   1.268  17.626  0.00  0.00    +0.000 C 
ATOM     32  N   UNL     1      52.436   0.010  18.104  0.00  0.00    +0.000 N 
ATOM     33  O   UNL     1      53.776   1.576  17.193  0.00  0.00    +0.000 OA
ATOM     34  H   UNL     1      51.639  -0.214  18.681  0.00  0.00    +0.000 HD
ATOM     35  H   UNL     1      53.235  -0.611  18.142  0.00  0.00    +0.000 HD
ENDBRANCH  28  31
ENDBRANCH  23  25
ENDBRANCH  22  23
ENDBRANCH  21  22
ENDBRANCH   3  21
TORSDOF 8
ENDMDL
