MODEL 1
REMARK VINA RESULT:    -7.190      0.000      0.000
REMARK INTER + INTRA:          -9.738
REMARK INTER:                  -9.082
REMARK INTRA:                  -0.656
REMARK UNBOUND:                -0.656
REMARK  Name = 
REMARK  5 active torsions:
REMARK  status: ('A' for Active; 'I' for Inactive)
REMARK    1  A    between atoms: N_1  and  C_2
REMARK    2  A    between atoms: C_2  and  C_3
REMARK    3  A    between atoms: C_6  and  C_7
REMARK    4  A    between atoms: C_7  and  N_8
REMARK    5  A    between atoms: C_13  and  C_14
REMARK                            x       y       z     vdW  Elec       q    Type
REMARK                         _______ _______ _______ _____ _____    ______ ____
ROOT
ATOM      1  N   UNL     1      44.572   5.070  10.623  0.00  0.00    +0.000 N 
ATOM      2  C   UNL     1      43.800   4.117  11.249  0.00  0.00    +0.000 A 
ATOM      3  C   UNL     1      44.046   2.905  10.643  0.00  0.00    +0.000 A 
ATOM      4  C   UNL     1      44.929   3.143   9.559  0.00  0.00    +0.000 A 
ATOM      5  C   UNL     1      45.505   2.340   8.562  0.00  0.00    +0.000 A 
ATOM      6  C   UNL     1      46.306   2.965   7.603  0.00  0.00    +0.000 A 
ATOM      7  C   UNL     1      46.519   4.339   7.710  0.00  0.00    +0.000 A 
ATOM      8  N   UNL     1      46.017   5.155   8.675  0.00  0.00    +0.000 NA
ATOM      9  C   UNL     1      45.229   4.505   9.554  0.00  0.00    +0.000 A 
ENDROOT
BRANCH   6  10
ATOM     10  C   UNL     1      46.916   2.237   6.464  0.00  0.00    +0.000 C 
ATOM     11  N   UNL     1      47.237   2.938   5.334  0.00  0.00    +0.000 N 
ATOM     12  O   UNL     1      47.143   1.033   6.522  0.00  0.00    +0.000 OA
ATOM     13  H   UNL     1      47.117   3.930   5.205  0.00  0.00    +0.000 HD
ATOM     14  H   UNL     1      47.679   2.423   4.583  0.00  0.00    +0.000 HD
ENDBRANCH   6  10
BRANCH   1  15
ATOM     15  C   UNL     1      44.680   6.453  11.043  0.00  0.00    +0.000 C 
BRANCH  15  19
ATOM     16  C   UNL     1      47.725   8.495  12.212  0.00  0.00    +0.000 C 
ATOM     17  C   UNL     1      47.800   7.040  11.715  0.00  0.00    +0.000 C 
ATOM     18  C   UNL     1      46.818   6.117  12.441  0.00  0.00    +0.000 C 
ATOM     19  C   UNL     1      45.366   6.632  12.417  0.00  0.00    +0.000 C 
ATOM     20  C   UNL     1      45.298   8.103  12.865  0.00  0.00    +0.000 C 
ATOM     21  C   UNL     1      46.274   8.991  12.096  0.00  0.00    +0.000 C 
BRANCH  16  22
ATOM     22  C   UNL     1      48.315   8.614  13.636  0.00  0.00    +0.000 C 
BRANCH  22  23
ATOM     23  N   UNL     1      48.156   9.945  14.210  0.00  0.00    +0.000 NA
ATOM     24  H   UNL     1      47.542   9.886  15.021  0.00  0.00    +0.000 HD
ATOM     25  H   UNL     1      47.677  10.553  13.548  0.00  0.00    +0.000 HD
ENDBRANCH  22  23
ENDBRANCH  16  22
ENDBRANCH  15  19
ENDBRANCH   1  15
TORSDOF 5
ENDMDL
MODEL 2
REMARK VINA RESULT:    -6.608      2.599      6.812
REMARK INTER + INTRA:          -9.003
REMARK INTER:                  -8.381
REMARK INTRA:                  -0.622
REMARK UNBOUND:                -0.656
REMARK  Name = 
REMARK  5 active torsions:
REMARK  status: ('A' for Active; 'I' for Inactive)
REMARK    1  A    between atoms: N_1  and  C_2
REMARK    2  A    between atoms: C_2  and  C_3
REMARK    3  A    between atoms: C_6  and  C_7
REMARK    4  A    between atoms: C_7  and  N_8
REMARK    5  A    between atoms: C_13  and  C_14
REMARK                            x       y       z     vdW  Elec       q    Type
REMARK                         _______ _______ _______ _____ _____    ______ ____
ROOT
ATOM      1  N   UNL     1      44.299   4.085  11.057  0.00  0.00    +0.000 N 
ATOM      2  C   UNL     1      42.954   4.234  11.310  0.00  0.00    +0.000 A 
ATOM      3  C   UNL     1      42.751   5.508  11.793  0.00  0.00    +0.000 A 
ATOM      4  C   UNL     1      44.023   6.123  11.920  0.00  0.00    +0.000 A 
ATOM      5  C   UNL     1      44.474   7.369  12.382  0.00  0.00    +0.000 A 
ATOM      6  C   UNL     1      45.853   7.596  12.405  0.00  0.00    +0.000 A 
ATOM      7  C   UNL     1      46.699   6.591  11.934  0.00  0.00    +0.000 A 
ATOM      8  N   UNL     1      46.313   5.384  11.442  0.00  0.00    +0.000 NA
ATOM      9  C   UNL     1      44.977   5.208  11.472  0.00  0.00    +0.000 A 
ENDROOT
BRANCH   6  10
ATOM     10  C   UNL     1      46.456   8.844  12.930  0.00  0.00    +0.000 C 
ATOM     11  N   UNL     1      46.885   8.870  14.229  0.00  0.00    +0.000 N 
ATOM     12  O   UNL     1      46.582   9.840  12.225  0.00  0.00    +0.000 OA
ATOM     13  H   UNL     1      46.852   8.095  14.872  0.00  0.00    +0.000 HD
ATOM     14  H   UNL     1      47.319   9.725  14.553  0.00  0.00    +0.000 HD
ENDBRANCH   6  10
BRANCH   1  15
ATOM     15  C   UNL     1      44.899   2.922  10.434  0.00  0.00    +0.000 C 
BRANCH  15  19
ATOM     16  C   UNL     1      47.081   2.978   7.265  0.00  0.00    +0.000 C 
ATOM     17  C   UNL     1      46.428   4.226   7.887  0.00  0.00    +0.000 C 
ATOM     18  C   UNL     1      44.926   4.052   8.120  0.00  0.00    +0.000 C 
ATOM     19  C   UNL     1      44.576   2.788   8.928  0.00  0.00    +0.000 C 
ATOM     20  C   UNL     1      45.270   1.549   8.336  0.00  0.00    +0.000 C 
ATOM     21  C   UNL     1      46.771   1.757   8.147  0.00  0.00    +0.000 C 
BRANCH  16  22
ATOM     22  C   UNL     1      46.643   2.814   5.791  0.00  0.00    +0.000 C 
BRANCH  22  23
ATOM     23  N   UNL     1      47.769   2.691   4.872  0.00  0.00    +0.000 NA
ATOM     24  H   UNL     1      48.584   2.360   5.388  0.00  0.00    +0.000 HD
ATOM     25  H   UNL     1      48.027   3.609   4.514  0.00  0.00    +0.000 HD
ENDBRANCH  22  23
ENDBRANCH  16  22
ENDBRANCH  15  19
ENDBRANCH   1  15
TORSDOF 5
ENDMDL
MODEL 3
REMARK VINA RESULT:    -6.414      1.770      2.139
REMARK INTER + INTRA:          -8.757
REMARK INTER:                  -9.356
REMARK INTRA:                   0.599
REMARK UNBOUND:                -0.656
REMARK  Name = 
REMARK  5 active torsions:
REMARK  status: ('A' for Active; 'I' for Inactive)
REMARK    1  A    between atoms: N_1  and  C_2
REMARK    2  A    between atoms: C_2  and  C_3
REMARK    3  A    between atoms: C_6  and  C_7
REMARK    4  A    between atoms: C_7  and  N_8
REMARK    5  A    between atoms: C_13  and  C_14
REMARK                            x       y       z     vdW  Elec       q    Type
REMARK                         _______ _______ _______ _____ _____    ______ ____
ROOT
ATOM      1  N   UNL     1      44.165   4.621  10.628  0.00  0.00    +0.000 N 
ATOM      2  C   UNL     1      43.529   3.500  11.113  0.00  0.00    +0.000 A 
ATOM      3  C   UNL     1      44.014   2.407  10.429  0.00  0.00    +0.000 A 
ATOM      4  C   UNL     1      44.908   2.887   9.438  0.00  0.00    +0.000 A 
ATOM      5  C   UNL     1      45.671   2.286   8.424  0.00  0.00    +0.000 A 
ATOM      6  C   UNL     1      46.411   3.122   7.583  0.00  0.00    +0.000 A 
ATOM      7  C   UNL     1      46.380   4.497   7.819  0.00  0.00    +0.000 A 
ATOM      8  N   UNL     1      45.690   5.125   8.807  0.00  0.00    +0.000 NA
ATOM      9  C   UNL     1      44.972   4.274   9.568  0.00  0.00    +0.000 A 
ENDROOT
BRANCH   6  10
ATOM     10  C   UNL     1      47.204   2.614   6.438  0.00  0.00    +0.000 C 
ATOM     11  N   UNL     1      48.256   1.777   6.688  0.00  0.00    +0.000 N 
ATOM     12  O   UNL     1      46.929   2.923   5.282  0.00  0.00    +0.000 OA
ATOM     13  H   UNL     1      48.538   1.445   7.596  0.00  0.00    +0.000 HD
ATOM     14  H   UNL     1      48.762   1.423   5.886  0.00  0.00    +0.000 HD
ENDBRANCH   6  10
BRANCH   1  15
ATOM     15  C   UNL     1      44.011   5.957  11.167  0.00  0.00    +0.000 C 
BRANCH  15  19
ATOM     16  C   UNL     1      47.227   5.314  13.179  0.00  0.00    +0.000 C 
ATOM     17  C   UNL     1      46.151   4.247  12.905  0.00  0.00    +0.000 C 
ATOM     18  C   UNL     1      44.747   4.712  13.298  0.00  0.00    +0.000 C 
ATOM     19  C   UNL     1      44.354   6.063  12.671  0.00  0.00    +0.000 C 
ATOM     20  C   UNL     1      45.453   7.115  12.900  0.00  0.00    +0.000 C 
ATOM     21  C   UNL     1      46.832   6.620  12.469  0.00  0.00    +0.000 C 
BRANCH  16  22
ATOM     22  C   UNL     1      47.460   5.473  14.699  0.00  0.00    +0.000 C 
BRANCH  22  23
ATOM     23  N   UNL     1      47.939   4.250  15.333  0.00  0.00    +0.000 NA
ATOM     24  H   UNL     1      47.138   3.676  15.594  0.00  0.00    +0.000 HD
ATOM     25  H   UNL     1      48.411   4.475  16.208  0.00  0.00    +0.000 HD
ENDBRANCH  22  23
ENDBRANCH  16  22
ENDBRANCH  15  19
ENDBRANCH   1  15
TORSDOF 5
ENDMDL
MODEL 4
REMARK VINA RESULT:    -5.912      4.631      6.124
REMARK INTER + INTRA:          -8.123
REMARK INTER:                  -7.683
REMARK INTRA:                  -0.441
REMARK UNBOUND:                -0.656
REMARK  Name = 
REMARK  5 active torsions:
REMARK  status: ('A' for Active; 'I' for Inactive)
REMARK    1  A    between atoms: N_1  and  C_2
REMARK    2  A    between atoms: C_2  and  C_3
REMARK    3  A    between atoms: C_6  and  C_7
REMARK    4  A    between atoms: C_7  and  N_8
REMARK    5  A    between atoms: C_13  and  C_14
REMARK                            x       y       z     vdW  Elec       q    Type
REMARK                         _______ _______ _______ _____ _____    ______ ____
ROOT
ATOM      1  N   UNL     1      47.424   5.355  14.588  0.00  0.00    +0.000 N 
ATOM      2  C   UNL     1      47.998   6.529  14.157  0.00  0.00    +0.000 A 
ATOM      3  C   UNL     1      47.446   6.848  12.935  0.00  0.00    +0.000 A 
ATOM      4  C   UNL     1      46.574   5.789  12.573  0.00  0.00    +0.000 A 
ATOM      5  C   UNL     1      45.770   5.513  11.456  0.00  0.00    +0.000 A 
ATOM      6  C   UNL     1      45.073   4.302  11.438  0.00  0.00    +0.000 A 
ATOM      7  C   UNL     1      45.184   3.456  12.542  0.00  0.00    +0.000 A 
ATOM      8  N   UNL     1      45.916   3.692  13.662  0.00  0.00    +0.000 NA
ATOM      9  C   UNL     1      46.590   4.859  13.612  0.00  0.00    +0.000 A 
ENDROOT
BRANCH   6  10
ATOM     10  C   UNL     1      44.244   3.866  10.288  0.00  0.00    +0.000 C 
ATOM     11  N   UNL     1      44.178   4.672   9.185  0.00  0.00    +0.000 N 
ATOM     12  O   UNL     1      43.631   2.803  10.308  0.00  0.00    +0.000 OA
ATOM     13  H   UNL     1      44.668   5.543   9.065  0.00  0.00    +0.000 HD
ATOM     14  H   UNL     1      43.628   4.337   8.404  0.00  0.00    +0.000 HD
ENDBRANCH   6  10
BRANCH   1  15
ATOM     15  C   UNL     1      47.657   4.747  15.883  0.00  0.00    +0.000 C 
BRANCH  15  19
ATOM     16  C   UNL     1      48.634   4.604  19.603  0.00  0.00    +0.000 C 
ATOM     17  C   UNL     1      47.612   5.594  19.015  0.00  0.00    +0.000 C 
ATOM     18  C   UNL     1      48.164   6.371  17.817  0.00  0.00    +0.000 C 
ATOM     19  C   UNL     1      48.745   5.463  16.717  0.00  0.00    +0.000 C 
ATOM     20  C   UNL     1      49.728   4.439  17.313  0.00  0.00    +0.000 C 
ATOM     21  C   UNL     1      49.126   3.669  18.486  0.00  0.00    +0.000 C 
BRANCH  16  22
ATOM     22  C   UNL     1      49.768   5.362  20.330  0.00  0.00    +0.000 C 
BRANCH  22  23
ATOM     23  N   UNL     1      50.835   4.483  20.794  0.00  0.00    +0.000 NA
ATOM     24  H   UNL     1      51.226   3.986  19.994  0.00  0.00    +0.000 HD
ATOM     25  H   UNL     1      50.451   3.762  21.402  0.00  0.00    +0.000 HD
ENDBRANCH  22  23
ENDBRANCH  16  22
ENDBRANCH  15  19
ENDBRANCH   1  15
TORSDOF 5
ENDMDL
MODEL 5
REMARK VINA RESULT:    -5.892      3.041      6.911
REMARK INTER + INTRA:          -8.098
REMARK INTER:                  -8.308
REMARK INTRA:                   0.210
REMARK UNBOUND:                -0.656
REMARK  Name = 
REMARK  5 active torsions:
REMARK  status: ('A' for Active; 'I' for Inactive)
REMARK    1  A    between atoms: N_1  and  C_2
REMARK    2  A    between atoms: C_2  and  C_3
REMARK    3  A    between atoms: C_6  and  C_7
REMARK    4  A    between atoms: C_7  and  N_8
REMARK    5  A    between atoms: C_13  and  C_14
REMARK                            x       y       z     vdW  Elec       q    Type
REMARK                         _______ _______ _______ _____ _____    ______ ____
ROOT
ATOM      1  N   UNL     1      44.516   3.981  11.171  0.00  0.00    +0.000 N 
ATOM      2  C   UNL     1      43.840   5.136  10.850  0.00  0.00    +0.000 A 
ATOM      3  C   UNL     1      44.385   6.165  11.586  0.00  0.00    +0.000 A 
ATOM      4  C   UNL     1      45.365   5.603  12.445  0.00  0.00    +0.000 A 
ATOM      5  C   UNL     1      46.217   6.114  13.436  0.00  0.00    +0.000 A 
ATOM      6  C   UNL     1      47.029   5.210  14.127  0.00  0.00    +0.000 A 
ATOM      7  C   UNL     1      46.976   3.863  13.768  0.00  0.00    +0.000 A 
ATOM      8  N   UNL     1      46.199   3.323  12.792  0.00  0.00    +0.000 NA
ATOM      9  C   UNL     1      45.416   4.234  12.182  0.00  0.00    +0.000 A 
ENDROOT
BRANCH   6  10
ATOM     10  C   UNL     1      47.922   5.616  15.239  0.00  0.00    +0.000 C 
ATOM     11  N   UNL     1      47.605   5.227  16.511  0.00  0.00    +0.000 N 
ATOM     12  O   UNL     1      48.934   6.279  15.036  0.00  0.00    +0.000 OA
ATOM     13  H   UNL     1      46.815   4.658  16.770  0.00  0.00    +0.000 HD
ATOM     14  H   UNL     1      48.247   5.493  17.246  0.00  0.00    +0.000 HD
ENDBRANCH   6  10
BRANCH   1  15
ATOM     15  C   UNL     1      44.314   2.698  10.527  0.00  0.00    +0.000 C 
BRANCH  15  19
ATOM     16  C   UNL     1      46.821   2.807   7.609  0.00  0.00    +0.000 C 
ATOM     17  C   UNL     1      46.279   4.055   8.330  0.00  0.00    +0.000 C 
ATOM     18  C   UNL     1      44.750   4.080   8.397  0.00  0.00    +0.000 C 
ATOM     19  C   UNL     1      44.145   2.795   8.993  0.00  0.00    +0.000 C 
ATOM     20  C   UNL     1      44.726   1.546   8.307  0.00  0.00    +0.000 C 
ATOM     21  C   UNL     1      46.253   1.549   8.287  0.00  0.00    +0.000 C 
BRANCH  16  22
ATOM     22  C   UNL     1      46.531   2.886   6.093  0.00  0.00    +0.000 C 
BRANCH  22  23
ATOM     23  N   UNL     1      47.742   2.943   5.283  0.00  0.00    +0.000 NA
ATOM     24  H   UNL     1      47.758   2.142   4.653  0.00  0.00    +0.000 HD
ATOM     25  H   UNL     1      48.563   2.839   5.878  0.00  0.00    +0.000 HD
ENDBRANCH  22  23
ENDBRANCH  16  22
ENDBRANCH  15  19
ENDBRANCH   1  15
TORSDOF 5
ENDMDL
MODEL 6
REMARK VINA RESULT:    -5.858      4.885      8.308
REMARK INTER + INTRA:          -8.055
REMARK INTER:                  -7.553
REMARK INTRA:                  -0.502
REMARK UNBOUND:                -0.656
REMARK  Name = 
REMARK  5 active torsions:
REMARK  status: ('A' for Active; 'I' for Inactive)
REMARK    1  A    between atoms: N_1  and  C_2
REMARK    2  A    between atoms: C_2  and  C_3
REMARK    3  A    between atoms: C_6  and  C_7
REMARK    4  A    between atoms: C_7  and  N_8
REMARK    5  A    between atoms: C_13  and  C_14
REMARK                            x       y       z     vdW  Elec       q    Type
REMARK                         _______ _______ _______ _____ _____    ______ ____
ROOT
ATOM      1  N   UNL     1      48.092   6.595  14.271  0.00  0.00    +0.000 N 
ATOM      2  C   UNL     1      48.489   7.904  14.426  0.00  0.00    +0.000 A 
ATOM      3  C   UNL     1      49.051   8.031  15.678  0.00  0.00    +0.000 A 
ATOM      4  C   UNL     1      48.912   6.782  16.336  0.00  0.00    +0.000 A 
ATOM      5  C   UNL     1      49.239   6.298  17.613  0.00  0.00    +0.000 A 
ATOM      6  C   UNL     1      48.883   4.983  17.922  0.00  0.00    +0.000 A 
ATOM      7  C   UNL     1      48.260   4.215  16.939  0.00  0.00    +0.000 A 
ATOM      8  N   UNL     1      47.955   4.621  15.678  0.00  0.00    +0.000 NA
ATOM      9  C   UNL     1      48.293   5.906  15.445  0.00  0.00    +0.000 A 
ENDROOT
BRANCH   6  10
ATOM     10  C   UNL     1      49.116   4.378  19.256  0.00  0.00    +0.000 C 
ATOM     11  N   UNL     1      48.422   3.249  19.594  0.00  0.00    +0.000 N 
ATOM     12  O   UNL     1      49.918   4.864  20.048  0.00  0.00    +0.000 OA
ATOM     13  H   UNL     1      47.768   2.763  19.001  0.00  0.00    +0.000 HD
ATOM     14  H   UNL     1      48.621   2.841  20.499  0.00  0.00    +0.000 HD
ENDBRANCH   6  10
BRANCH   1  15
ATOM     15  C   UNL     1      47.557   6.033  13.046  0.00  0.00    +0.000 C 
BRANCH  15  19
ATOM     16  C   UNL     1      44.946   4.189  10.904  0.00  0.00    +0.000 C 
ATOM     17  C   UNL     1      45.643   5.496  10.482  0.00  0.00    +0.000 C 
ATOM     18  C   UNL     1      45.539   6.590  11.546  0.00  0.00    +0.000 C 
ATOM     19  C   UNL     1      46.018   6.136  12.938  0.00  0.00    +0.000 C 
ATOM     20  C   UNL     1      45.360   4.803  13.337  0.00  0.00    +0.000 C 
ATOM     21  C   UNL     1      45.513   3.733  12.259  0.00  0.00    +0.000 C 
BRANCH  16  22
ATOM     22  C   UNL     1      43.411   4.365  10.894  0.00  0.00    +0.000 C 
BRANCH  22  23
ATOM     23  N   UNL     1      42.703   3.224  11.462  0.00  0.00    +0.000 NA
ATOM     24  H   UNL     1      41.922   2.980  10.852  0.00  0.00    +0.000 HD
ATOM     25  H   UNL     1      42.283   3.484  12.353  0.00  0.00    +0.000 HD
ENDBRANCH  22  23
ENDBRANCH  16  22
ENDBRANCH  15  19
ENDBRANCH   1  15
TORSDOF 5
ENDMDL
MODEL 7
REMARK VINA RESULT:    -5.326      2.918      4.487
REMARK INTER + INTRA:          -7.383
REMARK INTER:                  -6.815
REMARK INTRA:                  -0.568
REMARK UNBOUND:                -0.656
REMARK  Name = 
REMARK  5 active torsions:
REMARK  status: ('A' for Active; 'I' for Inactive)
REMARK    1  A    between atoms: N_1  and  C_2
REMARK    2  A    between atoms: C_2  and  C_3
REMARK    3  A    between atoms: C_6  and  C_7
REMARK    4  A    between atoms: C_7  and  N_8
REMARK    5  A    between atoms: C_13  and  C_14
REMARK                            x       y       z     vdW  Elec       q    Type
REMARK                         _______ _______ _______ _____ _____    ______ ____
ROOT
ATOM      1  N   UNL     1      47.485   6.217  13.977  0.00  0.00    +0.000 N 
ATOM      2  C   UNL     1      47.559   5.295  14.996  0.00  0.00    +0.000 A 
ATOM      3  C   UNL     1      46.866   4.171  14.603  0.00  0.00    +0.000 A 
ATOM      4  C   UNL     1      46.278   4.452  13.342  0.00  0.00    +0.000 A 
ATOM      5  C   UNL     1      45.442   3.745  12.464  0.00  0.00    +0.000 A 
ATOM      6  C   UNL     1      45.014   4.397  11.305  0.00  0.00    +0.000 A 
ATOM      7  C   UNL     1      45.468   5.694  11.067  0.00  0.00    +0.000 A 
ATOM      8  N   UNL     1      46.306   6.409  11.863  0.00  0.00    +0.000 NA
ATOM      9  C   UNL     1      46.663   5.743  12.980  0.00  0.00    +0.000 A 
ENDROOT
BRANCH   6  10
ATOM     10  C   UNL     1      44.079   3.781  10.333  0.00  0.00    +0.000 C 
ATOM     11  N   UNL     1      43.926   4.369   9.107  0.00  0.00    +0.000 N 
ATOM     12  O   UNL     1      43.454   2.760  10.604  0.00  0.00    +0.000 OA
ATOM     13  H   UNL     1      44.416   5.187   8.784  0.00  0.00    +0.000 HD
ATOM     14  H   UNL     1      43.304   3.912   8.453  0.00  0.00    +0.000 HD
ENDBRANCH   6  10
BRANCH   1  15
ATOM     15  C   UNL     1      48.181   7.488  13.960  0.00  0.00    +0.000 C 
BRANCH  15  19
ATOM     16  C   UNL     1      50.473  10.052  12.233  0.00  0.00    +0.000 C 
ATOM     17  C   UNL     1      49.493   9.128  11.486  0.00  0.00    +0.000 C 
ATOM     18  C   UNL     1      49.668   7.655  11.864  0.00  0.00    +0.000 C 
ATOM     19  C   UNL     1      49.613   7.403  13.382  0.00  0.00    +0.000 C 
ATOM     20  C   UNL     1      50.554   8.362  14.132  0.00  0.00    +0.000 C 
ATOM     21  C   UNL     1      50.326   9.822  13.746  0.00  0.00    +0.000 C 
BRANCH  16  22
ATOM     22  C   UNL     1      51.913   9.855  11.706  0.00  0.00    +0.000 C 
BRANCH  22  23
ATOM     23  N   UNL     1      52.007   9.950  10.254  0.00  0.00    +0.000 NA
ATOM     24  H   UNL     1      51.478  10.763   9.940  0.00  0.00    +0.000 HD
ATOM     25  H   UNL     1      51.554   9.146   9.823  0.00  0.00    +0.000 HD
ENDBRANCH  22  23
ENDBRANCH  16  22
ENDBRANCH  15  19
ENDBRANCH   1  15
TORSDOF 5
ENDMDL
MODEL 8
REMARK VINA RESULT:    -5.239      3.962      7.093
REMARK INTER + INTRA:          -7.273
REMARK INTER:                  -6.887
REMARK INTRA:                  -0.386
REMARK UNBOUND:                -0.656
REMARK  Name = 
REMARK  5 active torsions:
REMARK  status: ('A' for Active; 'I' for Inactive)
REMARK    1  A    between atoms: N_1  and  C_2
REMARK    2  A    between atoms: C_2  and  C_3
REMARK    3  A    between atoms: C_6  and  C_7
REMARK    4  A    between atoms: C_7  and  N_8
REMARK    5  A    between atoms: C_13  and  C_14
REMARK                            x       y       z     vdW  Elec       q    Type
REMARK                         _______ _______ _______ _____ _____    ______ ____
ROOT
ATOM      1  N   UNL     1      47.460   7.748  12.309  0.00  0.00    +0.000 N 
ATOM      2  C   UNL     1      46.607   8.807  12.523  0.00  0.00    +0.000 A 
ATOM      3  C   UNL     1      47.250   9.958  12.124  0.00  0.00    +0.000 A 
ATOM      4  C   UNL     1      48.566   9.598  11.736  0.00  0.00    +0.000 A 
ATOM      5  C   UNL     1      49.690  10.308  11.284  0.00  0.00    +0.000 A 
ATOM      6  C   UNL     1      50.864   9.588  11.049  0.00  0.00    +0.000 A 
ATOM      7  C   UNL     1      50.845   8.206  11.238  0.00  0.00    +0.000 A 
ATOM      8  N   UNL     1      49.776   7.467  11.637  0.00  0.00    +0.000 NA
ATOM      9  C   UNL     1      48.681   8.215  11.878  0.00  0.00    +0.000 A 
ENDROOT
BRANCH   6  10
ATOM     10  C   UNL     1      52.134  10.232  10.633  0.00  0.00    +0.000 C 
ATOM     11  N   UNL     1      52.727   9.822   9.471  0.00  0.00    +0.000 N 
ATOM     12  O   UNL     1      52.650  11.121  11.303  0.00  0.00    +0.000 OA
ATOM     13  H   UNL     1      52.364   9.124   8.842  0.00  0.00    +0.000 HD
ATOM     14  H   UNL     1      53.577  10.297   9.196  0.00  0.00    +0.000 HD
ENDBRANCH   6  10
BRANCH   1  15
ATOM     15  C   UNL     1      47.112   6.354  12.498  0.00  0.00    +0.000 C 
BRANCH  15  19
ATOM     16  C   UNL     1      44.864   3.519  11.186  0.00  0.00    +0.000 C 
ATOM     17  C   UNL     1      45.203   4.793  10.389  0.00  0.00    +0.000 C 
ATOM     18  C   UNL     1      44.919   6.074  11.177  0.00  0.00    +0.000 C 
ATOM     19  C   UNL     1      45.588   6.099  12.564  0.00  0.00    +0.000 C 
ATOM     20  C   UNL     1      45.293   4.803  13.339  0.00  0.00    +0.000 C 
ATOM     21  C   UNL     1      45.616   3.551  12.527  0.00  0.00    +0.000 C 
BRANCH  16  22
ATOM     22  C   UNL     1      43.334   3.359  11.330  0.00  0.00    +0.000 C 
BRANCH  22  23
ATOM     23  N   UNL     1      42.938   2.023  11.759  0.00  0.00    +0.000 NA
ATOM     24  H   UNL     1      41.973   2.052  12.087  0.00  0.00    +0.000 HD
ATOM     25  H   UNL     1      43.493   1.739  12.565  0.00  0.00    +0.000 HD
ENDBRANCH  22  23
ENDBRANCH  16  22
ENDBRANCH  15  19
ENDBRANCH   1  15
TORSDOF 5
ENDMDL
MODEL 9
REMARK VINA RESULT:    -4.990      4.236      7.925
REMARK INTER + INTRA:          -6.959
REMARK INTER:                  -6.439
REMARK INTRA:                  -0.520
REMARK UNBOUND:                -0.656
REMARK  Name = 
REMARK  5 active torsions:
REMARK  status: ('A' for Active; 'I' for Inactive)
REMARK    1  A    between atoms: N_1  and  C_2
REMARK    2  A    between atoms: C_2  and  C_3
REMARK    3  A    between atoms: C_6  and  C_7
REMARK    4  A    between atoms: C_7  and  N_8
REMARK    5  A    between atoms: C_13  and  C_14
REMARK                            x       y       z     vdW  Elec       q    Type
REMARK                         _______ _______ _______ _____ _____    ______ ____
ROOT
ATOM      1  N   UNL     1      47.729   7.466  13.076  0.00  0.00    +0.000 N 
ATOM      2  C   UNL     1      48.289   8.327  12.160  0.00  0.00    +0.000 A 
ATOM      3  C   UNL     1      49.593   8.560  12.538  0.00  0.00    +0.000 A 
ATOM      4  C   UNL     1      49.806   7.889  13.770  0.00  0.00    +0.000 A 
ATOM      5  C   UNL     1      50.887   7.778  14.659  0.00  0.00    +0.000 A 
ATOM      6  C   UNL     1      50.691   7.050  15.835  0.00  0.00    +0.000 A 
ATOM      7  C   UNL     1      49.452   6.444  16.042  0.00  0.00    +0.000 A 
ATOM      8  N   UNL     1      48.387   6.488  15.198  0.00  0.00    +0.000 NA
ATOM      9  C   UNL     1      48.622   7.228  14.096  0.00  0.00    +0.000 A 
ENDROOT
BRANCH   6  10
ATOM     10  C   UNL     1      51.733   6.915  16.882  0.00  0.00    +0.000 C 
ATOM     11  N   UNL     1      52.837   7.720  16.816  0.00  0.00    +0.000 N 
ATOM     12  O   UNL     1      51.617   6.109  17.800  0.00  0.00    +0.000 OA
ATOM     13  H   UNL     1      53.005   8.429  16.121  0.00  0.00    +0.000 HD
ATOM     14  H   UNL     1      53.518   7.627  17.559  0.00  0.00    +0.000 HD
ENDBRANCH   6  10
BRANCH   1  15
ATOM     15  C   UNL     1      46.403   6.891  12.968  0.00  0.00    +0.000 C 
BRANCH  15  19
ATOM     16  C   UNL     1      43.534   4.590  11.834  0.00  0.00    +0.000 C 
ATOM     17  C   UNL     1      44.284   4.442  13.171  0.00  0.00    +0.000 C 
ATOM     18  C   UNL     1      45.803   4.386  12.991  0.00  0.00    +0.000 C 
ATOM     19  C   UNL     1      46.364   5.565  12.173  0.00  0.00    +0.000 C 
ATOM     20  C   UNL     1      45.580   5.745  10.862  0.00  0.00    +0.000 C 
ATOM     21  C   UNL     1      44.072   5.824  11.090  0.00  0.00    +0.000 C 
BRANCH  16  22
ATOM     22  C   UNL     1      43.616   3.281  11.017  0.00  0.00    +0.000 C 
BRANCH  22  23
ATOM     23  N   UNL     1      43.029   2.139  11.710  0.00  0.00    +0.000 NA
ATOM     24  H   UNL     1      42.092   1.975  11.344  0.00  0.00    +0.000 HD
ATOM     25  H   UNL     1      42.903   2.359  12.697  0.00  0.00    +0.000 HD
ENDBRANCH  22  23
ENDBRANCH  16  22
ENDBRANCH  15  19
ENDBRANCH   1  15
TORSDOF 5
ENDMDL
