MODEL 1
REMARK VINA RESULT:    -8.836      0.000      0.000
REMARK INTER + INTRA:         -11.952
REMARK INTER:                 -11.419
REMARK INTRA:                  -0.533
REMARK UNBOUND:                -0.533
REMARK  Name = 
REMARK  5 active torsions:
REMARK  status: ('A' for Active; 'I' for Inactive)
REMARK    1  A    between atoms: C_2  and  C_4
REMARK    2  A    between atoms: C_7  and  O_8
REMARK    3  A    between atoms: O_8  and  C_9
REMARK    4  A    between atoms: C_9  and  C_10
REMARK    5  A    between atoms: C_15  and  C_16
REMARK                            x       y       z     vdW  Elec       q    Type
REMARK                         _______ _______ _______ _____ _____    ______ ____
ROOT
ATOM      1  C   UNL     1      44.705   4.882  12.035  0.00  0.00    +0.000 A 
ATOM      2  C   UNL     1      45.370   3.938  12.823  0.00  0.00    +0.000 A 
ATOM      3  C   UNL     1      46.547   4.284  13.466  0.00  0.00    +0.000 A 
ATOM      4  F   UNL     1      47.174   3.375  14.223  0.00  0.00    +0.000 F 
ATOM      5  C   UNL     1      47.104   5.547  13.311  0.00  0.00    +0.000 A 
ATOM      6  C   UNL     1      46.509   6.496  12.469  0.00  0.00    +0.000 A 
ATOM      7  C   UNL     1      45.276   6.155  11.874  0.00  0.00    +0.000 A 
ENDROOT
BRANCH   6   8
ATOM      8  C   UNL     1      47.140   7.852  12.155  0.00  0.00    +0.000 C 
ATOM      9  C   UNL     1      48.635   7.724  11.784  0.00  0.00    +0.000 C 
ATOM     10  C   UNL     1      49.505   7.459  13.012  0.00  0.00    +0.000 C 
ATOM     11  N   UNL     1      49.366   8.515  14.015  0.00  0.00    +0.000 NA
ATOM     12  C   UNL     1      47.975   8.681  14.432  0.00  0.00    +0.000 C 
ATOM     13  C   UNL     1      47.027   8.930  13.253  0.00  0.00    +0.000 C 
ATOM     14  H   UNL     1      49.708   9.393  13.628  0.00  0.00    +0.000 HD
ENDBRANCH   6   8
BRANCH   1  15
ATOM     15  C   UNL     1      43.466   4.466  11.282  0.00  0.00    +0.000 C 
BRANCH  15  16
ATOM     16  O   UNL     1      43.608   4.670   9.877  0.00  0.00    +0.000 OA
BRANCH  16  20
ATOM     17  C   UNL     1      46.347   2.300   7.804  0.00  0.00    +0.000 A 
ATOM     18  C   UNL     1      45.484   1.681   8.713  0.00  0.00    +0.000 A 
ATOM     19  C   UNL     1      44.552   2.441   9.425  0.00  0.00    +0.000 A 
ATOM     20  C   UNL     1      44.481   3.826   9.242  0.00  0.00    +0.000 A 
ATOM     21  C   UNL     1      45.360   4.444   8.348  0.00  0.00    +0.000 A 
ATOM     22  C   UNL     1      46.294   3.689   7.636  0.00  0.00    +0.000 A 
BRANCH  17  24
ATOM     23  N   UNL     1      48.433   2.204   6.555  0.00  0.00    +0.000 N 
ATOM     24  C   UNL     1      47.345   1.521   7.027  0.00  0.00    +0.000 C 
ATOM     25  O   UNL     1      47.224   0.318   6.845  0.00  0.00    +0.000 OA
ATOM     26  H   UNL     1      49.157   1.645   6.127  0.00  0.00    +0.000 HD
ATOM     27  H   UNL     1      48.689   3.116   6.903  0.00  0.00    +0.000 HD
ENDBRANCH  17  24
ENDBRANCH  16  20
ENDBRANCH  15  16
ENDBRANCH   1  15
TORSDOF 5
ENDMDL
MODEL 2
REMARK VINA RESULT:    -8.261      1.862      2.628
REMARK INTER + INTRA:         -11.209
REMARK INTER:                 -10.640
REMARK INTRA:                  -0.569
REMARK UNBOUND:                -0.533
REMARK  Name = 
REMARK  5 active torsions:
REMARK  status: ('A' for Active; 'I' for Inactive)
REMARK    1  A    between atoms: C_2  and  C_4
REMARK    2  A    between atoms: C_7  and  O_8
REMARK    3  A    between atoms: O_8  and  C_9
REMARK    4  A    between atoms: C_9  and  C_10
REMARK    5  A    between atoms: C_15  and  C_16
REMARK                            x       y       z     vdW  Elec       q    Type
REMARK                         _______ _______ _______ _____ _____    ______ ____
ROOT
ATOM      1  C   UNL     1      44.600   4.954  11.638  0.00  0.00    +0.000 A 
ATOM      2  C   UNL     1      43.668   5.913  11.230  0.00  0.00    +0.000 A 
ATOM      3  C   UNL     1      43.942   7.259  11.410  0.00  0.00    +0.000 A 
ATOM      4  F   UNL     1      43.046   8.171  11.011  0.00  0.00    +0.000 F 
ATOM      5  C   UNL     1      45.115   7.677  12.026  0.00  0.00    +0.000 A 
ATOM      6  C   UNL     1      46.038   6.744  12.518  0.00  0.00    +0.000 A 
ATOM      7  C   UNL     1      45.780   5.380  12.269  0.00  0.00    +0.000 A 
ENDROOT
BRANCH   6   8
ATOM      8  C   UNL     1      47.280   7.135  13.319  0.00  0.00    +0.000 C 
ATOM      9  C   UNL     1      47.305   8.645  13.648  0.00  0.00    +0.000 C 
ATOM     10  C   UNL     1      47.672   9.487  12.426  0.00  0.00    +0.000 C 
ATOM     11  N   UNL     1      48.974   9.110  11.876  0.00  0.00    +0.000 NA
ATOM     12  C   UNL     1      49.019   7.693  11.521  0.00  0.00    +0.000 C 
ATOM     13  C   UNL     1      48.641   6.775  12.690  0.00  0.00    +0.000 C 
ATOM     14  H   UNL     1      49.699   9.306  12.565  0.00  0.00    +0.000 HD
ENDBRANCH   6   8
BRANCH   1  15
ATOM     15  C   UNL     1      44.253   3.492  11.504  0.00  0.00    +0.000 C 
BRANCH  15  16
ATOM     16  O   UNL     1      43.737   3.189  10.209  0.00  0.00    +0.000 OA
BRANCH  16  20
ATOM     17  C   UNL     1      46.616   2.557   7.256  0.00  0.00    +0.000 A 
ATOM     18  C   UNL     1      46.072   3.837   7.393  0.00  0.00    +0.000 A 
ATOM     19  C   UNL     1      45.106   4.087   8.371  0.00  0.00    +0.000 A 
ATOM     20  C   UNL     1      44.669   3.060   9.214  0.00  0.00    +0.000 A 
ATOM     21  C   UNL     1      45.201   1.777   9.060  0.00  0.00    +0.000 A 
ATOM     22  C   UNL     1      46.164   1.521   8.083  0.00  0.00    +0.000 A 
BRANCH  17  24
ATOM     23  N   UNL     1      47.730   3.115   5.166  0.00  0.00    +0.000 N 
ATOM     24  C   UNL     1      47.648   2.258   6.230  0.00  0.00    +0.000 C 
ATOM     25  O   UNL     1      48.414   1.312   6.342  0.00  0.00    +0.000 OA
ATOM     26  H   UNL     1      48.504   2.967   4.535  0.00  0.00    +0.000 HD
ATOM     27  H   UNL     1      47.302   4.029   5.176  0.00  0.00    +0.000 HD
ENDBRANCH  17  24
ENDBRANCH  16  20
ENDBRANCH  15  16
ENDBRANCH   1  15
TORSDOF 5
ENDMDL
MODEL 3
REMARK VINA RESULT:    -7.289      4.932      7.803
REMARK INTER + INTRA:          -9.952
REMARK INTER:                  -9.635
REMARK INTRA:                  -0.317
REMARK UNBOUND:                -0.533
REMARK  Name = 
REMARK  5 active torsions:
REMARK  status: ('A' for Active; 'I' for Inactive)
REMARK    1  A    between atoms: C_2  and  C_4
REMARK    2  A    between atoms: C_7  and  O_8
REMARK    3  A    between atoms: O_8  and  C_9
REMARK    4  A    between atoms: C_9  and  C_10
REMARK    5  A    between atoms: C_15  and  C_16
REMARK                            x       y       z     vdW  Elec       q    Type
REMARK                         _______ _______ _______ _____ _____    ______ ____
ROOT
ATOM      1  C   UNL     1      46.564   5.019  13.931  0.00  0.00    +0.000 A 
ATOM      2  C   UNL     1      47.586   5.878  13.515  0.00  0.00    +0.000 A 
ATOM      3  C   UNL     1      47.453   6.579  12.327  0.00  0.00    +0.000 A 
ATOM      4  F   UNL     1      48.434   7.404  11.939  0.00  0.00    +0.000 F 
ATOM      5  C   UNL     1      46.337   6.414  11.517  0.00  0.00    +0.000 A 
ATOM      6  C   UNL     1      45.328   5.505  11.862  0.00  0.00    +0.000 A 
ATOM      7  C   UNL     1      45.441   4.848  13.106  0.00  0.00    +0.000 A 
ENDROOT
BRANCH   6   8
ATOM      8  C   UNL     1      44.142   5.184  10.953  0.00  0.00    +0.000 C 
ATOM      9  C   UNL     1      43.035   4.405  11.698  0.00  0.00    +0.000 C 
ATOM     10  C   UNL     1      43.421   2.944  11.924  0.00  0.00    +0.000 C 
ATOM     11  N   UNL     1      43.706   2.254  10.665  0.00  0.00    +0.000 NA
ATOM     12  C   UNL     1      44.762   2.926   9.911  0.00  0.00    +0.000 C 
ATOM     13  C   UNL     1      44.463   4.408   9.658  0.00  0.00    +0.000 C 
ATOM     14  H   UNL     1      42.858   2.224  10.101  0.00  0.00    +0.000 HD
ENDBRANCH   6   8
BRANCH   1  15
ATOM     15  C   UNL     1      46.757   4.206  15.188  0.00  0.00    +0.000 C 
BRANCH  15  16
ATOM     16  O   UNL     1      47.554   4.899  16.147  0.00  0.00    +0.000 OA
BRANCH  16  20
ATOM     17  C   UNL     1      50.813   2.644  17.451  0.00  0.00    +0.000 A 
ATOM     18  C   UNL     1      50.898   4.037  17.519  0.00  0.00    +0.000 A 
ATOM     19  C   UNL     1      49.826   4.826  17.092  0.00  0.00    +0.000 A 
ATOM     20  C   UNL     1      48.666   4.230  16.587  0.00  0.00    +0.000 A 
ATOM     21  C   UNL     1      48.594   2.837  16.501  0.00  0.00    +0.000 A 
ATOM     22  C   UNL     1      49.663   2.045  16.924  0.00  0.00    +0.000 A 
BRANCH  17  24
ATOM     23  N   UNL     1      51.677   0.434  17.996  0.00  0.00    +0.000 N 
ATOM     24  C   UNL     1      51.932   1.776  17.901  0.00  0.00    +0.000 C 
ATOM     25  O   UNL     1      53.042   2.228  18.143  0.00  0.00    +0.000 OA
ATOM     26  H   UNL     1      52.471  -0.156  18.193  0.00  0.00    +0.000 HD
ATOM     27  H   UNL     1      50.872   0.007  17.562  0.00  0.00    +0.000 HD
ENDBRANCH  17  24
ENDBRANCH  16  20
ENDBRANCH  15  16
ENDBRANCH   1  15
TORSDOF 5
ENDMDL
MODEL 4
REMARK VINA RESULT:    -6.852      4.541      6.433
REMARK INTER + INTRA:          -9.387
REMARK INTER:                  -8.275
REMARK INTRA:                  -1.112
REMARK UNBOUND:                -0.533
REMARK  Name = 
REMARK  5 active torsions:
REMARK  status: ('A' for Active; 'I' for Inactive)
REMARK    1  A    between atoms: C_2  and  C_4
REMARK    2  A    between atoms: C_7  and  O_8
REMARK    3  A    between atoms: O_8  and  C_9
REMARK    4  A    between atoms: C_9  and  C_10
REMARK    5  A    between atoms: C_15  and  C_16
REMARK                            x       y       z     vdW  Elec       q    Type
REMARK                         _______ _______ _______ _____ _____    ______ ____
ROOT
ATOM      1  C   UNL     1      49.054   7.935  14.630  0.00  0.00    +0.000 A 
ATOM      2  C   UNL     1      48.577   9.160  15.106  0.00  0.00    +0.000 A 
ATOM      3  C   UNL     1      48.409   9.351  16.468  0.00  0.00    +0.000 A 
ATOM      4  F   UNL     1      47.957  10.529  16.915  0.00  0.00    +0.000 F 
ATOM      5  C   UNL     1      48.668   8.330  17.373  0.00  0.00    +0.000 A 
ATOM      6  C   UNL     1      49.074   7.064  16.930  0.00  0.00    +0.000 A 
ATOM      7  C   UNL     1      49.307   6.901  15.548  0.00  0.00    +0.000 A 
ENDROOT
BRANCH   6   8
ATOM      8  C   UNL     1      49.248   5.865  17.862  0.00  0.00    +0.000 C 
ATOM      9  C   UNL     1      48.971   4.526  17.142  0.00  0.00    +0.000 C 
ATOM     10  C   UNL     1      47.477   4.297  16.921  0.00  0.00    +0.000 C 
ATOM     11  N   UNL     1      46.732   4.310  18.180  0.00  0.00    +0.000 NA
ATOM     12  C   UNL     1      46.930   5.560  18.911  0.00  0.00    +0.000 C 
ATOM     13  C   UNL     1      48.410   5.877  19.157  0.00  0.00    +0.000 C 
ATOM     14  H   UNL     1      47.039   3.530  18.760  0.00  0.00    +0.000 HD
ENDBRANCH   6   8
BRANCH   1  15
ATOM     15  C   UNL     1      49.160   7.718  13.141  0.00  0.00    +0.000 C 
BRANCH  15  16
ATOM     16  O   UNL     1      48.701   6.422  12.762  0.00  0.00    +0.000 OA
BRANCH  16  20
ATOM     17  C   UNL     1      44.584   5.759  12.627  0.00  0.00    +0.000 A 
ATOM     18  C   UNL     1      45.104   6.862  11.943  0.00  0.00    +0.000 A 
ATOM     19  C   UNL     1      46.478   7.115  11.964  0.00  0.00    +0.000 A 
ATOM     20  C   UNL     1      47.342   6.277  12.675  0.00  0.00    +0.000 A 
ATOM     21  C   UNL     1      46.816   5.188  13.375  0.00  0.00    +0.000 A 
ATOM     22  C   UNL     1      45.443   4.931  13.359  0.00  0.00    +0.000 A 
BRANCH  17  24
ATOM     23  N   UNL     1      42.355   6.159  11.736  0.00  0.00    +0.000 N 
ATOM     24  C   UNL     1      43.129   5.458  12.621  0.00  0.00    +0.000 C 
ATOM     25  O   UNL     1      42.645   4.601  13.345  0.00  0.00    +0.000 OA
ATOM     26  H   UNL     1      41.391   5.868  11.663  0.00  0.00    +0.000 HD
ATOM     27  H   UNL     1      42.751   6.670  10.961  0.00  0.00    +0.000 HD
ENDBRANCH  17  24
ENDBRANCH  16  20
ENDBRANCH  15  16
ENDBRANCH   1  15
TORSDOF 5
ENDMDL
MODEL 5
REMARK VINA RESULT:    -6.828      4.679      8.295
REMARK INTER + INTRA:          -9.357
REMARK INTER:                  -9.185
REMARK INTRA:                  -0.172
REMARK UNBOUND:                -0.533
REMARK  Name = 
REMARK  5 active torsions:
REMARK  status: ('A' for Active; 'I' for Inactive)
REMARK    1  A    between atoms: C_2  and  C_4
REMARK    2  A    between atoms: C_7  and  O_8
REMARK    3  A    between atoms: O_8  and  C_9
REMARK    4  A    between atoms: C_9  and  C_10
REMARK    5  A    between atoms: C_15  and  C_16
REMARK                            x       y       z     vdW  Elec       q    Type
REMARK                         _______ _______ _______ _____ _____    ______ ____
ROOT
ATOM      1  C   UNL     1      46.745   4.790  13.397  0.00  0.00    +0.000 A 
ATOM      2  C   UNL     1      47.566   5.872  13.068  0.00  0.00    +0.000 A 
ATOM      3  C   UNL     1      47.210   6.714  12.027  0.00  0.00    +0.000 A 
ATOM      4  F   UNL     1      47.999   7.753  11.722  0.00  0.00    +0.000 F 
ATOM      5  C   UNL     1      46.067   6.480  11.274  0.00  0.00    +0.000 A 
ATOM      6  C   UNL     1      45.260   5.362  11.523  0.00  0.00    +0.000 A 
ATOM      7  C   UNL     1      45.595   4.550  12.627  0.00  0.00    +0.000 A 
ENDROOT
BRANCH   6   8
ATOM      8  C   UNL     1      44.066   4.978  10.649  0.00  0.00    +0.000 C 
ATOM      9  C   UNL     1      43.004   4.178  11.438  0.00  0.00    +0.000 C 
ATOM     10  C   UNL     1      43.447   2.737  11.688  0.00  0.00    +0.000 C 
ATOM     11  N   UNL     1      43.728   2.029  10.439  0.00  0.00    +0.000 NA
ATOM     12  C   UNL     1      44.742   2.719   9.645  0.00  0.00    +0.000 C 
ATOM     13  C   UNL     1      44.385   4.184   9.365  0.00  0.00    +0.000 C 
ATOM     14  H   UNL     1      42.869   1.956   9.895  0.00  0.00    +0.000 HD
ENDBRANCH   6   8
BRANCH   1  15
ATOM     15  C   UNL     1      47.186   3.840  14.483  0.00  0.00    +0.000 C 
BRANCH  15  16
ATOM     16  O   UNL     1      46.661   4.213  15.756  0.00  0.00    +0.000 OA
BRANCH  16  20
ATOM     17  C   UNL     1      49.544   4.689  18.735  0.00  0.00    +0.000 A 
ATOM     18  C   UNL     1      48.718   3.562  18.782  0.00  0.00    +0.000 A 
ATOM     19  C   UNL     1      47.741   3.368  17.800  0.00  0.00    +0.000 A 
ATOM     20  C   UNL     1      47.576   4.301  16.771  0.00  0.00    +0.000 A 
ATOM     21  C   UNL     1      48.390   5.436  16.740  0.00  0.00    +0.000 A 
ATOM     22  C   UNL     1      49.366   5.636  17.719  0.00  0.00    +0.000 A 
BRANCH  17  24
ATOM     23  N   UNL     1      51.722   4.151  19.678  0.00  0.00    +0.000 N 
ATOM     24  C   UNL     1      50.594   4.923  19.758  0.00  0.00    +0.000 C 
ATOM     25  O   UNL     1      50.479   5.788  20.615  0.00  0.00    +0.000 OA
ATOM     26  H   UNL     1      52.473   4.394  20.308  0.00  0.00    +0.000 HD
ATOM     27  H   UNL     1      51.957   3.626  18.849  0.00  0.00    +0.000 HD
ENDBRANCH  17  24
ENDBRANCH  16  20
ENDBRANCH  15  16
ENDBRANCH   1  15
TORSDOF 5
ENDMDL
MODEL 6
REMARK VINA RESULT:    -6.640      4.639      8.138
REMARK INTER + INTRA:          -9.113
REMARK INTER:                  -8.616
REMARK INTRA:                  -0.498
REMARK UNBOUND:                -0.533
REMARK  Name = 
REMARK  5 active torsions:
REMARK  status: ('A' for Active; 'I' for Inactive)
REMARK    1  A    between atoms: C_2  and  C_4
REMARK    2  A    between atoms: C_7  and  O_8
REMARK    3  A    between atoms: O_8  and  C_9
REMARK    4  A    between atoms: C_9  and  C_10
REMARK    5  A    between atoms: C_15  and  C_16
REMARK                            x       y       z     vdW  Elec       q    Type
REMARK                         _______ _______ _______ _____ _____    ______ ____
ROOT
ATOM      1  C   UNL     1      46.966   7.195  13.135  0.00  0.00    +0.000 A 
ATOM      2  C   UNL     1      46.700   8.554  12.943  0.00  0.00    +0.000 A 
ATOM      3  C   UNL     1      45.583   8.942  12.222  0.00  0.00    +0.000 A 
ATOM      4  F   UNL     1      45.332  10.246  12.047  0.00  0.00    +0.000 F 
ATOM      5  C   UNL     1      44.738   8.001  11.648  0.00  0.00    +0.000 A 
ATOM      6  C   UNL     1      45.013   6.631  11.752  0.00  0.00    +0.000 A 
ATOM      7  C   UNL     1      46.115   6.246  12.545  0.00  0.00    +0.000 A 
ENDROOT
BRANCH   6   8
ATOM      8  C   UNL     1      44.198   5.554  11.036  0.00  0.00    +0.000 C 
ATOM      9  C   UNL     1      42.844   5.292  11.734  0.00  0.00    +0.000 C 
ATOM     10  C   UNL     1      43.015   4.486  13.021  0.00  0.00    +0.000 C 
ATOM     11  N   UNL     1      43.667   3.200  12.776  0.00  0.00    +0.000 NA
ATOM     12  C   UNL     1      44.968   3.370  12.132  0.00  0.00    +0.000 C 
ATOM     13  C   UNL     1      44.889   4.189  10.838  0.00  0.00    +0.000 C 
ATOM     14  H   UNL     1      43.070   2.629  12.179  0.00  0.00    +0.000 HD
ENDBRANCH   6   8
BRANCH   1  15
ATOM     15  C   UNL     1      48.227   6.790  13.858  0.00  0.00    +0.000 C 
BRANCH  15  16
ATOM     16  O   UNL     1      48.158   5.445  14.327  0.00  0.00    +0.000 OA
BRANCH  16  20
ATOM     17  C   UNL     1      48.171   5.184  18.492  0.00  0.00    +0.000 A 
ATOM     18  C   UNL     1      47.483   4.208  17.765  0.00  0.00    +0.000 A 
ATOM     19  C   UNL     1      47.457   4.262  16.369  0.00  0.00    +0.000 A 
ATOM     20  C   UNL     1      48.110   5.294  15.688  0.00  0.00    +0.000 A 
ATOM     21  C   UNL     1      48.779   6.280  16.419  0.00  0.00    +0.000 A 
ATOM     22  C   UNL     1      48.806   6.232  17.814  0.00  0.00    +0.000 A 
BRANCH  17  24
ATOM     23  N   UNL     1      48.552   3.961  20.561  0.00  0.00    +0.000 N 
ATOM     24  C   UNL     1      48.223   5.154  19.976  0.00  0.00    +0.000 C 
ATOM     25  O   UNL     1      48.016   6.153  20.649  0.00  0.00    +0.000 OA
ATOM     26  H   UNL     1      48.692   3.980  21.560  0.00  0.00    +0.000 HD
ATOM     27  H   UNL     1      48.975   3.205  20.042  0.00  0.00    +0.000 HD
ENDBRANCH  17  24
ENDBRANCH  16  20
ENDBRANCH  15  16
ENDBRANCH   1  15
TORSDOF 5
ENDMDL
MODEL 7
REMARK VINA RESULT:    -6.520      3.652      5.601
REMARK INTER + INTRA:          -8.958
REMARK INTER:                  -8.192
REMARK INTRA:                  -0.766
REMARK UNBOUND:                -0.533
REMARK  Name = 
REMARK  5 active torsions:
REMARK  status: ('A' for Active; 'I' for Inactive)
REMARK    1  A    between atoms: C_2  and  C_4
REMARK    2  A    between atoms: C_7  and  O_8
REMARK    3  A    between atoms: O_8  and  C_9
REMARK    4  A    between atoms: C_9  and  C_10
REMARK    5  A    between atoms: C_15  and  C_16
REMARK                            x       y       z     vdW  Elec       q    Type
REMARK                         _______ _______ _______ _____ _____    ______ ____
ROOT
ATOM      1  C   UNL     1      49.006   7.131  14.147  0.00  0.00    +0.000 A 
ATOM      2  C   UNL     1      50.261   7.727  14.307  0.00  0.00    +0.000 A 
ATOM      3  C   UNL     1      50.995   7.487  15.457  0.00  0.00    +0.000 A 
ATOM      4  F   UNL     1      52.198   8.057  15.599  0.00  0.00    +0.000 F 
ATOM      5  C   UNL     1      50.490   6.692  16.478  0.00  0.00    +0.000 A 
ATOM      6  C   UNL     1      49.205   6.139  16.388  0.00  0.00    +0.000 A 
ATOM      7  C   UNL     1      48.495   6.335  15.185  0.00  0.00    +0.000 A 
ENDROOT
BRANCH   6   8
ATOM      8  C   UNL     1      48.543   5.367  17.528  0.00  0.00    +0.000 C 
ATOM      9  C   UNL     1      49.571   4.568  18.361  0.00  0.00    +0.000 C 
ATOM     10  C   UNL     1      50.053   3.319  17.625  0.00  0.00    +0.000 C 
ATOM     11  N   UNL     1      48.944   2.429  17.280  0.00  0.00    +0.000 NA
ATOM     12  C   UNL     1      47.936   3.112  16.471  0.00  0.00    +0.000 C 
ATOM     13  C   UNL     1      47.413   4.394  17.131  0.00  0.00    +0.000 C 
ATOM     14  H   UNL     1      48.511   2.085  18.136  0.00  0.00    +0.000 HD
ENDBRANCH   6   8
BRANCH   1  15
ATOM     15  C   UNL     1      48.188   7.463  12.923  0.00  0.00    +0.000 C 
BRANCH  15  16
ATOM     16  O   UNL     1      46.789   7.359  13.180  0.00  0.00    +0.000 OA
BRANCH  16  20
ATOM     17  C   UNL     1      44.817   4.122  11.436  0.00  0.00    +0.000 A 
ATOM     18  C   UNL     1      45.219   5.179  10.613  0.00  0.00    +0.000 A 
ATOM     19  C   UNL     1      45.883   6.280  11.161  0.00  0.00    +0.000 A 
ATOM     20  C   UNL     1      46.143   6.339  12.535  0.00  0.00    +0.000 A 
ATOM     21  C   UNL     1      45.720   5.290  13.356  0.00  0.00    +0.000 A 
ATOM     22  C   UNL     1      45.054   4.189  12.814  0.00  0.00    +0.000 A 
BRANCH  17  24
ATOM     23  N   UNL     1      44.760   2.231   9.906  0.00  0.00    +0.000 N 
ATOM     24  C   UNL     1      44.113   2.936  10.885  0.00  0.00    +0.000 C 
ATOM     25  O   UNL     1      43.022   2.579  11.307  0.00  0.00    +0.000 OA
ATOM     26  H   UNL     1      44.323   1.366   9.620  0.00  0.00    +0.000 HD
ATOM     27  H   UNL     1      45.746   2.340   9.726  0.00  0.00    +0.000 HD
ENDBRANCH  17  24
ENDBRANCH  16  20
ENDBRANCH  15  16
ENDBRANCH   1  15
TORSDOF 5
ENDMDL
MODEL 8
REMARK VINA RESULT:    -6.288      4.193      6.341
REMARK INTER + INTRA:          -8.658
REMARK INTER:                  -8.435
REMARK INTRA:                  -0.224
REMARK UNBOUND:                -0.533
REMARK  Name = 
REMARK  5 active torsions:
REMARK  status: ('A' for Active; 'I' for Inactive)
REMARK    1  A    between atoms: C_2  and  C_4
REMARK    2  A    between atoms: C_7  and  O_8
REMARK    3  A    between atoms: O_8  and  C_9
REMARK    4  A    between atoms: C_9  and  C_10
REMARK    5  A    between atoms: C_15  and  C_16
REMARK                            x       y       z     vdW  Elec       q    Type
REMARK                         _______ _______ _______ _____ _____    ______ ____
ROOT
ATOM      1  C   UNL     1      49.611   6.911  15.126  0.00  0.00    +0.000 A 
ATOM      2  C   UNL     1      50.872   7.509  15.212  0.00  0.00    +0.000 A 
ATOM      3  C   UNL     1      51.704   7.208  16.277  0.00  0.00    +0.000 A 
ATOM      4  F   UNL     1      52.913   7.781  16.350  0.00  0.00    +0.000 F 
ATOM      5  C   UNL     1      51.294   6.349  17.289  0.00  0.00    +0.000 A 
ATOM      6  C   UNL     1      50.009   5.790  17.278  0.00  0.00    +0.000 A 
ATOM      7  C   UNL     1      49.195   6.050  16.155  0.00  0.00    +0.000 A 
ENDROOT
BRANCH   6   8
ATOM      8  C   UNL     1      49.452   4.945  18.423  0.00  0.00    +0.000 C 
ATOM      9  C   UNL     1      48.473   3.860  17.920  0.00  0.00    +0.000 C 
ATOM     10  C   UNL     1      47.120   4.451  17.529  0.00  0.00    +0.000 C 
ATOM     11  N   UNL     1      46.493   5.160  18.645  0.00  0.00    +0.000 NA
ATOM     12  C   UNL     1      47.355   6.220  19.164  0.00  0.00    +0.000 C 
ATOM     13  C   UNL     1      48.747   5.712  19.561  0.00  0.00    +0.000 C 
ATOM     14  H   UNL     1      46.290   4.497  19.392  0.00  0.00    +0.000 HD
ENDBRANCH   6   8
BRANCH   1  15
ATOM     15  C   UNL     1      48.688   7.307  14.000  0.00  0.00    +0.000 C 
BRANCH  15  16
ATOM     16  O   UNL     1      48.525   6.252  13.055  0.00  0.00    +0.000 OA
BRANCH  16  20
ATOM     17  C   UNL     1      44.573   5.400  12.022  0.00  0.00    +0.000 A 
ATOM     18  C   UNL     1      45.176   4.642  13.031  0.00  0.00    +0.000 A 
ATOM     19  C   UNL     1      46.498   4.899  13.405  0.00  0.00    +0.000 A 
ATOM     20  C   UNL     1      47.230   5.907  12.769  0.00  0.00    +0.000 A 
ATOM     21  C   UNL     1      46.630   6.648  11.747  0.00  0.00    +0.000 A 
ATOM     22  C   UNL     1      45.311   6.394  11.368  0.00  0.00    +0.000 A 
BRANCH  17  24
ATOM     23  N   UNL     1      42.324   6.233  11.612  0.00  0.00    +0.000 N 
ATOM     24  C   UNL     1      43.169   5.156  11.604  0.00  0.00    +0.000 C 
ATOM     25  O   UNL     1      42.787   4.054  11.235  0.00  0.00    +0.000 OA
ATOM     26  H   UNL     1      41.405   6.080  11.221  0.00  0.00    +0.000 HD
ATOM     27  H   UNL     1      42.662   7.183  11.657  0.00  0.00    +0.000 HD
ENDBRANCH  17  24
ENDBRANCH  16  20
ENDBRANCH  15  16
ENDBRANCH   1  15
TORSDOF 5
ENDMDL
MODEL 9
REMARK VINA RESULT:    -5.964      3.890      7.178
REMARK INTER + INTRA:          -8.240
REMARK INTER:                  -7.919
REMARK INTRA:                  -0.321
REMARK UNBOUND:                -0.533
REMARK  Name = 
REMARK  5 active torsions:
REMARK  status: ('A' for Active; 'I' for Inactive)
REMARK    1  A    between atoms: C_2  and  C_4
REMARK    2  A    between atoms: C_7  and  O_8
REMARK    3  A    between atoms: O_8  and  C_9
REMARK    4  A    between atoms: C_9  and  C_10
REMARK    5  A    between atoms: C_15  and  C_16
REMARK                            x       y       z     vdW  Elec       q    Type
REMARK                         _______ _______ _______ _____ _____    ______ ____
ROOT
ATOM      1  C   UNL     1      47.372   6.768  12.199  0.00  0.00    +0.000 A 
ATOM      2  C   UNL     1      47.481   6.162  13.455  0.00  0.00    +0.000 A 
ATOM      3  C   UNL     1      46.612   5.141  13.804  0.00  0.00    +0.000 A 
ATOM      4  F   UNL     1      46.727   4.563  15.006  0.00  0.00    +0.000 F 
ATOM      5  C   UNL     1      45.604   4.731  12.941  0.00  0.00    +0.000 A 
ATOM      6  C   UNL     1      45.414   5.365  11.706  0.00  0.00    +0.000 A 
ATOM      7  C   UNL     1      46.345   6.356  11.333  0.00  0.00    +0.000 A 
ENDROOT
BRANCH   6   8
ATOM      8  C   UNL     1      44.246   5.049  10.772  0.00  0.00    +0.000 C 
ATOM      9  C   UNL     1      43.092   4.331  11.508  0.00  0.00    +0.000 C 
ATOM     10  C   UNL     1      43.424   2.868  11.796  0.00  0.00    +0.000 C 
ATOM     11  N   UNL     1      43.724   2.126  10.571  0.00  0.00    +0.000 NA
ATOM     12  C   UNL     1      44.824   2.737   9.827  0.00  0.00    +0.000 C 
ATOM     13  C   UNL     1      44.580   4.219   9.515  0.00  0.00    +0.000 C 
ATOM     14  H   UNL     1      42.893   2.102   9.981  0.00  0.00    +0.000 HD
ENDBRANCH   6   8
BRANCH   1  15
ATOM     15  C   UNL     1      48.276   7.928  11.864  0.00  0.00    +0.000 C 
BRANCH  15  16
ATOM     16  O   UNL     1      49.399   7.992  12.742  0.00  0.00    +0.000 OA
BRANCH  16  20
ATOM     17  C   UNL     1      53.038   8.325  10.728  0.00  0.00    +0.000 A 
ATOM     18  C   UNL     1      52.852   9.072  11.894  0.00  0.00    +0.000 A 
ATOM     19  C   UNL     1      51.647   8.985  12.597  0.00  0.00    +0.000 A 
ATOM     20  C   UNL     1      50.616   8.161  12.135  0.00  0.00    +0.000 A 
ATOM     21  C   UNL     1      50.798   7.432  10.957  0.00  0.00    +0.000 A 
ATOM     22  C   UNL     1      51.999   7.516  10.250  0.00  0.00    +0.000 A 
BRANCH  17  24
ATOM     23  N   UNL     1      55.450   8.645  10.670  0.00  0.00    +0.000 N 
ATOM     24  C   UNL     1      54.308   8.389   9.959  0.00  0.00    +0.000 C 
ATOM     25  O   UNL     1      54.344   8.190   8.754  0.00  0.00    +0.000 OA
ATOM     26  H   UNL     1      56.317   8.576  10.157  0.00  0.00    +0.000 HD
ATOM     27  H   UNL     1      55.491   8.555  11.674  0.00  0.00    +0.000 HD
ENDBRANCH  17  24
ENDBRANCH  16  20
ENDBRANCH  15  16
ENDBRANCH   1  15
TORSDOF 5
ENDMDL
