MODEL 1
REMARK VINA RESULT:    -7.981      0.000      0.000
REMARK INTER + INTRA:         -11.022
REMARK INTER:                 -10.547
REMARK INTRA:                  -0.476
REMARK UNBOUND:                -0.476
REMARK  Name = 
REMARK  6 active torsions:
REMARK  status: ('A' for Active; 'I' for Inactive)
REMARK    1  A    between atoms: N_1  and  C_2
REMARK    2  A    between atoms: C_2  and  C_3
REMARK    3  A    between atoms: C_3  and  C_4
REMARK    4  A    between atoms: C_7  and  C_8
REMARK    5  A    between atoms: C_8  and  N_9
REMARK    6  A    between atoms: C_14  and  C_15
REMARK                            x       y       z     vdW  Elec       q    Type
REMARK                         _______ _______ _______ _____ _____    ______ ____
ROOT
ATOM      1  N   UNL     1      43.520   4.384  11.913  0.00  0.00    +0.000 N 
ATOM      2  C   UNL     1      42.451   5.231  11.776  0.00  0.00    +0.000 A 
ATOM      3  N   UNL     1      42.817   6.487  11.872  0.00  0.00    +0.000 NA
ATOM      4  C   UNL     1      44.165   6.448  12.113  0.00  0.00    +0.000 A 
ATOM      5  C   UNL     1      45.089   7.499  12.149  0.00  0.00    +0.000 A 
ATOM      6  C   UNL     1      46.441   7.217  12.380  0.00  0.00    +0.000 A 
ATOM      7  C   UNL     1      46.833   5.920  12.730  0.00  0.00    +0.000 A 
ATOM      8  C   UNL     1      45.912   4.862  12.722  0.00  0.00    +0.000 A 
ATOM      9 CL   UNL     1      46.426   3.310  13.249  0.00  0.00    +0.000 Cl
ATOM     10  C   UNL     1      44.604   5.139  12.310  0.00  0.00    +0.000 A 
ENDROOT
BRANCH   6  11
ATOM     11  C   UNL     1      47.409   8.332  12.183  0.00  0.00    +0.000 C 
ATOM     12  N   UNL     1      48.711   8.039  11.890  0.00  0.00    +0.000 N 
ATOM     13  O   UNL     1      47.049   9.503  12.229  0.00  0.00    +0.000 OA
ATOM     14  H   UNL     1      49.093   7.118  11.757  0.00  0.00    +0.000 HD
ATOM     15  H   UNL     1      49.302   8.830  11.667  0.00  0.00    +0.000 HD
ENDBRANCH   6  11
BRANCH   1  16
ATOM     16  C   UNL     1      43.539   3.027  11.375  0.00  0.00    +0.000 C 
BRANCH  16  20
ATOM     17  C   UNL     1      45.828   2.979   7.682  0.00  0.00    +0.000 A 
ATOM     18  C   UNL     1      45.696   1.820   8.453  0.00  0.00    +0.000 A 
ATOM     19  C   UNL     1      44.921   1.825   9.616  0.00  0.00    +0.000 A 
ATOM     20  C   UNL     1      44.271   2.990  10.048  0.00  0.00    +0.000 A 
ATOM     21  C   UNL     1      44.381   4.142   9.252  0.00  0.00    +0.000 A 
ATOM     22  C   UNL     1      45.144   4.134   8.080  0.00  0.00    +0.000 A 
BRANCH  17  23
ATOM     23  C   UNL     1      46.697   2.984   6.447  0.00  0.00    +0.000 C 
BRANCH  23  24
ATOM     24  C   UNL     1      48.052   2.313   6.682  0.00  0.00    +0.000 C 
BRANCH  24  25
ATOM     25  N   UNL     1      48.576   1.738   5.442  0.00  0.00    +0.000 NA
ATOM     26  H   UNL     1      48.556   0.722   5.506  0.00  0.00    +0.000 HD
ATOM     27  H   UNL     1      49.556   1.997   5.330  0.00  0.00    +0.000 HD
ENDBRANCH  24  25
ENDBRANCH  23  24
ENDBRANCH  17  23
ENDBRANCH  16  20
ENDBRANCH   1  16
TORSDOF 6
ENDMDL
MODEL 2
REMARK VINA RESULT:    -7.694      1.255      1.487
REMARK INTER + INTRA:         -10.643
REMARK INTER:                 -10.383
REMARK INTRA:                  -0.260
REMARK UNBOUND:                -0.476
REMARK  Name = 
REMARK  6 active torsions:
REMARK  status: ('A' for Active; 'I' for Inactive)
REMARK    1  A    between atoms: N_1  and  C_2
REMARK    2  A    between atoms: C_2  and  C_3
REMARK    3  A    between atoms: C_3  and  C_4
REMARK    4  A    between atoms: C_7  and  C_8
REMARK    5  A    between atoms: C_8  and  N_9
REMARK    6  A    between atoms: C_14  and  C_15
REMARK                            x       y       z     vdW  Elec       q    Type
REMARK                         _______ _______ _______ _____ _____    ______ ____
ROOT
ATOM      1  N   UNL     1      44.523   5.608  11.989  0.00  0.00    +0.000 N 
ATOM      2  C   UNL     1      43.814   6.718  11.607  0.00  0.00    +0.000 A 
ATOM      3  N   UNL     1      44.575   7.786  11.568  0.00  0.00    +0.000 NA
ATOM      4  C   UNL     1      45.812   7.356  11.971  0.00  0.00    +0.000 A 
ATOM      5  C   UNL     1      47.032   8.042  11.969  0.00  0.00    +0.000 A 
ATOM      6  C   UNL     1      48.191   7.384  12.396  0.00  0.00    +0.000 A 
ATOM      7  C   UNL     1      48.099   6.111  12.970  0.00  0.00    +0.000 A 
ATOM      8  C   UNL     1      46.878   5.422  13.001  0.00  0.00    +0.000 A 
ATOM      9 CL   UNL     1      46.802   3.902  13.798  0.00  0.00    +0.000 Cl
ATOM     10  C   UNL     1      45.770   6.030  12.401  0.00  0.00    +0.000 A 
ENDROOT
BRANCH   6  11
ATOM     11  C   UNL     1      49.490   8.075  12.161  0.00  0.00    +0.000 C 
ATOM     12  N   UNL     1      50.606   7.636  12.814  0.00  0.00    +0.000 N 
ATOM     13  O   UNL     1      49.584   8.995  11.356  0.00  0.00    +0.000 OA
ATOM     14  H   UNL     1      50.654   6.846  13.436  0.00  0.00    +0.000 HD
ATOM     15  H   UNL     1      51.478   8.074  12.543  0.00  0.00    +0.000 HD
ENDBRANCH   6  11
BRANCH   1  16
ATOM     16  C   UNL     1      44.118   4.247  11.654  0.00  0.00    +0.000 C 
BRANCH  16  20
ATOM     17  C   UNL     1      45.845   3.070   7.844  0.00  0.00    +0.000 A 
ATOM     18  C   UNL     1      45.192   2.132   8.650  0.00  0.00    +0.000 A 
ATOM     19  C   UNL     1      44.597   2.521   9.853  0.00  0.00    +0.000 A 
ATOM     20  C   UNL     1      44.650   3.853  10.289  0.00  0.00    +0.000 A 
ATOM     21  C   UNL     1      45.280   4.796   9.460  0.00  0.00    +0.000 A 
ATOM     22  C   UNL     1      45.864   4.410   8.249  0.00  0.00    +0.000 A 
BRANCH  17  23
ATOM     23  C   UNL     1      46.523   2.642   6.564  0.00  0.00    +0.000 C 
BRANCH  23  24
ATOM     24  C   UNL     1      47.855   1.932   6.816  0.00  0.00    +0.000 C 
BRANCH  24  25
ATOM     25  N   UNL     1      48.599   1.754   5.568  0.00  0.00    +0.000 NA
ATOM     26  H   UNL     1      49.434   2.338   5.587  0.00  0.00    +0.000 HD
ATOM     27  H   UNL     1      48.038   2.084   4.783  0.00  0.00    +0.000 HD
ENDBRANCH  24  25
ENDBRANCH  23  24
ENDBRANCH  17  23
ENDBRANCH  16  20
ENDBRANCH   1  16
TORSDOF 6
ENDMDL
MODEL 3
REMARK VINA RESULT:    -6.931      2.749      3.338
REMARK INTER + INTRA:          -9.636
REMARK INTER:                  -9.146
REMARK INTRA:                  -0.490
REMARK UNBOUND:                -0.476
REMARK  Name = 
REMARK  6 active torsions:
REMARK  status: ('A' for Active; 'I' for Inactive)
REMARK    1  A    between atoms: N_1  and  C_2
REMARK    2  A    between atoms: C_2  and  C_3
REMARK    3  A    between atoms: C_3  and  C_4
REMARK    4  A    between atoms: C_7  and  C_8
REMARK    5  A    between atoms: C_8  and  N_9
REMARK    6  A    between atoms: C_14  and  C_15
REMARK                            x       y       z     vdW  Elec       q    Type
REMARK                         _______ _______ _______ _____ _____    ______ ____
ROOT
ATOM      1  N   UNL     1      46.122   4.589  12.791  0.00  0.00    +0.000 N 
ATOM      2  C   UNL     1      46.372   3.395  13.420  0.00  0.00    +0.000 A 
ATOM      3  N   UNL     1      47.155   3.555  14.460  0.00  0.00    +0.000 NA
ATOM      4  C   UNL     1      47.447   4.894  14.485  0.00  0.00    +0.000 A 
ATOM      5  C   UNL     1      48.115   5.636  15.465  0.00  0.00    +0.000 A 
ATOM      6  C   UNL     1      48.269   7.017  15.293  0.00  0.00    +0.000 A 
ATOM      7  C   UNL     1      47.903   7.616  14.083  0.00  0.00    +0.000 A 
ATOM      8  C   UNL     1      47.254   6.877  13.082  0.00  0.00    +0.000 A 
ATOM      9 CL   UNL     1      46.909   7.637  11.581  0.00  0.00    +0.000 Cl
ATOM     10  C   UNL     1      46.948   5.539  13.353  0.00  0.00    +0.000 A 
ENDROOT
BRANCH   6  11
ATOM     11  C   UNL     1      48.780   7.792  16.460  0.00  0.00    +0.000 C 
ATOM     12  N   UNL     1      47.899   8.215  17.414  0.00  0.00    +0.000 N 
ATOM     13  O   UNL     1      49.977   8.012  16.602  0.00  0.00    +0.000 OA
ATOM     14  H   UNL     1      46.911   8.025  17.432  0.00  0.00    +0.000 HD
ATOM     15  H   UNL     1      48.309   8.648  18.233  0.00  0.00    +0.000 HD
ENDBRANCH   6  11
BRANCH   1  16
ATOM     16  C   UNL     1      44.945   4.822  11.960  0.00  0.00    +0.000 C 
BRANCH  16  20
ATOM     17  C   UNL     1      45.861   3.397   7.959  0.00  0.00    +0.000 A 
ATOM     18  C   UNL     1      45.306   2.537   8.912  0.00  0.00    +0.000 A 
ATOM     19  C   UNL     1      44.969   3.008  10.183  0.00  0.00    +0.000 A 
ATOM     20  C   UNL     1      45.191   4.345  10.541  0.00  0.00    +0.000 A 
ATOM     21  C   UNL     1      45.718   5.212   9.570  0.00  0.00    +0.000 A 
ATOM     22  C   UNL     1      46.043   4.744   8.292  0.00  0.00    +0.000 A 
BRANCH  17  23
ATOM     23  C   UNL     1      46.262   2.878   6.599  0.00  0.00    +0.000 C 
BRANCH  23  24
ATOM     24  C   UNL     1      47.244   1.707   6.684  0.00  0.00    +0.000 C 
BRANCH  24  25
ATOM     25  N   UNL     1      48.344   1.873   5.732  0.00  0.00    +0.000 NA
ATOM     26  H   UNL     1      48.470   1.007   5.209  0.00  0.00    +0.000 HD
ATOM     27  H   UNL     1      49.215   2.031   6.237  0.00  0.00    +0.000 HD
ENDBRANCH  24  25
ENDBRANCH  23  24
ENDBRANCH  17  23
ENDBRANCH  16  20
ENDBRANCH   1  16
TORSDOF 6
ENDMDL
MODEL 4
REMARK VINA RESULT:    -6.927      2.431      3.107
REMARK INTER + INTRA:          -9.630
REMARK INTER:                  -8.848
REMARK INTRA:                  -0.782
REMARK UNBOUND:                -0.476
REMARK  Name = 
REMARK  6 active torsions:
REMARK  status: ('A' for Active; 'I' for Inactive)
REMARK    1  A    between atoms: N_1  and  C_2
REMARK    2  A    between atoms: C_2  and  C_3
REMARK    3  A    between atoms: C_3  and  C_4
REMARK    4  A    between atoms: C_7  and  C_8
REMARK    5  A    between atoms: C_8  and  N_9
REMARK    6  A    between atoms: C_14  and  C_15
REMARK                            x       y       z     vdW  Elec       q    Type
REMARK                         _______ _______ _______ _____ _____    ______ ____
ROOT
ATOM      1  N   UNL     1      44.618   6.027  11.223  0.00  0.00    +0.000 N 
ATOM      2  C   UNL     1      45.332   7.176  11.000  0.00  0.00    +0.000 A 
ATOM      3  N   UNL     1      46.298   7.320  11.876  0.00  0.00    +0.000 NA
ATOM      4  C   UNL     1      46.183   6.242  12.714  0.00  0.00    +0.000 A 
ATOM      5  C   UNL     1      47.044   5.814  13.731  0.00  0.00    +0.000 A 
ATOM      6  C   UNL     1      46.740   4.648  14.443  0.00  0.00    +0.000 A 
ATOM      7  C   UNL     1      45.509   4.012  14.248  0.00  0.00    +0.000 A 
ATOM      8  C   UNL     1      44.625   4.446  13.249  0.00  0.00    +0.000 A 
ATOM      9 CL   UNL     1      43.090   3.688  13.113  0.00  0.00    +0.000 Cl
ATOM     10  C   UNL     1      45.035   5.502  12.428  0.00  0.00    +0.000 A 
ENDROOT
BRANCH   6  11
ATOM     11  C   UNL     1      47.795   4.114  15.350  0.00  0.00    +0.000 C 
ATOM     12  N   UNL     1      48.332   4.933  16.302  0.00  0.00    +0.000 N 
ATOM     13  O   UNL     1      48.151   2.942  15.292  0.00  0.00    +0.000 OA
ATOM     14  H   UNL     1      48.059   5.885  16.484  0.00  0.00    +0.000 HD
ATOM     15  H   UNL     1      48.968   4.494  16.955  0.00  0.00    +0.000 HD
ENDBRANCH   6  11
BRANCH   1  16
ATOM     16  C   UNL     1      43.852   5.348  10.183  0.00  0.00    +0.000 C 
BRANCH  16  20
ATOM     17  C   UNL     1      46.128   2.327   8.044  0.00  0.00    +0.000 A 
ATOM     18  C   UNL     1      46.356   3.687   7.813  0.00  0.00    +0.000 A 
ATOM     19  C   UNL     1      45.657   4.658   8.535  0.00  0.00    +0.000 A 
ATOM     20  C   UNL     1      44.701   4.296   9.495  0.00  0.00    +0.000 A 
ATOM     21  C   UNL     1      44.499   2.929   9.746  0.00  0.00    +0.000 A 
ATOM     22  C   UNL     1      45.209   1.957   9.033  0.00  0.00    +0.000 A 
BRANCH  17  23
ATOM     23  C   UNL     1      46.855   1.279   7.236  0.00  0.00    +0.000 C 
BRANCH  23  24
ATOM     24  C   UNL     1      48.258   1.728   6.823  0.00  0.00    +0.000 C 
BRANCH  24  25
ATOM     25  N   UNL     1      48.326   1.980   5.382  0.00  0.00    +0.000 NA
ATOM     26  H   UNL     1      48.102   1.122   4.879  0.00  0.00    +0.000 HD
ATOM     27  H   UNL     1      49.281   2.223   5.120  0.00  0.00    +0.000 HD
ENDBRANCH  24  25
ENDBRANCH  23  24
ENDBRANCH  17  23
ENDBRANCH  16  20
ENDBRANCH   1  16
TORSDOF 6
ENDMDL
MODEL 5
REMARK VINA RESULT:    -5.907      3.729      6.535
REMARK INTER + INTRA:          -8.282
REMARK INTER:                  -7.665
REMARK INTRA:                  -0.617
REMARK UNBOUND:                -0.476
REMARK  Name = 
REMARK  6 active torsions:
REMARK  status: ('A' for Active; 'I' for Inactive)
REMARK    1  A    between atoms: N_1  and  C_2
REMARK    2  A    between atoms: C_2  and  C_3
REMARK    3  A    between atoms: C_3  and  C_4
REMARK    4  A    between atoms: C_7  and  C_8
REMARK    5  A    between atoms: C_8  and  N_9
REMARK    6  A    between atoms: C_14  and  C_15
REMARK                            x       y       z     vdW  Elec       q    Type
REMARK                         _______ _______ _______ _____ _____    ______ ____
ROOT
ATOM      1  N   UNL     1      47.414   7.325  13.632  0.00  0.00    +0.000 N 
ATOM      2  C   UNL     1      47.957   6.263  14.309  0.00  0.00    +0.000 A 
ATOM      3  N   UNL     1      47.360   5.137  13.995  0.00  0.00    +0.000 NA
ATOM      4  C   UNL     1      46.375   5.490  13.110  0.00  0.00    +0.000 A 
ATOM      5  C   UNL     1      45.538   4.672  12.343  0.00  0.00    +0.000 A 
ATOM      6  C   UNL     1      44.618   5.259  11.467  0.00  0.00    +0.000 A 
ATOM      7  C   UNL     1      44.429   6.646  11.481  0.00  0.00    +0.000 A 
ATOM      8  C   UNL     1      45.244   7.476  12.263  0.00  0.00    +0.000 A 
ATOM      9 CL   UNL     1      44.909   9.160  12.314  0.00  0.00    +0.000 Cl
ATOM     10  C   UNL     1      46.278   6.877  12.992  0.00  0.00    +0.000 A 
ENDROOT
BRANCH   6  11
ATOM     11  C   UNL     1      43.916   4.354  10.513  0.00  0.00    +0.000 C 
ATOM     12  N   UNL     1      44.021   4.590   9.172  0.00  0.00    +0.000 N 
ATOM     13  O   UNL     1      43.292   3.376  10.907  0.00  0.00    +0.000 OA
ATOM     14  H   UNL     1      44.568   5.317   8.741  0.00  0.00    +0.000 HD
ATOM     15  H   UNL     1      43.611   3.890   8.567  0.00  0.00    +0.000 HD
ENDBRANCH   6  11
BRANCH   1  16
ATOM     16  C   UNL     1      48.140   8.565  13.377  0.00  0.00    +0.000 C 
BRANCH  16  20
ATOM     17  C   UNL     1      51.943   7.948  11.369  0.00  0.00    +0.000 A 
ATOM     18  C   UNL     1      51.898   8.482  12.660  0.00  0.00    +0.000 A 
ATOM     19  C   UNL     1      50.678   8.637  13.323  0.00  0.00    +0.000 A 
ATOM     20  C   UNL     1      49.470   8.277  12.709  0.00  0.00    +0.000 A 
ATOM     21  C   UNL     1      49.525   7.711  11.424  0.00  0.00    +0.000 A 
ATOM     22  C   UNL     1      50.747   7.543  10.765  0.00  0.00    +0.000 A 
BRANCH  17  23
ATOM     23  C   UNL     1      53.258   7.818  10.638  0.00  0.00    +0.000 C 
BRANCH  23  24
ATOM     24  C   UNL     1      53.280   6.625   9.679  0.00  0.00    +0.000 C 
BRANCH  24  25
ATOM     25  N   UNL     1      53.572   5.382  10.395  0.00  0.00    +0.000 NA
ATOM     26  H   UNL     1      53.009   5.340  11.243  0.00  0.00    +0.000 HD
ATOM     27  H   UNL     1      54.546   5.380  10.698  0.00  0.00    +0.000 HD
ENDBRANCH  24  25
ENDBRANCH  23  24
ENDBRANCH  17  23
ENDBRANCH  16  20
ENDBRANCH   1  16
TORSDOF 6
ENDMDL
MODEL 6
REMARK VINA RESULT:    -5.831      3.216      6.573
REMARK INTER + INTRA:          -8.182
REMARK INTER:                  -7.775
REMARK INTRA:                  -0.407
REMARK UNBOUND:                -0.476
REMARK  Name = 
REMARK  6 active torsions:
REMARK  status: ('A' for Active; 'I' for Inactive)
REMARK    1  A    between atoms: N_1  and  C_2
REMARK    2  A    between atoms: C_2  and  C_3
REMARK    3  A    between atoms: C_3  and  C_4
REMARK    4  A    between atoms: C_7  and  C_8
REMARK    5  A    between atoms: C_8  and  N_9
REMARK    6  A    between atoms: C_14  and  C_15
REMARK                            x       y       z     vdW  Elec       q    Type
REMARK                         _______ _______ _______ _____ _____    ______ ____
ROOT
ATOM      1  N   UNL     1      44.254   4.413  11.494  0.00  0.00    +0.000 N 
ATOM      2  C   UNL     1      43.269   3.542  11.887  0.00  0.00    +0.000 A 
ATOM      3  N   UNL     1      43.253   2.465  11.139  0.00  0.00    +0.000 NA
ATOM      4  C   UNL     1      44.240   2.661  10.209  0.00  0.00    +0.000 A 
ATOM      5  C   UNL     1      44.758   1.768   9.264  0.00  0.00    +0.000 A 
ATOM      6  C   UNL     1      45.805   2.180   8.431  0.00  0.00    +0.000 A 
ATOM      7  C   UNL     1      46.215   3.517   8.436  0.00  0.00    +0.000 A 
ATOM      8  C   UNL     1      45.687   4.430   9.361  0.00  0.00    +0.000 A 
ATOM      9 CL   UNL     1      46.158   6.078   9.263  0.00  0.00    +0.000 Cl
ATOM     10  C   UNL     1      44.774   3.947  10.304  0.00  0.00    +0.000 A 
ENDROOT
BRANCH   6  11
ATOM     11  C   UNL     1      46.469   1.130   7.607  0.00  0.00    +0.000 C 
ATOM     12  N   UNL     1      47.140   1.498   6.476  0.00  0.00    +0.000 N 
ATOM     13  O   UNL     1      46.467  -0.046   7.953  0.00  0.00    +0.000 OA
ATOM     14  H   UNL     1      47.267   2.439   6.144  0.00  0.00    +0.000 HD
ATOM     15  H   UNL     1      47.657   0.762   6.010  0.00  0.00    +0.000 HD
ENDBRANCH   6  11
BRANCH   1  16
ATOM     16  C   UNL     1      44.841   5.409  12.384  0.00  0.00    +0.000 C 
BRANCH  16  20
ATOM     17  C   UNL     1      43.950   9.471  11.126  0.00  0.00    +0.000 A 
ATOM     18  C   UNL     1      45.169   9.167  11.740  0.00  0.00    +0.000 A 
ATOM     19  C   UNL     1      45.474   7.852  12.102  0.00  0.00    +0.000 A 
ATOM     20  C   UNL     1      44.564   6.810  11.874  0.00  0.00    +0.000 A 
ATOM     21  C   UNL     1      43.355   7.116  11.228  0.00  0.00    +0.000 A 
ATOM     22  C   UNL     1      43.055   8.430  10.853  0.00  0.00    +0.000 A 
BRANCH  17  23
ATOM     23  C   UNL     1      43.605  10.898  10.771  0.00  0.00    +0.000 C 
BRANCH  23  24
ATOM     24  C   UNL     1      42.834  11.003   9.453  0.00  0.00    +0.000 C 
BRANCH  24  25
ATOM     25  N   UNL     1      43.680  10.627   8.319  0.00  0.00    +0.000 NA
ATOM     26  H   UNL     1      43.380   9.722   7.960  0.00  0.00    +0.000 HD
ATOM     27  H   UNL     1      44.642  10.505   8.633  0.00  0.00    +0.000 HD
ENDBRANCH  24  25
ENDBRANCH  23  24
ENDBRANCH  17  23
ENDBRANCH  16  20
ENDBRANCH   1  16
TORSDOF 6
ENDMDL
MODEL 7
REMARK VINA RESULT:    -5.756      5.087      8.046
REMARK INTER + INTRA:          -8.083
REMARK INTER:                  -7.804
REMARK INTRA:                  -0.278
REMARK UNBOUND:                -0.476
REMARK  Name = 
REMARK  6 active torsions:
REMARK  status: ('A' for Active; 'I' for Inactive)
REMARK    1  A    between atoms: N_1  and  C_2
REMARK    2  A    between atoms: C_2  and  C_3
REMARK    3  A    between atoms: C_3  and  C_4
REMARK    4  A    between atoms: C_7  and  C_8
REMARK    5  A    between atoms: C_8  and  N_9
REMARK    6  A    between atoms: C_14  and  C_15
REMARK                            x       y       z     vdW  Elec       q    Type
REMARK                         _______ _______ _______ _____ _____    ______ ____
ROOT
ATOM      1  N   UNL     1      48.972   6.778  14.942  0.00  0.00    +0.000 N 
ATOM      2  C   UNL     1      49.755   7.649  14.227  0.00  0.00    +0.000 A 
ATOM      3  N   UNL     1      49.290   7.827  13.014  0.00  0.00    +0.000 NA
ATOM      4  C   UNL     1      48.187   7.018  12.931  0.00  0.00    +0.000 A 
ATOM      5  C   UNL     1      47.226   6.932  11.917  0.00  0.00    +0.000 A 
ATOM      6  C   UNL     1      46.151   6.048  12.065  0.00  0.00    +0.000 A 
ATOM      7  C   UNL     1      46.128   5.149  13.137  0.00  0.00    +0.000 A 
ATOM      8  C   UNL     1      47.099   5.209  14.147  0.00  0.00    +0.000 A 
ATOM      9 CL   UNL     1      47.077   4.024  15.391  0.00  0.00    +0.000 Cl
ATOM     10  C   UNL     1      48.060   6.222  14.069  0.00  0.00    +0.000 A 
ENDROOT
BRANCH   6  11
ATOM     11  C   UNL     1      45.043   6.157  11.074  0.00  0.00    +0.000 C 
ATOM     12  N   UNL     1      45.194   5.590   9.841  0.00  0.00    +0.000 N 
ATOM     13  O   UNL     1      43.983   6.701  11.363  0.00  0.00    +0.000 OA
ATOM     14  H   UNL     1      45.990   5.059   9.529  0.00  0.00    +0.000 HD
ATOM     15  H   UNL     1      44.376   5.605   9.244  0.00  0.00    +0.000 HD
ENDBRANCH   6  11
BRANCH   1  16
ATOM     16  C   UNL     1      48.920   6.764  16.401  0.00  0.00    +0.000 C 
BRANCH  16  20
ATOM     17  C   UNL     1      51.572   3.612  17.782  0.00  0.00    +0.000 A 
ATOM     18  C   UNL     1      52.085   4.848  17.377  0.00  0.00    +0.000 A 
ATOM     19  C   UNL     1      51.228   5.877  16.978  0.00  0.00    +0.000 A 
ATOM     20  C   UNL     1      49.838   5.693  16.957  0.00  0.00    +0.000 A 
ATOM     21  C   UNL     1      49.327   4.460  17.395  0.00  0.00    +0.000 A 
ATOM     22  C   UNL     1      50.184   3.435  17.809  0.00  0.00    +0.000 A 
BRANCH  17  23
ATOM     23  C   UNL     1      52.500   2.488  18.176  0.00  0.00    +0.000 C 
BRANCH  23  24
ATOM     24  C   UNL     1      52.108   1.154  17.537  0.00  0.00    +0.000 C 
BRANCH  24  25
ATOM     25  N   UNL     1      52.764   0.034  18.215  0.00  0.00    +0.000 NA
ATOM     26  H   UNL     1      52.401  -0.844  17.846  0.00  0.00    +0.000 HD
ATOM     27  H   UNL     1      52.526   0.045  19.207  0.00  0.00    +0.000 HD
ENDBRANCH  24  25
ENDBRANCH  23  24
ENDBRANCH  17  23
ENDBRANCH  16  20
ENDBRANCH   1  16
TORSDOF 6
ENDMDL
MODEL 8
REMARK VINA RESULT:    -5.631      3.034      4.198
REMARK INTER + INTRA:          -7.916
REMARK INTER:                  -7.258
REMARK INTRA:                  -0.659
REMARK UNBOUND:                -0.476
REMARK  Name = 
REMARK  6 active torsions:
REMARK  status: ('A' for Active; 'I' for Inactive)
REMARK    1  A    between atoms: N_1  and  C_2
REMARK    2  A    between atoms: C_2  and  C_3
REMARK    3  A    between atoms: C_3  and  C_4
REMARK    4  A    between atoms: C_7  and  C_8
REMARK    5  A    between atoms: C_8  and  N_9
REMARK    6  A    between atoms: C_14  and  C_15
REMARK                            x       y       z     vdW  Elec       q    Type
REMARK                         _______ _______ _______ _____ _____    ______ ____
ROOT
ATOM      1  N   UNL     1      46.684   6.224  13.433  0.00  0.00    +0.000 N 
ATOM      2  C   UNL     1      47.225   5.140  14.077  0.00  0.00    +0.000 A 
ATOM      3  N   UNL     1      48.175   5.499  14.907  0.00  0.00    +0.000 NA
ATOM      4  C   UNL     1      48.273   6.859  14.771  0.00  0.00    +0.000 A 
ATOM      5  C   UNL     1      49.017   7.774  15.525  0.00  0.00    +0.000 A 
ATOM      6  C   UNL     1      48.934   9.139  15.225  0.00  0.00    +0.000 A 
ATOM      7  C   UNL     1      48.245   9.562  14.083  0.00  0.00    +0.000 A 
ATOM      8  C   UNL     1      47.515   8.652  13.304  0.00  0.00    +0.000 A 
ATOM      9 CL   UNL     1      46.764   9.208  11.863  0.00  0.00    +0.000 Cl
ATOM     10  C   UNL     1      47.465   7.321  13.732  0.00  0.00    +0.000 A 
ENDROOT
BRANCH   6  11
ATOM     11  C   UNL     1      49.559  10.085  16.192  0.00  0.00    +0.000 C 
ATOM     12  N   UNL     1      50.571  10.899  15.768  0.00  0.00    +0.000 N 
ATOM     13  O   UNL     1      49.148  10.181  17.343  0.00  0.00    +0.000 OA
ATOM     14  H   UNL     1      50.931  10.953  14.831  0.00  0.00    +0.000 HD
ATOM     15  H   UNL     1      50.890  11.590  16.435  0.00  0.00    +0.000 HD
ENDBRANCH   6  11
BRANCH   1  16
ATOM     16  C   UNL     1      45.341   6.225  12.864  0.00  0.00    +0.000 C 
BRANCH  16  20
ATOM     17  C   UNL     1      45.061   4.080   9.095  0.00  0.00    +0.000 A 
ATOM     18  C   UNL     1      45.818   5.252   9.193  0.00  0.00    +0.000 A 
ATOM     19  C   UNL     1      45.945   5.915  10.416  0.00  0.00    +0.000 A 
ATOM     20  C   UNL     1      45.308   5.435  11.570  0.00  0.00    +0.000 A 
ATOM     21  C   UNL     1      44.576   4.241  11.472  0.00  0.00    +0.000 A 
ATOM     22  C   UNL     1      44.460   3.568  10.251  0.00  0.00    +0.000 A 
BRANCH  17  23
ATOM     23  C   UNL     1      44.891   3.386   7.765  0.00  0.00    +0.000 C 
BRANCH  23  24
ATOM     24  C   UNL     1      46.192   3.336   6.961  0.00  0.00    +0.000 C 
BRANCH  24  25
ATOM     25  N   UNL     1      46.965   2.135   7.286  0.00  0.00    +0.000 NA
ATOM     26  H   UNL     1      46.333   1.403   7.607  0.00  0.00    +0.000 HD
ATOM     27  H   UNL     1      47.593   2.331   8.066  0.00  0.00    +0.000 HD
ENDBRANCH  24  25
ENDBRANCH  23  24
ENDBRANCH  17  23
ENDBRANCH  16  20
ENDBRANCH   1  16
TORSDOF 6
ENDMDL
MODEL 9
REMARK VINA RESULT:    -5.449      2.576      5.759
REMARK INTER + INTRA:          -7.676
REMARK INTER:                  -7.572
REMARK INTRA:                  -0.104
REMARK UNBOUND:                -0.476
REMARK  Name = 
REMARK  6 active torsions:
REMARK  status: ('A' for Active; 'I' for Inactive)
REMARK    1  A    between atoms: N_1  and  C_2
REMARK    2  A    between atoms: C_2  and  C_3
REMARK    3  A    between atoms: C_3  and  C_4
REMARK    4  A    between atoms: C_7  and  C_8
REMARK    5  A    between atoms: C_8  and  N_9
REMARK    6  A    between atoms: C_14  and  C_15
REMARK                            x       y       z     vdW  Elec       q    Type
REMARK                         _______ _______ _______ _____ _____    ______ ____
ROOT
ATOM      1  N   UNL     1      43.615   3.956  11.921  0.00  0.00    +0.000 N 
ATOM      2  C   UNL     1      43.141   2.675  12.044  0.00  0.00    +0.000 A 
ATOM      3  N   UNL     1      43.533   1.920  11.046  0.00  0.00    +0.000 NA
ATOM      4  C   UNL     1      44.258   2.751  10.233  0.00  0.00    +0.000 A 
ATOM      5  C   UNL     1      45.033   2.437   9.111  0.00  0.00    +0.000 A 
ATOM      6  C   UNL     1      45.727   3.456   8.448  0.00  0.00    +0.000 A 
ATOM      7  C   UNL     1      45.515   4.792   8.808  0.00  0.00    +0.000 A 
ATOM      8  C   UNL     1      44.721   5.122   9.915  0.00  0.00    +0.000 A 
ATOM      9 CL   UNL     1      44.421   6.778  10.258  0.00  0.00    +0.000 Cl
ATOM     10  C   UNL     1      44.187   4.073  10.672  0.00  0.00    +0.000 A 
ENDROOT
BRANCH   6  11
ATOM     11  C   UNL     1      46.711   3.042   7.408  0.00  0.00    +0.000 C 
ATOM     12  N   UNL     1      46.932   3.862   6.338  0.00  0.00    +0.000 N 
ATOM     13  O   UNL     1      47.359   2.008   7.521  0.00  0.00    +0.000 OA
ATOM     14  H   UNL     1      46.511   4.763   6.187  0.00  0.00    +0.000 HD
ATOM     15  H   UNL     1      47.681   3.583   5.716  0.00  0.00    +0.000 HD
ENDBRANCH   6  11
BRANCH   1  16
ATOM     16  C   UNL     1      43.783   4.858  13.056  0.00  0.00    +0.000 C 
BRANCH  16  20
ATOM     17  C   UNL     1      47.847   6.331  13.498  0.00  0.00    +0.000 A 
ATOM     18  C   UNL     1      47.567   4.966  13.617  0.00  0.00    +0.000 A 
ATOM     19  C   UNL     1      46.268   4.488  13.429  0.00  0.00    +0.000 A 
ATOM     20  C   UNL     1      45.212   5.361  13.131  0.00  0.00    +0.000 A 
ATOM     21  C   UNL     1      45.505   6.727  12.981  0.00  0.00    +0.000 A 
ATOM     22  C   UNL     1      46.808   7.204  13.156  0.00  0.00    +0.000 A 
BRANCH  17  23
ATOM     23  C   UNL     1      49.244   6.852  13.740  0.00  0.00    +0.000 C 
BRANCH  23  24
ATOM     24  C   UNL     1      49.680   7.872  12.686  0.00  0.00    +0.000 C 
BRANCH  24  25
ATOM     25  N   UNL     1      50.626   7.278  11.740  0.00  0.00    +0.000 NA
ATOM     26  H   UNL     1      50.839   6.324  12.030  0.00  0.00    +0.000 HD
ATOM     27  H   UNL     1      51.509   7.788  11.771  0.00  0.00    +0.000 HD
ENDBRANCH  24  25
ENDBRANCH  23  24
ENDBRANCH  17  23
ENDBRANCH  16  20
ENDBRANCH   1  16
TORSDOF 6
ENDMDL
