MODEL 1
REMARK VINA RESULT:    -9.714      0.000      0.000
REMARK INTER + INTRA:         -13.433
REMARK INTER:                 -13.122
REMARK INTRA:                  -0.311
REMARK UNBOUND:                -0.311
REMARK  Name = 
REMARK  7 active torsions:
REMARK  status: ('A' for Active; 'I' for Inactive)
REMARK    1  A    between atoms: C_1  and  O_2
REMARK    2  A    between atoms: O_2  and  C_3
REMARK    3  A    between atoms: C_6  and  C_7
REMARK    4  A    between atoms: C_11  and  C_12
REMARK    5  A    between atoms: C_12  and  N_13
REMARK    6  A    between atoms: N_13  and  C_14
REMARK    7  A    between atoms: C_17  and  C_18
REMARK                            x       y       z     vdW  Elec       q    Type
REMARK                         _______ _______ _______ _____ _____    ______ ____
ROOT
ATOM      1  C   UNL     1      43.929   4.976  11.549  0.00  0.00    +0.000 C 
ATOM      2  C   UNL     1      42.750   5.216  12.466  0.00  0.00    +0.000 C 
ATOM      3  C   UNL     1      43.286   3.832  12.340  0.00  0.00    +0.000 C 
ENDROOT
BRANCH   1   8
ATOM      4  C   UNL     1      47.076   5.584  13.722  0.00  0.00    +0.000 A 
ATOM      5  C   UNL     1      47.832   6.365  12.836  0.00  0.00    +0.000 A 
ATOM      6  C   UNL     1      47.329   6.752  11.594  0.00  0.00    +0.000 A 
ATOM      7  C   UNL     1      46.070   6.322  11.189  0.00  0.00    +0.000 A 
ATOM      8  C   UNL     1      45.286   5.495  12.006  0.00  0.00    +0.000 A 
ATOM      9  C   UNL     1      45.815   5.148  13.264  0.00  0.00    +0.000 A 
BRANCH   4  13
ATOM     10  C   UNL     1      48.350   4.107  17.510  0.00  0.00    +0.000 A 
ATOM     11  C   UNL     1      47.519   3.434  16.631  0.00  0.00    +0.000 A 
ATOM     12  N   UNL     1      47.128   3.925  15.431  0.00  0.00    +0.000 NA
ATOM     13  C   UNL     1      47.556   5.170  15.063  0.00  0.00    +0.000 A 
ATOM     14  C   UNL     1      48.362   5.930  15.922  0.00  0.00    +0.000 A 
ATOM     15 CL   UNL     1      48.847   7.566  15.644  0.00  0.00    +0.000 Cl
ATOM     16  C   UNL     1      48.773   5.376  17.138  0.00  0.00    +0.000 A 
BRANCH  10  18
ATOM     17  C   UNL     1      48.845   4.295  19.814  0.00  0.00    +0.000 C 
ATOM     18  O   UNL     1      48.669   3.465  18.669  0.00  0.00    +0.000 OA
ENDBRANCH  10  18
ENDBRANCH   4  13
ENDBRANCH   1   8
BRANCH   1  19
ATOM     19  N   UNL     1      43.834   4.749  10.097  0.00  0.00    +0.000 N 
ATOM     20  H   UNL     1      42.893   4.902   9.728  0.00  0.00    +0.000 HD
BRANCH  19  21
ATOM     21  C   UNL     1      44.572   3.872   9.296  0.00  0.00    +0.000 A 
ATOM     22  C   UNL     1      44.616   2.487   9.455  0.00  0.00    +0.000 A 
ATOM     23  C   UNL     1      45.498   1.710   8.686  0.00  0.00    +0.000 A 
ATOM     24  C   UNL     1      46.365   2.310   7.762  0.00  0.00    +0.000 A 
ATOM     25  C   UNL     1      46.335   3.695   7.601  0.00  0.00    +0.000 A 
ATOM     26  C   UNL     1      45.452   4.457   8.364  0.00  0.00    +0.000 A 
BRANCH  24  27
ATOM     27  C   UNL     1      47.348   1.464   7.033  0.00  0.00    +0.000 C 
ATOM     28  N   UNL     1      48.455   2.080   6.515  0.00  0.00    +0.000 N 
ATOM     29  O   UNL     1      47.176   0.261   6.888  0.00  0.00    +0.000 OA
ATOM     30  H   UNL     1      48.564   3.082   6.458  0.00  0.00    +0.000 HD
ATOM     31  H   UNL     1      49.087   1.503   5.976  0.00  0.00    +0.000 HD
ENDBRANCH  24  27
ENDBRANCH  19  21
ENDBRANCH   1  19
TORSDOF 6
ENDMDL
MODEL 2
REMARK VINA RESULT:    -9.495      3.094      4.421
REMARK INTER + INTRA:         -13.136
REMARK INTER:                 -11.853
REMARK INTRA:                  -1.283
REMARK UNBOUND:                -0.311
REMARK  Name = 
REMARK  7 active torsions:
REMARK  status: ('A' for Active; 'I' for Inactive)
REMARK    1  A    between atoms: C_1  and  O_2
REMARK    2  A    between atoms: O_2  and  C_3
REMARK    3  A    between atoms: C_6  and  C_7
REMARK    4  A    between atoms: C_11  and  C_12
REMARK    5  A    between atoms: C_12  and  N_13
REMARK    6  A    between atoms: N_13  and  C_14
REMARK    7  A    between atoms: C_17  and  C_18
REMARK                            x       y       z     vdW  Elec       q    Type
REMARK                         _______ _______ _______ _____ _____    ______ ____
ROOT
ATOM      1  C   UNL     1      43.841   4.979  11.299  0.00  0.00    +0.000 C 
ATOM      2  C   UNL     1      43.034   6.227  11.024  0.00  0.00    +0.000 C 
ATOM      3  C   UNL     1      42.529   5.260  12.039  0.00  0.00    +0.000 C 
ENDROOT
BRANCH   1   8
ATOM      4  C   UNL     1      47.207   6.456  12.515  0.00  0.00    +0.000 A 
ATOM      5  C   UNL     1      47.526   5.533  13.521  0.00  0.00    +0.000 A 
ATOM      6  C   UNL     1      46.723   4.420  13.770  0.00  0.00    +0.000 A 
ATOM      7  C   UNL     1      45.551   4.233  13.044  0.00  0.00    +0.000 A 
ATOM      8  C   UNL     1      45.149   5.147  12.061  0.00  0.00    +0.000 A 
ATOM      9  C   UNL     1      45.999   6.244  11.820  0.00  0.00    +0.000 A 
BRANCH   4  13
ATOM     10  C   UNL     1      49.840   9.659  11.529  0.00  0.00    +0.000 A 
ATOM     11  C   UNL     1      50.217   8.337  11.689  0.00  0.00    +0.000 A 
ATOM     12  N   UNL     1      49.362   7.336  12.002  0.00  0.00    +0.000 NA
ATOM     13  C   UNL     1      48.043   7.640  12.197  0.00  0.00    +0.000 A 
ATOM     14  C   UNL     1      47.595   8.964  12.098  0.00  0.00    +0.000 A 
ATOM     15 CL   UNL     1      45.992   9.504  12.463  0.00  0.00    +0.000 Cl
ATOM     16  C   UNL     1      48.501   9.966  11.739  0.00  0.00    +0.000 A 
BRANCH  10  18
ATOM     17  C   UNL     1      51.854  10.036  10.350  0.00  0.00    +0.000 C 
ATOM     18  O   UNL     1      50.819  10.543  11.190  0.00  0.00    +0.000 OA
ENDBRANCH  10  18
ENDBRANCH   4  13
ENDBRANCH   1   8
BRANCH   1  19
ATOM     19  N   UNL     1      43.763   3.736  10.514  0.00  0.00    +0.000 N 
ATOM     20  H   UNL     1      43.371   2.952  11.040  0.00  0.00    +0.000 HD
BRANCH  19  21
ATOM     21  C   UNL     1      44.593   3.302   9.474  0.00  0.00    +0.000 A 
ATOM     22  C   UNL     1      44.993   1.982   9.267  0.00  0.00    +0.000 A 
ATOM     23  C   UNL     1      45.941   1.673   8.277  0.00  0.00    +0.000 A 
ATOM     24  C   UNL     1      46.518   2.683   7.494  0.00  0.00    +0.000 A 
ATOM     25  C   UNL     1      46.130   4.007   7.699  0.00  0.00    +0.000 A 
ATOM     26  C   UNL     1      45.185   4.303   8.680  0.00  0.00    +0.000 A 
BRANCH  24  27
ATOM     27  C   UNL     1      47.584   2.327   6.520  0.00  0.00    +0.000 C 
ATOM     28  N   UNL     1      47.719   3.116   5.410  0.00  0.00    +0.000 N 
ATOM     29  O   UNL     1      48.311   1.358   6.691  0.00  0.00    +0.000 OA
ATOM     30  H   UNL     1      47.048   3.818   5.137  0.00  0.00    +0.000 HD
ATOM     31  H   UNL     1      48.411   2.831   4.730  0.00  0.00    +0.000 HD
ENDBRANCH  24  27
ENDBRANCH  19  21
ENDBRANCH   1  19
TORSDOF 6
ENDMDL
MODEL 3
REMARK VINA RESULT:    -8.314      2.247      2.695
REMARK INTER + INTRA:         -11.542
REMARK INTER:                 -11.389
REMARK INTRA:                  -0.153
REMARK UNBOUND:                -0.311
REMARK  Name = 
REMARK  7 active torsions:
REMARK  status: ('A' for Active; 'I' for Inactive)
REMARK    1  A    between atoms: C_1  and  O_2
REMARK    2  A    between atoms: O_2  and  C_3
REMARK    3  A    between atoms: C_6  and  C_7
REMARK    4  A    between atoms: C_11  and  C_12
REMARK    5  A    between atoms: C_12  and  N_13
REMARK    6  A    between atoms: N_13  and  C_14
REMARK    7  A    between atoms: C_17  and  C_18
REMARK                            x       y       z     vdW  Elec       q    Type
REMARK                         _______ _______ _______ _____ _____    ______ ____
ROOT
ATOM      1  C   UNL     1      44.129   4.976  11.665  0.00  0.00    +0.000 C 
ATOM      2  C   UNL     1      43.380   4.396  12.844  0.00  0.00    +0.000 C 
ATOM      3  C   UNL     1      44.662   3.759  12.429  0.00  0.00    +0.000 C 
ENDROOT
BRANCH   1   8
ATOM      4  C   UNL     1      46.765   7.615  12.706  0.00  0.00    +0.000 A 
ATOM      5  C   UNL     1      46.170   8.769  12.181  0.00  0.00    +0.000 A 
ATOM      6  C   UNL     1      44.920   8.729  11.563  0.00  0.00    +0.000 A 
ATOM      7  C   UNL     1      44.257   7.515  11.415  0.00  0.00    +0.000 A 
ATOM      8  C   UNL     1      44.823   6.317  11.871  0.00  0.00    +0.000 A 
ATOM      9  C   UNL     1      46.073   6.401  12.514  0.00  0.00    +0.000 A 
BRANCH   4  13
ATOM     10  C   UNL     1      50.420   7.403  14.888  0.00  0.00    +0.000 A 
ATOM     11  C   UNL     1      49.206   6.896  15.316  0.00  0.00    +0.000 A 
ATOM     12  N   UNL     1      48.057   6.975  14.604  0.00  0.00    +0.000 NA
ATOM     13  C   UNL     1      48.080   7.612  13.394  0.00  0.00    +0.000 A 
ATOM     14  C   UNL     1      49.263   8.192  12.917  0.00  0.00    +0.000 A 
ATOM     15 CL   UNL     1      49.394   9.149  11.482  0.00  0.00    +0.000 Cl
ATOM     16  C   UNL     1      50.437   8.060  13.664  0.00  0.00    +0.000 A 
BRANCH  10  18
ATOM     17  C   UNL     1      51.199   7.170  17.108  0.00  0.00    +0.000 C 
ATOM     18  O   UNL     1      51.489   7.221  15.712  0.00  0.00    +0.000 OA
ENDBRANCH  10  18
ENDBRANCH   4  13
ENDBRANCH   1   8
BRANCH   1  19
ATOM     19  N   UNL     1      43.860   4.654  10.255  0.00  0.00    +0.000 N 
ATOM     20  H   UNL     1      42.862   4.604  10.038  0.00  0.00    +0.000 HD
BRANCH  19  21
ATOM     21  C   UNL     1      44.624   3.887   9.368  0.00  0.00    +0.000 A 
ATOM     22  C   UNL     1      44.694   2.494   9.370  0.00  0.00    +0.000 A 
ATOM     23  C   UNL     1      45.600   1.826   8.528  0.00  0.00    +0.000 A 
ATOM     24  C   UNL     1      46.464   2.544   7.689  0.00  0.00    +0.000 A 
ATOM     25  C   UNL     1      46.407   3.937   7.686  0.00  0.00    +0.000 A 
ATOM     26  C   UNL     1      45.501   4.590   8.520  0.00  0.00    +0.000 A 
BRANCH  24  27
ATOM     27  C   UNL     1      47.471   1.805   6.882  0.00  0.00    +0.000 C 
ATOM     28  N   UNL     1      48.554   2.505   6.423  0.00  0.00    +0.000 N 
ATOM     29  O   UNL     1      47.339   0.616   6.623  0.00  0.00    +0.000 OA
ATOM     30  H   UNL     1      48.629   3.510   6.462  0.00  0.00    +0.000 HD
ATOM     31  H   UNL     1      49.202   2.003   5.830  0.00  0.00    +0.000 HD
ENDBRANCH  24  27
ENDBRANCH  19  21
ENDBRANCH   1  19
TORSDOF 6
ENDMDL
MODEL 4
REMARK VINA RESULT:    -8.074      3.277      3.976
REMARK INTER + INTRA:         -11.217
REMARK INTER:                 -10.547
REMARK INTRA:                  -0.670
REMARK UNBOUND:                -0.311
REMARK  Name = 
REMARK  7 active torsions:
REMARK  status: ('A' for Active; 'I' for Inactive)
REMARK    1  A    between atoms: C_1  and  O_2
REMARK    2  A    between atoms: O_2  and  C_3
REMARK    3  A    between atoms: C_6  and  C_7
REMARK    4  A    between atoms: C_11  and  C_12
REMARK    5  A    between atoms: C_12  and  N_13
REMARK    6  A    between atoms: N_13  and  C_14
REMARK    7  A    between atoms: C_17  and  C_18
REMARK                            x       y       z     vdW  Elec       q    Type
REMARK                         _______ _______ _______ _____ _____    ______ ____
ROOT
ATOM      1  C   UNL     1      43.997   5.245  11.590  0.00  0.00    +0.000 C 
ATOM      2  C   UNL     1      43.158   4.816  12.773  0.00  0.00    +0.000 C 
ATOM      3  C   UNL     1      44.490   4.179  12.573  0.00  0.00    +0.000 C 
ENDROOT
BRANCH   1   8
ATOM      4  C   UNL     1      46.634   8.052  11.987  0.00  0.00    +0.000 A 
ATOM      5  C   UNL     1      45.846   9.168  11.671  0.00  0.00    +0.000 A 
ATOM      6  C   UNL     1      44.483   9.046  11.400  0.00  0.00    +0.000 A 
ATOM      7  C   UNL     1      43.887   7.789  11.393  0.00  0.00    +0.000 A 
ATOM      8  C   UNL     1      44.630   6.629  11.649  0.00  0.00    +0.000 A 
ATOM      9  C   UNL     1      45.996   6.795  11.945  0.00  0.00    +0.000 A 
BRANCH   4  13
ATOM     10  C   UNL     1      50.846   8.240  12.604  0.00  0.00    +0.000 A 
ATOM     11  C   UNL     1      50.229   7.799  11.447  0.00  0.00    +0.000 A 
ATOM     12  N   UNL     1      48.887   7.749  11.274  0.00  0.00    +0.000 NA
ATOM     13  C   UNL     1      48.080   8.135  12.308  0.00  0.00    +0.000 A 
ATOM     14  C   UNL     1      48.633   8.550  13.527  0.00  0.00    +0.000 A 
ATOM     15 CL   UNL     1      47.730   8.921  14.955  0.00  0.00    +0.000 Cl
ATOM     16  C   UNL     1      50.023   8.621  13.656  0.00  0.00    +0.000 A 
BRANCH  10  18
ATOM     17  C   UNL     1      52.839   8.102  11.340  0.00  0.00    +0.000 C 
ATOM     18  O   UNL     1      52.208   8.251  12.610  0.00  0.00    +0.000 OA
ENDBRANCH  10  18
ENDBRANCH   4  13
ENDBRANCH   1   8
BRANCH   1  19
ATOM     19  N   UNL     1      43.868   4.704  10.227  0.00  0.00    +0.000 N 
ATOM     20  H   UNL     1      42.922   4.383  10.010  0.00  0.00    +0.000 HD
BRANCH  19  21
ATOM     21  C   UNL     1      44.831   4.056   9.446  0.00  0.00    +0.000 A 
ATOM     22  C   UNL     1      45.685   4.685   8.541  0.00  0.00    +0.000 A 
ATOM     23  C   UNL     1      46.520   3.925   7.703  0.00  0.00    +0.000 A 
ATOM     24  C   UNL     1      46.495   2.524   7.745  0.00  0.00    +0.000 A 
ATOM     25  C   UNL     1      45.639   1.885   8.641  0.00  0.00    +0.000 A 
ATOM     26  C   UNL     1      44.819   2.647   9.471  0.00  0.00    +0.000 A 
BRANCH  24  27
ATOM     27  C   UNL     1      47.325   1.755   6.780  0.00  0.00    +0.000 C 
ATOM     28  N   UNL     1      48.348   2.416   6.154  0.00  0.00    +0.000 N 
ATOM     29  O   UNL     1      47.102   0.576   6.539  0.00  0.00    +0.000 OA
ATOM     30  H   UNL     1      48.471   3.416   6.187  0.00  0.00    +0.000 HD
ATOM     31  H   UNL     1      48.869   1.895   5.461  0.00  0.00    +0.000 HD
ENDBRANCH  24  27
ENDBRANCH  19  21
ENDBRANCH   1  19
TORSDOF 6
ENDMDL
MODEL 5
REMARK VINA RESULT:    -8.050      2.385      8.107
REMARK INTER + INTRA:         -11.185
REMARK INTER:                 -10.053
REMARK INTRA:                  -1.133
REMARK UNBOUND:                -0.311
REMARK  Name = 
REMARK  7 active torsions:
REMARK  status: ('A' for Active; 'I' for Inactive)
REMARK    1  A    between atoms: C_1  and  O_2
REMARK    2  A    between atoms: O_2  and  C_3
REMARK    3  A    between atoms: C_6  and  C_7
REMARK    4  A    between atoms: C_11  and  C_12
REMARK    5  A    between atoms: C_12  and  N_13
REMARK    6  A    between atoms: N_13  and  C_14
REMARK    7  A    between atoms: C_17  and  C_18
REMARK                            x       y       z     vdW  Elec       q    Type
REMARK                         _______ _______ _______ _____ _____    ______ ____
ROOT
ATOM      1  C   UNL     1      47.431   7.942  12.618  0.00  0.00    +0.000 C 
ATOM      2  C   UNL     1      47.330   9.422  12.912  0.00  0.00    +0.000 C 
ATOM      3  C   UNL     1      48.199   8.975  11.787  0.00  0.00    +0.000 C 
ENDROOT
BRANCH   1   8
ATOM      4  C   UNL     1      45.268   5.579  10.444  0.00  0.00    +0.000 A 
ATOM      5  C   UNL     1      43.990   5.948  10.886  0.00  0.00    +0.000 A 
ATOM      6  C   UNL     1      43.807   6.976  11.812  0.00  0.00    +0.000 A 
ATOM      7  C   UNL     1      44.910   7.628  12.352  0.00  0.00    +0.000 A 
ATOM      8  C   UNL     1      46.216   7.270  11.991  0.00  0.00    +0.000 A 
ATOM      9  C   UNL     1      46.360   6.248  11.035  0.00  0.00    +0.000 A 
BRANCH   4  13
ATOM     10  C   UNL     1      46.167   2.706   7.428  0.00  0.00    +0.000 A 
ATOM     11  C   UNL     1      46.530   4.041   7.391  0.00  0.00    +0.000 A 
ATOM     12  N   UNL     1      46.233   4.936   8.363  0.00  0.00    +0.000 NA
ATOM     13  C   UNL     1      45.511   4.511   9.443  0.00  0.00    +0.000 A 
ATOM     14  C   UNL     1      45.067   3.184   9.527  0.00  0.00    +0.000 A 
ATOM     15 CL   UNL     1      44.026   2.559  10.759  0.00  0.00    +0.000 Cl
ATOM     16  C   UNL     1      45.422   2.282   8.521  0.00  0.00    +0.000 A 
BRANCH  10  18
ATOM     17  C   UNL     1      47.887   2.158   5.901  0.00  0.00    +0.000 C 
ATOM     18  O   UNL     1      46.564   1.931   6.380  0.00  0.00    +0.000 OA
ENDBRANCH  10  18
ENDBRANCH   4  13
ENDBRANCH   1   8
BRANCH   1  19
ATOM     19  N   UNL     1      48.344   7.010  13.299  0.00  0.00    +0.000 N 
ATOM     20  H   UNL     1      49.017   6.573  12.666  0.00  0.00    +0.000 HD
BRANCH  19  21
ATOM     21  C   UNL     1      48.110   6.224  14.434  0.00  0.00    +0.000 A 
ATOM     22  C   UNL     1      48.726   6.403  15.672  0.00  0.00    +0.000 A 
ATOM     23  C   UNL     1      48.526   5.474  16.707  0.00  0.00    +0.000 A 
ATOM     24  C   UNL     1      47.724   4.341  16.510  0.00  0.00    +0.000 A 
ATOM     25  C   UNL     1      47.110   4.149  15.273  0.00  0.00    +0.000 A 
ATOM     26  C   UNL     1      47.310   5.079  14.254  0.00  0.00    +0.000 A 
BRANCH  24  27
ATOM     27  C   UNL     1      47.611   3.333  17.598  0.00  0.00    +0.000 C 
ATOM     28  N   UNL     1      48.665   3.212  18.463  0.00  0.00    +0.000 N 
ATOM     29  O   UNL     1      46.619   2.626  17.718  0.00  0.00    +0.000 OA
ATOM     30  H   UNL     1      49.564   3.644  18.315  0.00  0.00    +0.000 HD
ATOM     31  H   UNL     1      48.596   2.487  19.165  0.00  0.00    +0.000 HD
ENDBRANCH  24  27
ENDBRANCH  19  21
ENDBRANCH   1  19
TORSDOF 6
ENDMDL
MODEL 6
REMARK VINA RESULT:    -7.475      3.453      8.431
REMARK INTER + INTRA:         -10.407
REMARK INTER:                  -9.615
REMARK INTRA:                  -0.792
REMARK UNBOUND:                -0.311
REMARK  Name = 
REMARK  7 active torsions:
REMARK  status: ('A' for Active; 'I' for Inactive)
REMARK    1  A    between atoms: C_1  and  O_2
REMARK    2  A    between atoms: O_2  and  C_3
REMARK    3  A    between atoms: C_6  and  C_7
REMARK    4  A    between atoms: C_11  and  C_12
REMARK    5  A    between atoms: C_12  and  N_13
REMARK    6  A    between atoms: N_13  and  C_14
REMARK    7  A    between atoms: C_17  and  C_18
REMARK                            x       y       z     vdW  Elec       q    Type
REMARK                         _______ _______ _______ _____ _____    ______ ____
ROOT
ATOM      1  C   UNL     1      48.367   4.711  17.411  0.00  0.00    +0.000 C 
ATOM      2  C   UNL     1      47.221   3.816  17.825  0.00  0.00    +0.000 C 
ATOM      3  C   UNL     1      47.406   5.114  18.533  0.00  0.00    +0.000 C 
ENDROOT
BRANCH   1   8
ATOM      4  C   UNL     1      47.206   5.592  13.823  0.00  0.00    +0.000 A 
ATOM      5  C   UNL     1      47.938   6.769  13.616  0.00  0.00    +0.000 A 
ATOM      6  C   UNL     1      48.838   7.245  14.569  0.00  0.00    +0.000 A 
ATOM      7  C   UNL     1      48.990   6.574  15.778  0.00  0.00    +0.000 A 
ATOM      8  C   UNL     1      48.248   5.421  16.068  0.00  0.00    +0.000 A 
ATOM      9  C   UNL     1      47.370   4.956  15.072  0.00  0.00    +0.000 A 
BRANCH   4  13
ATOM     10  C   UNL     1      44.501   3.711  11.121  0.00  0.00    +0.000 A 
ATOM     11  C   UNL     1      45.280   3.052  12.055  0.00  0.00    +0.000 A 
ATOM     12  N   UNL     1      46.133   3.672  12.904  0.00  0.00    +0.000 NA
ATOM     13  C   UNL     1      46.257   5.032  12.830  0.00  0.00    +0.000 A 
ATOM     14  C   UNL     1      45.534   5.762  11.876  0.00  0.00    +0.000 A 
ATOM     15 CL   UNL     1      45.708   7.457  11.578  0.00  0.00    +0.000 Cl
ATOM     16  C   UNL     1      44.638   5.091  11.039  0.00  0.00    +0.000 A 
BRANCH  10  18
ATOM     17  C   UNL     1      44.310   2.148   9.357  0.00  0.00    +0.000 C 
ATOM     18  O   UNL     1      43.676   2.943  10.356  0.00  0.00    +0.000 OA
ENDBRANCH  10  18
ENDBRANCH   4  13
ENDBRANCH   1   8
BRANCH   1  19
ATOM     19  N   UNL     1      49.750   4.590  17.901  0.00  0.00    +0.000 N 
ATOM     20  H   UNL     1      50.230   5.489  17.976  0.00  0.00    +0.000 HD
BRANCH  19  21
ATOM     21  C   UNL     1      50.651   3.532  17.734  0.00  0.00    +0.000 A 
ATOM     22  C   UNL     1      50.308   2.248  17.313  0.00  0.00    +0.000 A 
ATOM     23  C   UNL     1      51.266   1.219  17.313  0.00  0.00    +0.000 A 
ATOM     24  C   UNL     1      52.575   1.457  17.754  0.00  0.00    +0.000 A 
ATOM     25  C   UNL     1      52.926   2.736  18.184  0.00  0.00    +0.000 A 
ATOM     26  C   UNL     1      51.970   3.751  18.176  0.00  0.00    +0.000 A 
BRANCH  24  27
ATOM     27  C   UNL     1      53.534   0.323  17.825  0.00  0.00    +0.000 C 
ATOM     28  N   UNL     1      53.848  -0.317  16.657  0.00  0.00    +0.000 N 
ATOM     29  O   UNL     1      54.022  -0.040  18.888  0.00  0.00    +0.000 OA
ATOM     30  H   UNL     1      53.355  -0.173  15.789  0.00  0.00    +0.000 HD
ATOM     31  H   UNL     1      54.459  -1.120  16.728  0.00  0.00    +0.000 HD
ENDBRANCH  24  27
ENDBRANCH  19  21
ENDBRANCH   1  19
TORSDOF 6
ENDMDL
MODEL 7
REMARK VINA RESULT:    -7.472      2.974      4.681
REMARK INTER + INTRA:         -10.404
REMARK INTER:                  -9.152
REMARK INTRA:                  -1.252
REMARK UNBOUND:                -0.311
REMARK  Name = 
REMARK  7 active torsions:
REMARK  status: ('A' for Active; 'I' for Inactive)
REMARK    1  A    between atoms: C_1  and  O_2
REMARK    2  A    between atoms: O_2  and  C_3
REMARK    3  A    between atoms: C_6  and  C_7
REMARK    4  A    between atoms: C_11  and  C_12
REMARK    5  A    between atoms: C_12  and  N_13
REMARK    6  A    between atoms: N_13  and  C_14
REMARK    7  A    between atoms: C_17  and  C_18
REMARK                            x       y       z     vdW  Elec       q    Type
REMARK                         _______ _______ _______ _____ _____    ______ ____
ROOT
ATOM      1  C   UNL     1      47.943   7.885  12.835  0.00  0.00    +0.000 C 
ATOM      2  C   UNL     1      49.056   7.541  11.871  0.00  0.00    +0.000 C 
ATOM      3  C   UNL     1      48.617   8.961  11.978  0.00  0.00    +0.000 C 
ENDROOT
BRANCH   1   8
ATOM      4  C   UNL     1      49.228   6.630  16.266  0.00  0.00    +0.000 A 
ATOM      5  C   UNL     1      48.967   7.763  17.048  0.00  0.00    +0.000 A 
ATOM      6  C   UNL     1      48.334   8.887  16.518  0.00  0.00    +0.000 A 
ATOM      7  C   UNL     1      47.988   8.918  15.170  0.00  0.00    +0.000 A 
ATOM      8  C   UNL     1      48.269   7.838  14.322  0.00  0.00    +0.000 A 
ATOM      9  C   UNL     1      48.884   6.712  14.900  0.00  0.00    +0.000 A 
BRANCH   4  13
ATOM     10  C   UNL     1      51.352   3.271  17.801  0.00  0.00    +0.000 A 
ATOM     11  C   UNL     1      51.931   4.454  17.378  0.00  0.00    +0.000 A 
ATOM     12  N   UNL     1      51.234   5.509  16.894  0.00  0.00    +0.000 NA
ATOM     13  C   UNL     1      49.875   5.403  16.791  0.00  0.00    +0.000 A 
ATOM     14  C   UNL     1      49.223   4.218  17.156  0.00  0.00    +0.000 A 
ATOM     15 CL   UNL     1      47.537   3.900  16.938  0.00  0.00    +0.000 Cl
ATOM     16  C   UNL     1      49.972   3.162  17.684  0.00  0.00    +0.000 A 
BRANCH  10  18
ATOM     17  C   UNL     1      52.036   1.008  17.732  0.00  0.00    +0.000 C 
ATOM     18  O   UNL     1      52.192   2.313  18.285  0.00  0.00    +0.000 OA
ENDBRANCH  10  18
ENDBRANCH   4  13
ENDBRANCH   1   8
BRANCH   1  19
ATOM     19  N   UNL     1      46.506   7.776  12.535  0.00  0.00    +0.000 N 
ATOM     20  H   UNL     1      45.943   8.491  13.001  0.00  0.00    +0.000 HD
BRANCH  19  21
ATOM     21  C   UNL     1      45.756   6.632  12.240  0.00  0.00    +0.000 A 
ATOM     22  C   UNL     1      45.215   5.764  13.186  0.00  0.00    +0.000 A 
ATOM     23  C   UNL     1      44.596   4.567  12.784  0.00  0.00    +0.000 A 
ATOM     24  C   UNL     1      44.531   4.213  11.429  0.00  0.00    +0.000 A 
ATOM     25  C   UNL     1      45.076   5.072  10.475  0.00  0.00    +0.000 A 
ATOM     26  C   UNL     1      45.681   6.259  10.883  0.00  0.00    +0.000 A 
BRANCH  24  27
ATOM     27  C   UNL     1      43.951   2.897  11.050  0.00  0.00    +0.000 C 
ATOM     28  N   UNL     1      44.515   2.236   9.992  0.00  0.00    +0.000 N 
ATOM     29  O   UNL     1      42.997   2.419  11.650  0.00  0.00    +0.000 OA
ATOM     30  H   UNL     1      45.185   2.653   9.364  0.00  0.00    +0.000 HD
ATOM     31  H   UNL     1      44.077   1.369   9.712  0.00  0.00    +0.000 HD
ENDBRANCH  24  27
ENDBRANCH  19  21
ENDBRANCH   1  19
TORSDOF 6
ENDMDL
MODEL 8
REMARK VINA RESULT:    -7.395      2.452      8.217
REMARK INTER + INTRA:         -10.300
REMARK INTER:                  -8.920
REMARK INTRA:                  -1.380
REMARK UNBOUND:                -0.311
REMARK  Name = 
REMARK  7 active torsions:
REMARK  status: ('A' for Active; 'I' for Inactive)
REMARK    1  A    between atoms: C_1  and  O_2
REMARK    2  A    between atoms: O_2  and  C_3
REMARK    3  A    between atoms: C_6  and  C_7
REMARK    4  A    between atoms: C_11  and  C_12
REMARK    5  A    between atoms: C_12  and  N_13
REMARK    6  A    between atoms: N_13  and  C_14
REMARK    7  A    between atoms: C_17  and  C_18
REMARK                            x       y       z     vdW  Elec       q    Type
REMARK                         _______ _______ _______ _____ _____    ______ ____
ROOT
ATOM      1  C   UNL     1      49.061   8.417  12.707  0.00  0.00    +0.000 C 
ATOM      2  C   UNL     1      49.624   9.815  12.586  0.00  0.00    +0.000 C 
ATOM      3  C   UNL     1      50.054   8.784  11.600  0.00  0.00    +0.000 C 
ENDROOT
BRANCH   1   8
ATOM      4  C   UNL     1      45.800   6.762  11.435  0.00  0.00    +0.000 A 
ATOM      5  C   UNL     1      44.887   7.790  11.706  0.00  0.00    +0.000 A 
ATOM      6  C   UNL     1      45.303   9.017  12.222  0.00  0.00    +0.000 A 
ATOM      7  C   UNL     1      46.644   9.224  12.526  0.00  0.00    +0.000 A 
ATOM      8  C   UNL     1      47.599   8.218  12.328  0.00  0.00    +0.000 A 
ATOM      9  C   UNL     1      47.146   7.003  11.780  0.00  0.00    +0.000 A 
BRANCH   4  13
ATOM     10  C   UNL     1      44.840   3.072   9.531  0.00  0.00    +0.000 A 
ATOM     11  C   UNL     1      45.412   4.166   8.907  0.00  0.00    +0.000 A 
ATOM     12  N   UNL     1      45.709   5.329   9.533  0.00  0.00    +0.000 NA
ATOM     13  C   UNL     1      45.409   5.450  10.862  0.00  0.00    +0.000 A 
ATOM     14  C   UNL     1      44.786   4.401  11.551  0.00  0.00    +0.000 A 
ATOM     15 CL   UNL     1      44.222   4.478  13.184  0.00  0.00    +0.000 Cl
ATOM     16  C   UNL     1      44.526   3.203  10.878  0.00  0.00    +0.000 A 
BRANCH  10  18
ATOM     17  C   UNL     1      45.793   1.315   8.269  0.00  0.00    +0.000 C 
ATOM     18  O   UNL     1      44.626   1.967   8.765  0.00  0.00    +0.000 OA
ENDBRANCH  10  18
ENDBRANCH   4  13
ENDBRANCH   1   8
BRANCH   1  19
ATOM     19  N   UNL     1      49.597   7.368  13.590  0.00  0.00    +0.000 N 
ATOM     20  H   UNL     1      50.041   6.602  13.078  0.00  0.00    +0.000 HD
BRANCH  19  21
ATOM     21  C   UNL     1      49.137   6.958  14.846  0.00  0.00    +0.000 A 
ATOM     22  C   UNL     1      49.547   7.498  16.064  0.00  0.00    +0.000 A 
ATOM     23  C   UNL     1      49.129   6.920  17.276  0.00  0.00    +0.000 A 
ATOM     24  C   UNL     1      48.312   5.781  17.283  0.00  0.00    +0.000 A 
ATOM     25  C   UNL     1      47.903   5.229  16.070  0.00  0.00    +0.000 A 
ATOM     26  C   UNL     1      48.318   5.812  14.874  0.00  0.00    +0.000 A 
BRANCH  24  27
ATOM     27  C   UNL     1      47.966   5.145  18.583  0.00  0.00    +0.000 C 
ATOM     28  N   UNL     1      46.735   5.417  19.115  0.00  0.00    +0.000 N 
ATOM     29  O   UNL     1      48.753   4.412  19.168  0.00  0.00    +0.000 OA
ATOM     30  H   UNL     1      46.120   6.137  18.766  0.00  0.00    +0.000 HD
ATOM     31  H   UNL     1      46.535   5.022  20.024  0.00  0.00    +0.000 HD
ENDBRANCH  24  27
ENDBRANCH  19  21
ENDBRANCH   1  19
TORSDOF 6
ENDMDL
MODEL 9
REMARK VINA RESULT:    -7.251      3.079      8.152
REMARK INTER + INTRA:         -10.105
REMARK INTER:                  -8.512
REMARK INTRA:                  -1.593
REMARK UNBOUND:                -0.311
REMARK  Name = 
REMARK  7 active torsions:
REMARK  status: ('A' for Active; 'I' for Inactive)
REMARK    1  A    between atoms: C_1  and  O_2
REMARK    2  A    between atoms: O_2  and  C_3
REMARK    3  A    between atoms: C_6  and  C_7
REMARK    4  A    between atoms: C_11  and  C_12
REMARK    5  A    between atoms: C_12  and  N_13
REMARK    6  A    between atoms: N_13  and  C_14
REMARK    7  A    between atoms: C_17  and  C_18
REMARK                            x       y       z     vdW  Elec       q    Type
REMARK                         _______ _______ _______ _____ _____    ______ ____
ROOT
ATOM      1  C   UNL     1      49.020   8.573  17.066  0.00  0.00    +0.000 C 
ATOM      2  C   UNL     1      47.886   9.525  17.375  0.00  0.00    +0.000 C 
ATOM      3  C   UNL     1      49.281  10.045  17.400  0.00  0.00    +0.000 C 
ENDROOT
BRANCH   1   8
ATOM      4  C   UNL     1      48.218   7.065  13.591  0.00  0.00    +0.000 A 
ATOM      5  C   UNL     1      49.412   7.363  12.919  0.00  0.00    +0.000 A 
ATOM      6  C   UNL     1      50.483   7.973  13.571  0.00  0.00    +0.000 A 
ATOM      7  C   UNL     1      50.364   8.344  14.906  0.00  0.00    +0.000 A 
ATOM      8  C   UNL     1      49.178   8.122  15.620  0.00  0.00    +0.000 A 
ATOM      9  C   UNL     1      48.129   7.480  14.936  0.00  0.00    +0.000 A 
BRANCH   4  13
ATOM     10  C   UNL     1      44.907   5.359  11.521  0.00  0.00    +0.000 A 
ATOM     11  C   UNL     1      45.453   6.604  11.263  0.00  0.00    +0.000 A 
ATOM     12  N   UNL     1      46.506   7.125  11.935  0.00  0.00    +0.000 NA
ATOM     13  C   UNL     1      47.062   6.394  12.948  0.00  0.00    +0.000 A 
ATOM     14  C   UNL     1      46.533   5.144  13.297  0.00  0.00    +0.000 A 
ATOM     15 CL   UNL     1      47.044   4.189  14.646  0.00  0.00    +0.000 Cl
ATOM     16  C   UNL     1      45.467   4.624  12.559  0.00  0.00    +0.000 A 
BRANCH  10  18
ATOM     17  C   UNL     1      44.196   4.194   9.590  0.00  0.00    +0.000 C 
ATOM     18  O   UNL     1      43.862   4.970  10.738  0.00  0.00    +0.000 OA
ENDBRANCH  10  18
ENDBRANCH   4  13
ENDBRANCH   1   8
BRANCH   1  19
ATOM     19  N   UNL     1      49.655   7.676  18.045  0.00  0.00    +0.000 N 
ATOM     20  H   UNL     1      50.333   8.151  18.644  0.00  0.00    +0.000 HD
BRANCH  19  21
ATOM     21  C   UNL     1      49.927   6.308  17.933  0.00  0.00    +0.000 A 
ATOM     22  C   UNL     1      51.181   5.761  17.663  0.00  0.00    +0.000 A 
ATOM     23  C   UNL     1      51.320   4.381  17.432  0.00  0.00    +0.000 A 
ATOM     24  C   UNL     1      50.203   3.534  17.447  0.00  0.00    +0.000 A 
ATOM     25  C   UNL     1      48.944   4.073  17.709  0.00  0.00    +0.000 A 
ATOM     26  C   UNL     1      48.817   5.441  17.943  0.00  0.00    +0.000 A 
BRANCH  24  27
ATOM     27  C   UNL     1      50.378   2.096  17.108  0.00  0.00    +0.000 C 
ATOM     28  N   UNL     1      51.244   1.364  17.874  0.00  0.00    +0.000 N 
ATOM     29  O   UNL     1      49.781   1.581  16.172  0.00  0.00    +0.000 OA
ATOM     30  H   UNL     1      51.881   1.770  18.543  0.00  0.00    +0.000 HD
ATOM     31  H   UNL     1      51.394   0.402  17.599  0.00  0.00    +0.000 HD
ENDBRANCH  24  27
ENDBRANCH  19  21
ENDBRANCH   1  19
TORSDOF 6
ENDMDL
