MODEL 1
REMARK VINA RESULT:    -8.265      0.000      0.000
REMARK INTER + INTRA:         -10.647
REMARK INTER:                 -10.197
REMARK INTRA:                  -0.449
REMARK UNBOUND:                -0.449
REMARK  Name = 
REMARK  5 active torsions:
REMARK  status: ('A' for Active; 'I' for Inactive)
REMARK    1  A    between atoms: C_1  and  C_2
REMARK    2  A    between atoms: C_2  and  C_3
REMARK    3  A    between atoms: C_11  and  N_12
REMARK    4  A    between atoms: N_12  and  C_13
REMARK    5  A    between atoms: C_16  and  C_17
REMARK                            x       y       z     vdW  Elec       q    Type
REMARK                         _______ _______ _______ _____ _____    ______ ____
ROOT
ATOM      1  N   UNL     1      43.777   3.357  10.304  0.00  0.00    +0.000 N 
ATOM      2  H   UNL     1      43.037   3.995  10.013  0.00  0.00    +0.000 HD
ENDROOT
BRANCH   1   7
ATOM      3  C   UNL     1      46.026   4.768  13.973  0.00  0.00    +0.000 C 
ATOM      4  C   UNL     1      45.452   5.541  12.770  0.00  0.00    +0.000 C 
ATOM      5  C   UNL     1      43.932   5.747  12.913  0.00  0.00    +0.000 C 
ATOM      6  C   UNL     1      43.289   4.430  12.489  0.00  0.00    +0.000 C 
ATOM      7  C   UNL     1      44.322   3.700  11.620  0.00  0.00    +0.000 C 
ATOM      8  C   UNL     1      45.495   4.683  11.487  0.00  0.00    +0.000 C 
BRANCH   4   9
ATOM      9  C   UNL     1      46.224   6.845  12.614  0.00  0.00    +0.000 A 
ATOM     10  C   UNL     1      47.569   6.855  12.237  0.00  0.00    +0.000 A 
ATOM     11  C   UNL     1      48.239   8.071  12.126  0.00  0.00    +0.000 A 
ATOM     12  C   UNL     1      47.552   9.249  12.372  0.00  0.00    +0.000 A 
ATOM     13  C   UNL     1      46.214   9.163  12.709  0.00  0.00    +0.000 A 
ATOM     14  N   UNL     1      45.539   7.996  12.829  0.00  0.00    +0.000 NA
ENDBRANCH   4   9
ENDBRANCH   1   7
BRANCH   1  15
ATOM     15  C   UNL     1      44.675   3.115   9.255  0.00  0.00    +0.000 A 
ATOM     16  C   UNL     1      45.286   1.860   9.155  0.00  0.00    +0.000 A 
ATOM     17  C   UNL     1      46.199   1.592   8.134  0.00  0.00    +0.000 A 
ATOM     18  C   UNL     1      46.512   2.612   7.250  0.00  0.00    +0.000 A 
ATOM     19  N   UNL     1      45.998   3.868   7.335  0.00  0.00    +0.000 NA
ATOM     20  C   UNL     1      45.116   4.080   8.344  0.00  0.00    +0.000 A 
BRANCH  18  21
ATOM     21  C   UNL     1      47.454   2.354   6.116  0.00  0.00    +0.000 C 
ATOM     22  N   UNL     1      47.291   3.163   5.023  0.00  0.00    +0.000 N 
ATOM     23  O   UNL     1      48.311   1.480   6.148  0.00  0.00    +0.000 OA
ATOM     24  H   UNL     1      46.562   3.868   5.031  0.00  0.00    +0.000 HD
ATOM     25  H   UNL     1      47.877   3.034   4.212  0.00  0.00    +0.000 HD
ENDBRANCH  18  21
ENDBRANCH   1  15
TORSDOF 4
ENDMDL
MODEL 2
REMARK VINA RESULT:    -7.250      1.774      2.427
REMARK INTER + INTRA:          -9.395
REMARK INTER:                  -9.001
REMARK INTRA:                  -0.394
REMARK UNBOUND:                -0.449
REMARK  Name = 
REMARK  5 active torsions:
REMARK  status: ('A' for Active; 'I' for Inactive)
REMARK    1  A    between atoms: C_1  and  C_2
REMARK    2  A    between atoms: C_2  and  C_3
REMARK    3  A    between atoms: C_11  and  N_12
REMARK    4  A    between atoms: N_12  and  C_13
REMARK    5  A    between atoms: C_16  and  C_17
REMARK                            x       y       z     vdW  Elec       q    Type
REMARK                         _______ _______ _______ _____ _____    ______ ____
ROOT
ATOM      1  N   UNL     1      43.684   4.783   9.253  0.00  0.00    +0.000 N 
ATOM      2  H   UNL     1      43.923   5.723   8.940  0.00  0.00    +0.000 HD
ENDROOT
BRANCH   1   7
ATOM      3  C   UNL     1      43.439   4.339  13.753  0.00  0.00    +0.000 C 
ATOM      4  C   UNL     1      44.442   5.091  12.856  0.00  0.00    +0.000 C 
ATOM      5  C   UNL     1      43.863   6.437  12.379  0.00  0.00    +0.000 C 
ATOM      6  C   UNL     1      42.933   6.104  11.216  0.00  0.00    +0.000 C 
ATOM      7  C   UNL     1      43.374   4.734  10.684  0.00  0.00    +0.000 C 
ATOM      8  C   UNL     1      44.622   4.373  11.502  0.00  0.00    +0.000 C 
BRANCH   4   9
ATOM      9  C   UNL     1      45.758   5.235  13.611  0.00  0.00    +0.000 A 
ATOM     10  C   UNL     1      46.630   6.295  13.356  0.00  0.00    +0.000 A 
ATOM     11  C   UNL     1      47.831   6.376  14.057  0.00  0.00    +0.000 A 
ATOM     12  C   UNL     1      48.127   5.413  15.009  0.00  0.00    +0.000 A 
ATOM     13  C   UNL     1      47.200   4.411  15.230  0.00  0.00    +0.000 A 
ATOM     14  N   UNL     1      46.028   4.306  14.561  0.00  0.00    +0.000 NA
ENDBRANCH   4   9
ENDBRANCH   1   7
BRANCH   1  15
ATOM     15  C   UNL     1      44.579   3.837   8.734  0.00  0.00    +0.000 A 
ATOM     16  C   UNL     1      44.436   2.492   9.094  0.00  0.00    +0.000 A 
ATOM     17  C   UNL     1      45.321   1.527   8.611  0.00  0.00    +0.000 A 
ATOM     18  C   UNL     1      46.365   1.944   7.799  0.00  0.00    +0.000 A 
ATOM     19  N   UNL     1      46.590   3.243   7.466  0.00  0.00    +0.000 NA
ATOM     20  C   UNL     1      45.704   4.143   7.960  0.00  0.00    +0.000 A 
BRANCH  18  21
ATOM     21  C   UNL     1      47.312   0.937   7.225  0.00  0.00    +0.000 C 
ATOM     22  N   UNL     1      47.088  -0.360   7.604  0.00  0.00    +0.000 N 
ATOM     23  O   UNL     1      48.230   1.239   6.474  0.00  0.00    +0.000 OA
ATOM     24  H   UNL     1      46.324  -0.568   8.238  0.00  0.00    +0.000 HD
ATOM     25  H   UNL     1      47.699  -1.091   7.273  0.00  0.00    +0.000 HD
ENDBRANCH  18  21
ENDBRANCH   1  15
TORSDOF 4
ENDMDL
MODEL 3
REMARK VINA RESULT:    -7.161      3.295      7.135
REMARK INTER + INTRA:          -9.285
REMARK INTER:                  -9.024
REMARK INTRA:                  -0.261
REMARK UNBOUND:                -0.449
REMARK  Name = 
REMARK  5 active torsions:
REMARK  status: ('A' for Active; 'I' for Inactive)
REMARK    1  A    between atoms: C_1  and  C_2
REMARK    2  A    between atoms: C_2  and  C_3
REMARK    3  A    between atoms: C_11  and  N_12
REMARK    4  A    between atoms: N_12  and  C_13
REMARK    5  A    between atoms: C_16  and  C_17
REMARK                            x       y       z     vdW  Elec       q    Type
REMARK                         _______ _______ _______ _____ _____    ______ ____
ROOT
ATOM      1  N   UNL     1      45.336   3.663  13.213  0.00  0.00    +0.000 N 
ATOM      2  H   UNL     1      45.689   2.708  13.265  0.00  0.00    +0.000 HD
ENDROOT
BRANCH   1   7
ATOM      3  C   UNL     1      44.009   4.511   8.967  0.00  0.00    +0.000 C 
ATOM      4  C   UNL     1      44.828   3.351   9.566  0.00  0.00    +0.000 C 
ATOM      5  C   UNL     1      43.914   2.323  10.259  0.00  0.00    +0.000 C 
ATOM      6  C   UNL     1      43.580   2.913  11.626  0.00  0.00    +0.000 C 
ATOM      7  C   UNL     1      44.675   3.943  11.935  0.00  0.00    +0.000 C 
ATOM      8  C   UNL     1      45.668   3.829  10.770  0.00  0.00    +0.000 C 
BRANCH   4   9
ATOM      9  C   UNL     1      45.691   2.745   8.467  0.00  0.00    +0.000 A 
ATOM     10  C   UNL     1      46.138   3.509   7.387  0.00  0.00    +0.000 A 
ATOM     11  C   UNL     1      46.909   2.907   6.396  0.00  0.00    +0.000 A 
ATOM     12  C   UNL     1      47.236   1.565   6.512  0.00  0.00    +0.000 A 
ATOM     13  C   UNL     1      46.785   0.881   7.625  0.00  0.00    +0.000 A 
ATOM     14  N   UNL     1      46.031   1.439   8.601  0.00  0.00    +0.000 NA
ENDBRANCH   4   9
ENDBRANCH   1   7
BRANCH   1  15
ATOM     15  C   UNL     1      46.287   4.578  13.684  0.00  0.00    +0.000 A 
ATOM     16  C   UNL     1      46.530   5.748  12.955  0.00  0.00    +0.000 A 
ATOM     17  C   UNL     1      47.484   6.671  13.385  0.00  0.00    +0.000 A 
ATOM     18  C   UNL     1      48.208   6.379  14.531  0.00  0.00    +0.000 A 
ATOM     19  N   UNL     1      48.060   5.231  15.245  0.00  0.00    +0.000 NA
ATOM     20  C   UNL     1      47.122   4.365  14.787  0.00  0.00    +0.000 A 
BRANCH  18  21
ATOM     21  C   UNL     1      49.211   7.361  15.050  0.00  0.00    +0.000 C 
ATOM     22  N   UNL     1      50.405   7.389  14.381  0.00  0.00    +0.000 N 
ATOM     23  O   UNL     1      48.993   8.088  16.011  0.00  0.00    +0.000 OA
ATOM     24  H   UNL     1      50.550   6.762  13.597  0.00  0.00    +0.000 HD
ATOM     25  H   UNL     1      51.137   8.012  14.687  0.00  0.00    +0.000 HD
ENDBRANCH  18  21
ENDBRANCH   1  15
TORSDOF 4
ENDMDL
MODEL 4
REMARK VINA RESULT:    -7.152      1.913      2.953
REMARK INTER + INTRA:          -9.274
REMARK INTER:                  -9.127
REMARK INTRA:                  -0.147
REMARK UNBOUND:                -0.449
REMARK  Name = 
REMARK  5 active torsions:
REMARK  status: ('A' for Active; 'I' for Inactive)
REMARK    1  A    between atoms: C_1  and  C_2
REMARK    2  A    between atoms: C_2  and  C_3
REMARK    3  A    between atoms: C_11  and  N_12
REMARK    4  A    between atoms: N_12  and  C_13
REMARK    5  A    between atoms: C_16  and  C_17
REMARK                            x       y       z     vdW  Elec       q    Type
REMARK                         _______ _______ _______ _____ _____    ______ ____
ROOT
ATOM      1  N   UNL     1      43.832   4.674  10.283  0.00  0.00    +0.000 N 
ATOM      2  H   UNL     1      42.996   4.934   9.762  0.00  0.00    +0.000 HD
ENDROOT
BRANCH   1   7
ATOM      3  C   UNL     1      45.660   7.789  13.014  0.00  0.00    +0.000 C 
ATOM      4  C   UNL     1      46.040   6.320  12.747  0.00  0.00    +0.000 C 
ATOM      5  C   UNL     1      46.826   6.178  11.429  0.00  0.00    +0.000 C 
ATOM      6  C   UNL     1      45.785   6.207  10.315  0.00  0.00    +0.000 C 
ATOM      7  C   UNL     1      44.446   5.820  10.959  0.00  0.00    +0.000 C 
ATOM      8  C   UNL     1      44.791   5.475  12.415  0.00  0.00    +0.000 C 
BRANCH   4   9
ATOM      9  C   UNL     1      46.792   5.782  13.957  0.00  0.00    +0.000 A 
ATOM     10  C   UNL     1      47.851   6.491  14.530  0.00  0.00    +0.000 A 
ATOM     11  C   UNL     1      48.521   5.951  15.625  0.00  0.00    +0.000 A 
ATOM     12  C   UNL     1      48.112   4.730  16.137  0.00  0.00    +0.000 A 
ATOM     13  C   UNL     1      47.036   4.102  15.538  0.00  0.00    +0.000 A 
ATOM     14  N   UNL     1      46.369   4.601  14.471  0.00  0.00    +0.000 NA
ENDBRANCH   4   9
ENDBRANCH   1   7
BRANCH   1  15
ATOM     15  C   UNL     1      44.655   3.828   9.526  0.00  0.00    +0.000 A 
ATOM     16  C   UNL     1      45.183   4.294   8.316  0.00  0.00    +0.000 A 
ATOM     17  C   UNL     1      45.990   3.471   7.529  0.00  0.00    +0.000 A 
ATOM     18  C   UNL     1      46.221   2.173   7.958  0.00  0.00    +0.000 A 
ATOM     19  N   UNL     1      45.685   1.647   9.091  0.00  0.00    +0.000 NA
ATOM     20  C   UNL     1      44.907   2.485   9.822  0.00  0.00    +0.000 A 
BRANCH  18  21
ATOM     21  C   UNL     1      47.114   1.273   7.165  0.00  0.00    +0.000 C 
ATOM     22  N   UNL     1      48.284   1.840   6.732  0.00  0.00    +0.000 N 
ATOM     23  O   UNL     1      46.829   0.110   6.907  0.00  0.00    +0.000 OA
ATOM     24  H   UNL     1      48.478   2.810   6.956  0.00  0.00    +0.000 HD
ATOM     25  H   UNL     1      48.926   1.299   6.174  0.00  0.00    +0.000 HD
ENDBRANCH  18  21
ENDBRANCH   1  15
TORSDOF 4
ENDMDL
MODEL 5
REMARK VINA RESULT:    -6.758      2.907      6.716
REMARK INTER + INTRA:          -8.788
REMARK INTER:                  -8.198
REMARK INTRA:                  -0.590
REMARK UNBOUND:                -0.449
REMARK  Name = 
REMARK  5 active torsions:
REMARK  status: ('A' for Active; 'I' for Inactive)
REMARK    1  A    between atoms: C_1  and  C_2
REMARK    2  A    between atoms: C_2  and  C_3
REMARK    3  A    between atoms: C_11  and  N_12
REMARK    4  A    between atoms: N_12  and  C_13
REMARK    5  A    between atoms: C_16  and  C_17
REMARK                            x       y       z     vdW  Elec       q    Type
REMARK                         _______ _______ _______ _____ _____    ______ ____
ROOT
ATOM      1  N   UNL     1      46.414   6.339  13.549  0.00  0.00    +0.000 N 
ATOM      2  H   UNL     1      47.035   5.603  13.885  0.00  0.00    +0.000 HD
ENDROOT
BRANCH   1   7
ATOM      3  C   UNL     1      43.305   4.806  10.636  0.00  0.00    +0.000 C 
ATOM      4  C   UNL     1      44.763   4.377  10.889  0.00  0.00    +0.000 C 
ATOM      5  C   UNL     1      44.873   3.481  12.137  0.00  0.00    +0.000 C 
ATOM      6  C   UNL     1      44.847   4.425  13.335  0.00  0.00    +0.000 C 
ATOM      7  C   UNL     1      45.267   5.805  12.810  0.00  0.00    +0.000 C 
ATOM      8  C   UNL     1      45.625   5.577  11.334  0.00  0.00    +0.000 C 
BRANCH   4   9
ATOM      9  C   UNL     1      45.304   3.719   9.626  0.00  0.00    +0.000 A 
ATOM     10  C   UNL     1      45.802   4.478   8.565  0.00  0.00    +0.000 A 
ATOM     11  C   UNL     1      46.269   3.833   7.422  0.00  0.00    +0.000 A 
ATOM     12  C   UNL     1      46.249   2.448   7.368  0.00  0.00    +0.000 A 
ATOM     13  C   UNL     1      45.772   1.763   8.470  0.00  0.00    +0.000 A 
ATOM     14  N   UNL     1      45.308   2.363   9.591  0.00  0.00    +0.000 NA
ENDBRANCH   4   9
ENDBRANCH   1   7
BRANCH   1  15
ATOM     15  C   UNL     1      47.144   7.390  12.976  0.00  0.00    +0.000 A 
ATOM     16  C   UNL     1      48.397   7.124  12.412  0.00  0.00    +0.000 A 
ATOM     17  C   UNL     1      49.158   8.151  11.851  0.00  0.00    +0.000 A 
ATOM     18  C   UNL     1      48.656   9.442  11.903  0.00  0.00    +0.000 A 
ATOM     19  N   UNL     1      47.475   9.769  12.492  0.00  0.00    +0.000 NA
ATOM     20  C   UNL     1      46.773   8.738  13.024  0.00  0.00    +0.000 A 
BRANCH  18  21
ATOM     21  C   UNL     1      49.420  10.566  11.276  0.00  0.00    +0.000 C 
ATOM     22  N   UNL     1      48.722  11.311  10.363  0.00  0.00    +0.000 N 
ATOM     23  O   UNL     1      50.590  10.807  11.545  0.00  0.00    +0.000 OA
ATOM     24  H   UNL     1      47.758  11.072  10.159  0.00  0.00    +0.000 HD
ATOM     25  H   UNL     1      49.179  12.073   9.885  0.00  0.00    +0.000 HD
ENDBRANCH  18  21
ENDBRANCH   1  15
TORSDOF 4
ENDMDL
MODEL 6
REMARK VINA RESULT:    -6.456      5.353      7.451
REMARK INTER + INTRA:          -8.415
REMARK INTER:                  -8.017
REMARK INTRA:                  -0.398
REMARK UNBOUND:                -0.449
REMARK  Name = 
REMARK  5 active torsions:
REMARK  status: ('A' for Active; 'I' for Inactive)
REMARK    1  A    between atoms: C_1  and  C_2
REMARK    2  A    between atoms: C_2  and  C_3
REMARK    3  A    between atoms: C_11  and  N_12
REMARK    4  A    between atoms: N_12  and  C_13
REMARK    5  A    between atoms: C_16  and  C_17
REMARK                            x       y       z     vdW  Elec       q    Type
REMARK                         _______ _______ _______ _____ _____    ______ ____
ROOT
ATOM      1  N   UNL     1      47.125   3.457  14.297  0.00  0.00    +0.000 N 
ATOM      2  H   UNL     1      46.679   2.571  14.059  0.00  0.00    +0.000 HD
ENDROOT
BRANCH   1   7
ATOM      3  C   UNL     1      48.376   3.236  18.643  0.00  0.00    +0.000 C 
ATOM      4  C   UNL     1      49.204   3.363  17.350  0.00  0.00    +0.000 C 
ATOM      5  C   UNL     1      49.200   4.812  16.826  0.00  0.00    +0.000 C 
ATOM      6  C   UNL     1      47.870   4.992  16.100  0.00  0.00    +0.000 C 
ATOM      7  C   UNL     1      47.380   3.584  15.734  0.00  0.00    +0.000 C 
ATOM      8  C   UNL     1      48.511   2.643  16.174  0.00  0.00    +0.000 C 
BRANCH   4   9
ATOM      9  C   UNL     1      50.604   2.822  17.611  0.00  0.00    +0.000 A 
ATOM     10  C   UNL     1      51.605   3.627  18.159  0.00  0.00    +0.000 A 
ATOM     11  C   UNL     1      52.875   3.093  18.363  0.00  0.00    +0.000 A 
ATOM     12  C   UNL     1      53.116   1.768  18.037  0.00  0.00    +0.000 A 
ATOM     13  C   UNL     1      52.067   1.024  17.529  0.00  0.00    +0.000 A 
ATOM     14  N   UNL     1      50.824   1.517  17.316  0.00  0.00    +0.000 NA
ENDBRANCH   4   9
ENDBRANCH   1   7
BRANCH   1  15
ATOM     15  C   UNL     1      46.506   4.526  13.634  0.00  0.00    +0.000 A 
ATOM     16  C   UNL     1      47.301   5.511  13.038  0.00  0.00    +0.000 A 
ATOM     17  C   UNL     1      46.717   6.599  12.387  0.00  0.00    +0.000 A 
ATOM     18  C   UNL     1      45.334   6.696  12.382  0.00  0.00    +0.000 A 
ATOM     19  N   UNL     1      44.513   5.803  12.997  0.00  0.00    +0.000 NA
ATOM     20  C   UNL     1      45.127   4.764  13.617  0.00  0.00    +0.000 A 
BRANCH  18  21
ATOM     21  C   UNL     1      44.667   7.823  11.659  0.00  0.00    +0.000 C 
ATOM     22  N   UNL     1      43.464   7.518  11.079  0.00  0.00    +0.000 N 
ATOM     23  O   UNL     1      45.155   8.944  11.579  0.00  0.00    +0.000 OA
ATOM     24  H   UNL     1      43.099   6.575  11.159  0.00  0.00    +0.000 HD
ATOM     25  H   UNL     1      42.966   8.223  10.558  0.00  0.00    +0.000 HD
ENDBRANCH  18  21
ENDBRANCH   1  15
TORSDOF 4
ENDMDL
MODEL 7
REMARK VINA RESULT:    -6.296      5.214      7.209
REMARK INTER + INTRA:          -8.217
REMARK INTER:                  -7.914
REMARK INTRA:                  -0.304
REMARK UNBOUND:                -0.449
REMARK  Name = 
REMARK  5 active torsions:
REMARK  status: ('A' for Active; 'I' for Inactive)
REMARK    1  A    between atoms: C_1  and  C_2
REMARK    2  A    between atoms: C_2  and  C_3
REMARK    3  A    between atoms: C_11  and  N_12
REMARK    4  A    between atoms: N_12  and  C_13
REMARK    5  A    between atoms: C_16  and  C_17
REMARK                            x       y       z     vdW  Elec       q    Type
REMARK                         _______ _______ _______ _____ _____    ______ ____
ROOT
ATOM      1  N   UNL     1      47.715   5.619  14.933  0.00  0.00    +0.000 N 
ATOM      2  H   UNL     1      48.629   5.823  14.530  0.00  0.00    +0.000 HD
ENDROOT
BRANCH   1   7
ATOM      3  C   UNL     1      48.432   3.217  18.704  0.00  0.00    +0.000 C 
ATOM      4  C   UNL     1      49.411   3.819  17.678  0.00  0.00    +0.000 C 
ATOM      5  C   UNL     1      49.606   5.330  17.913  0.00  0.00    +0.000 C 
ATOM      6  C   UNL     1      48.391   6.010  17.289  0.00  0.00    +0.000 C 
ATOM      7  C   UNL     1      47.814   5.021  16.267  0.00  0.00    +0.000 C 
ATOM      8  C   UNL     1      48.792   3.838  16.264  0.00  0.00    +0.000 C 
BRANCH   4   9
ATOM      9  C   UNL     1      50.714   3.031  17.725  0.00  0.00    +0.000 A 
ATOM     10  C   UNL     1      51.896   3.606  18.196  0.00  0.00    +0.000 A 
ATOM     11  C   UNL     1      53.067   2.852  18.203  0.00  0.00    +0.000 A 
ATOM     12  C   UNL     1      53.033   1.539  17.761  0.00  0.00    +0.000 A 
ATOM     13  C   UNL     1      51.819   1.028  17.339  0.00  0.00    +0.000 A 
ATOM     14  N   UNL     1      50.667   1.738  17.318  0.00  0.00    +0.000 NA
ENDBRANCH   4   9
ENDBRANCH   1   7
BRANCH   1  15
ATOM     15  C   UNL     1      46.874   5.007  13.991  0.00  0.00    +0.000 A 
ATOM     16  C   UNL     1      45.963   5.793  13.277  0.00  0.00    +0.000 A 
ATOM     17  C   UNL     1      45.099   5.214  12.347  0.00  0.00    +0.000 A 
ATOM     18  C   UNL     1      45.142   3.838  12.180  0.00  0.00    +0.000 A 
ATOM     19  N   UNL     1      45.962   3.018  12.890  0.00  0.00    +0.000 NA
ATOM     20  C   UNL     1      46.782   3.627  13.782  0.00  0.00    +0.000 A 
BRANCH  18  21
ATOM     21  C   UNL     1      44.262   3.182  11.163  0.00  0.00    +0.000 C 
ATOM     22  N   UNL     1      44.919   2.525  10.157  0.00  0.00    +0.000 N 
ATOM     23  O   UNL     1      43.039   3.227  11.212  0.00  0.00    +0.000 OA
ATOM     24  H   UNL     1      45.933   2.521  10.145  0.00  0.00    +0.000 HD
ATOM     25  H   UNL     1      44.391   2.076   9.424  0.00  0.00    +0.000 HD
ENDBRANCH  18  21
ENDBRANCH   1  15
TORSDOF 4
ENDMDL
MODEL 8
REMARK VINA RESULT:    -6.267      3.320      5.511
REMARK INTER + INTRA:          -8.182
REMARK INTER:                  -7.644
REMARK INTRA:                  -0.538
REMARK UNBOUND:                -0.449
REMARK  Name = 
REMARK  5 active torsions:
REMARK  status: ('A' for Active; 'I' for Inactive)
REMARK    1  A    between atoms: C_1  and  C_2
REMARK    2  A    between atoms: C_2  and  C_3
REMARK    3  A    between atoms: C_11  and  N_12
REMARK    4  A    between atoms: N_12  and  C_13
REMARK    5  A    between atoms: C_16  and  C_17
REMARK                            x       y       z     vdW  Elec       q    Type
REMARK                         _______ _______ _______ _____ _____    ______ ____
ROOT
ATOM      1  N   UNL     1      45.477   7.939  12.991  0.00  0.00    +0.000 N 
ATOM      2  H   UNL     1      44.852   8.665  12.642  0.00  0.00    +0.000 HD
ENDROOT
BRANCH   1   7
ATOM      3  C   UNL     1      49.849   9.038  13.422  0.00  0.00    +0.000 C 
ATOM      4  C   UNL     1      49.063   7.790  13.868  0.00  0.00    +0.000 C 
ATOM      5  C   UNL     1      48.825   6.828  12.688  0.00  0.00    +0.000 C 
ATOM      6  C   UNL     1      47.646   7.403  11.910  0.00  0.00    +0.000 C 
ATOM      7  C   UNL     1      46.888   8.318  12.881  0.00  0.00    +0.000 C 
ATOM      8  C   UNL     1      47.606   8.150  14.228  0.00  0.00    +0.000 C 
BRANCH   4   9
ATOM      9  C   UNL     1      49.798   7.141  15.034  0.00  0.00    +0.000 A 
ATOM     10  C   UNL     1      51.108   7.502  15.360  0.00  0.00    +0.000 A 
ATOM     11  C   UNL     1      51.747   6.869  16.423  0.00  0.00    +0.000 A 
ATOM     12  C   UNL     1      51.064   5.907  17.150  0.00  0.00    +0.000 A 
ATOM     13  C   UNL     1      49.759   5.625  16.790  0.00  0.00    +0.000 A 
ATOM     14  N   UNL     1      49.114   6.222  15.759  0.00  0.00    +0.000 NA
ENDBRANCH   4   9
ENDBRANCH   1   7
BRANCH   1  15
ATOM     15  C   UNL     1      45.089   6.675  12.524  0.00  0.00    +0.000 A 
ATOM     16  C   UNL     1      44.394   6.578  11.313  0.00  0.00    +0.000 A 
ATOM     17  C   UNL     1      43.976   5.337  10.830  0.00  0.00    +0.000 A 
ATOM     18  C   UNL     1      44.235   4.213  11.599  0.00  0.00    +0.000 A 
ATOM     19  N   UNL     1      44.851   4.253  12.810  0.00  0.00    +0.000 NA
ATOM     20  C   UNL     1      45.237   5.481  13.238  0.00  0.00    +0.000 A 
BRANCH  18  21
ATOM     21  C   UNL     1      43.842   2.859  11.097  0.00  0.00    +0.000 C 
ATOM     22  N   UNL     1      44.556   2.403  10.021  0.00  0.00    +0.000 N 
ATOM     23  O   UNL     1      42.943   2.197  11.601  0.00  0.00    +0.000 OA
ATOM     24  H   UNL     1      45.285   2.986   9.625  0.00  0.00    +0.000 HD
ATOM     25  H   UNL     1      44.333   1.506   9.615  0.00  0.00    +0.000 HD
ENDBRANCH  18  21
ENDBRANCH   1  15
TORSDOF 4
ENDMDL
MODEL 9
REMARK VINA RESULT:    -6.127      4.711      7.952
REMARK INTER + INTRA:          -8.009
REMARK INTER:                  -7.445
REMARK INTRA:                  -0.563
REMARK UNBOUND:                -0.449
REMARK  Name = 
REMARK  5 active torsions:
REMARK  status: ('A' for Active; 'I' for Inactive)
REMARK    1  A    between atoms: C_1  and  C_2
REMARK    2  A    between atoms: C_2  and  C_3
REMARK    3  A    between atoms: C_11  and  N_12
REMARK    4  A    between atoms: N_12  and  C_13
REMARK    5  A    between atoms: C_16  and  C_17
REMARK                            x       y       z     vdW  Elec       q    Type
REMARK                         _______ _______ _______ _____ _____    ______ ____
ROOT
ATOM      1  N   UNL     1      48.254   7.313  15.770  0.00  0.00    +0.000 N 
ATOM      2  H   UNL     1      47.373   7.405  16.276  0.00  0.00    +0.000 HD
ENDROOT
BRANCH   1   7
ATOM      3  C   UNL     1      47.368   6.936  11.345  0.00  0.00    +0.000 C 
ATOM      4  C   UNL     1      46.445   6.871  12.578  0.00  0.00    +0.000 C 
ATOM      5  C   UNL     1      46.126   8.281  13.110  0.00  0.00    +0.000 C 
ATOM      6  C   UNL     1      47.341   8.706  13.928  0.00  0.00    +0.000 C 
ATOM      7  C   UNL     1      48.076   7.416  14.319  0.00  0.00    +0.000 C 
ATOM      8  C   UNL     1      47.187   6.279  13.795  0.00  0.00    +0.000 C 
BRANCH   4   9
ATOM      9  C   UNL     1      45.202   6.069  12.216  0.00  0.00    +0.000 A 
ATOM     10  C   UNL     1      45.036   5.518  10.943  0.00  0.00    +0.000 A 
ATOM     11  C   UNL     1      43.874   4.807  10.652  0.00  0.00    +0.000 A 
ATOM     12  C   UNL     1      42.913   4.644  11.638  0.00  0.00    +0.000 A 
ATOM     13  C   UNL     1      43.162   5.190  12.883  0.00  0.00    +0.000 A 
ATOM     14  N   UNL     1      44.279   5.888  13.193  0.00  0.00    +0.000 NA
ENDBRANCH   4   9
ENDBRANCH   1   7
BRANCH   1  15
ATOM     15  C   UNL     1      49.014   6.248  16.272  0.00  0.00    +0.000 A 
ATOM     16  C   UNL     1      48.359   5.126  16.793  0.00  0.00    +0.000 A 
ATOM     17  C   UNL     1      49.085   4.057  17.319  0.00  0.00    +0.000 A 
ATOM     18  C   UNL     1      50.468   4.155  17.347  0.00  0.00    +0.000 A 
ATOM     19  N   UNL     1      51.156   5.244  16.912  0.00  0.00    +0.000 NA
ATOM     20  C   UNL     1      50.406   6.257  16.411  0.00  0.00    +0.000 A 
BRANCH  18  21
ATOM     21  C   UNL     1      51.287   3.013  17.863  0.00  0.00    +0.000 C 
ATOM     22  N   UNL     1      52.154   3.326  18.876  0.00  0.00    +0.000 N 
ATOM     23  O   UNL     1      51.201   1.877  17.416  0.00  0.00    +0.000 OA
ATOM     24  H   UNL     1      52.204   4.282  19.211  0.00  0.00    +0.000 HD
ATOM     25  H   UNL     1      52.754   2.611  19.261  0.00  0.00    +0.000 HD
ENDBRANCH  18  21
ENDBRANCH   1  15
TORSDOF 4
ENDMDL
