MODEL 1
REMARK VINA RESULT:    -8.321      0.000      0.000
REMARK INTER + INTRA:         -11.449
REMARK INTER:                 -10.753
REMARK INTRA:                  -0.696
REMARK UNBOUND:                -0.696
REMARK  Name = 
REMARK  5 active torsions:
REMARK  status: ('A' for Active; 'I' for Inactive)
REMARK    1  A    between atoms: C_2  and  C_18
REMARK    2  A    between atoms: N_3  and  C_4
REMARK    3  A    between atoms: C_4  and  C_5
REMARK    4  A    between atoms: N_9  and  C_10
REMARK    5  A    between atoms: C_10  and  C_11
REMARK                            x       y       z     vdW  Elec       q    Type
REMARK                         _______ _______ _______ _____ _____    ______ ____
ROOT
ATOM      1  C   UNL     1      46.187   6.937  12.713  0.00  0.00    +0.000 C 
ENDROOT
BRANCH   1   2
ATOM      2  C   UNL     1      45.703   5.719  11.982  0.00  0.00    +0.000 A 
ATOM      3  C   UNL     1      45.248   4.581  12.645  0.00  0.00    +0.000 A 
ATOM      4  C   UNL     1      44.802   3.478  11.911  0.00  0.00    +0.000 A 
ATOM      5  C   UNL     1      44.845   3.518  10.520  0.00  0.00    +0.000 A 
ATOM      6  N   UNL     1      44.477   2.355   9.797  0.00  0.00    +0.000 N 
ATOM      7  N   UNL     1      45.236   4.632   9.866  0.00  0.00    +0.000 NA
ATOM      8  C   UNL     1      45.643   5.697  10.596  0.00  0.00    +0.000 A 
ATOM      9  H   UNL     1      43.468   2.259   9.889  0.00  0.00    +0.000 HD
BRANCH   6  10
ATOM     10  C   UNL     1      44.900   2.430   8.398  0.00  0.00    +0.000 C 
BRANCH  10  11
ATOM     11  C   UNL     1      46.419   2.260   8.218  0.00  0.00    +0.000 C 
ATOM     12  C   UNL     1      46.901   3.276   7.179  0.00  0.00    +0.000 C 
ATOM     13  C   UNL     1      46.688   2.536   5.875  0.00  0.00    +0.000 C 
ATOM     14  N   UNL     1      47.165   1.183   6.171  0.00  0.00    +0.000 NA
ATOM     15  C   UNL     1      46.861   0.934   7.597  0.00  0.00    +0.000 C 
ATOM     16  H   UNL     1      48.181   1.178   6.058  0.00  0.00    +0.000 HD
ENDBRANCH  10  11
ENDBRANCH   6  10
ENDBRANCH   1   2
BRANCH   1  19
ATOM     17  O   UNL     1      48.898   6.466  13.218  0.00  0.00    +0.000 OA
ATOM     18  C   UNL     1      48.111   6.437  14.160  0.00  0.00    +0.000 C 
ATOM     19  N   UNL     1      46.757   6.578  13.986  0.00  0.00    +0.000 N 
ATOM     20  H   UNL     1      46.177   6.740  14.801  0.00  0.00    +0.000 HD
BRANCH  18  21
ATOM     21  C   UNL     1      48.559   6.212  15.537  0.00  0.00    +0.000 A 
ATOM     22  C   UNL     1      49.282   7.197  16.206  0.00  0.00    +0.000 A 
ATOM     23  S   UNL     1      49.732   6.754  17.792  0.00  0.00    +0.000 S 
ATOM     24  C   UNL     1      48.934   5.256  17.663  0.00  0.00    +0.000 A 
ATOM     25  N   UNL     1      48.906   4.385  18.708  0.00  0.00    +0.000 NA
ATOM     26  C   UNL     1      48.231   3.304  18.481  0.00  0.00    +0.000 A 
ATOM     27  N   UNL     1      47.596   3.010  17.301  0.00  0.00    +0.000 N 
ATOM     28  C   UNL     1      47.635   3.843  16.215  0.00  0.00    +0.000 A 
ATOM     29  O   UNL     1      47.109   3.527  15.150  0.00  0.00    +0.000 OA
ATOM     30  C   UNL     1      48.357   5.084  16.421  0.00  0.00    +0.000 A 
ATOM     31  H   UNL     1      47.104   2.142  17.185  0.00  0.00    +0.000 HD
ENDBRANCH  18  21
ENDBRANCH   1  19
TORSDOF 5
ENDMDL
MODEL 2
REMARK VINA RESULT:    -7.675      1.573      2.275
REMARK INTER + INTRA:         -10.614
REMARK INTER:                  -9.901
REMARK INTRA:                  -0.713
REMARK UNBOUND:                -0.696
REMARK  Name = 
REMARK  5 active torsions:
REMARK  status: ('A' for Active; 'I' for Inactive)
REMARK    1  A    between atoms: C_2  and  C_18
REMARK    2  A    between atoms: N_3  and  C_4
REMARK    3  A    between atoms: C_4  and  C_5
REMARK    4  A    between atoms: N_9  and  C_10
REMARK    5  A    between atoms: C_10  and  C_11
REMARK                            x       y       z     vdW  Elec       q    Type
REMARK                         _______ _______ _______ _____ _____    ______ ____
ROOT
ATOM      1  C   UNL     1      45.436   6.343  12.959  0.00  0.00    +0.000 C 
ENDROOT
BRANCH   1   2
ATOM      2  C   UNL     1      45.229   5.506  11.731  0.00  0.00    +0.000 A 
ATOM      3  C   UNL     1      44.443   4.354  11.736  0.00  0.00    +0.000 A 
ATOM      4  C   UNL     1      44.280   3.617  10.558  0.00  0.00    +0.000 A 
ATOM      5  C   UNL     1      44.930   4.027   9.398  0.00  0.00    +0.000 A 
ATOM      6  N   UNL     1      44.828   3.213   8.241  0.00  0.00    +0.000 N 
ATOM      7  N   UNL     1      45.652   5.166   9.368  0.00  0.00    +0.000 NA
ATOM      8  C   UNL     1      45.780   5.877  10.513  0.00  0.00    +0.000 A 
ATOM      9  H   UNL     1      43.876   3.315   7.894  0.00  0.00    +0.000 HD
BRANCH   6  10
ATOM     10  C   UNL     1      45.825   3.577   7.233  0.00  0.00    +0.000 C 
BRANCH  10  11
ATOM     11  C   UNL     1      46.132   2.433   6.250  0.00  0.00    +0.000 C 
ATOM     12  C   UNL     1      46.856   1.320   7.013  0.00  0.00    +0.000 C 
ATOM     13  C   UNL     1      48.305   1.754   6.925  0.00  0.00    +0.000 C 
ATOM     14  N   UNL     1      48.443   2.196   5.536  0.00  0.00    +0.000 NA
ATOM     15  C   UNL     1      47.136   2.769   5.146  0.00  0.00    +0.000 C 
ATOM     16  H   UNL     1      48.611   1.368   4.959  0.00  0.00    +0.000 HD
ENDBRANCH  10  11
ENDBRANCH   6  10
ENDBRANCH   1   2
BRANCH   1  19
ATOM     17  O   UNL     1      48.162   6.069  13.527  0.00  0.00    +0.000 OA
ATOM     18  C   UNL     1      47.348   5.538  14.278  0.00  0.00    +0.000 C 
ATOM     19  N   UNL     1      46.000   5.557  14.026  0.00  0.00    +0.000 N 
ATOM     20  H   UNL     1      45.364   5.278  14.764  0.00  0.00    +0.000 HD
BRANCH  18  21
ATOM     21  C   UNL     1      47.765   4.812  15.481  0.00  0.00    +0.000 A 
ATOM     22  C   UNL     1      47.536   3.442  15.584  0.00  0.00    +0.000 A 
ATOM     23  S   UNL     1      48.073   2.769  17.059  0.00  0.00    +0.000 S 
ATOM     24  C   UNL     1      48.679   4.269  17.590  0.00  0.00    +0.000 A 
ATOM     25  N   UNL     1      49.308   4.385  18.791  0.00  0.00    +0.000 NA
ATOM     26  C   UNL     1      49.750   5.575  19.046  0.00  0.00    +0.000 A 
ATOM     27  N   UNL     1      49.607   6.659  18.217  0.00  0.00    +0.000 N 
ATOM     28  C   UNL     1      48.946   6.590  17.020  0.00  0.00    +0.000 A 
ATOM     29  O   UNL     1      48.778   7.590  16.326  0.00  0.00    +0.000 OA
ATOM     30  C   UNL     1      48.450   5.272  16.669  0.00  0.00    +0.000 A 
ATOM     31  H   UNL     1      49.959   7.561  18.486  0.00  0.00    +0.000 HD
ENDBRANCH  18  21
ENDBRANCH   1  19
TORSDOF 5
ENDMDL
MODEL 3
REMARK VINA RESULT:    -7.480      2.988      3.783
REMARK INTER + INTRA:         -10.363
REMARK INTER:                  -9.022
REMARK INTRA:                  -1.341
REMARK UNBOUND:                -0.696
REMARK  Name = 
REMARK  5 active torsions:
REMARK  status: ('A' for Active; 'I' for Inactive)
REMARK    1  A    between atoms: C_2  and  C_18
REMARK    2  A    between atoms: N_3  and  C_4
REMARK    3  A    between atoms: C_4  and  C_5
REMARK    4  A    between atoms: N_9  and  C_10
REMARK    5  A    between atoms: C_10  and  C_11
REMARK                            x       y       z     vdW  Elec       q    Type
REMARK                         _______ _______ _______ _____ _____    ______ ____
ROOT
ATOM      1  C   UNL     1      48.978   7.995  13.437  0.00  0.00    +0.000 C 
ENDROOT
BRANCH   1   2
ATOM      2  C   UNL     1      47.633   7.732  12.825  0.00  0.00    +0.000 A 
ATOM      3  C   UNL     1      46.530   8.550  13.064  0.00  0.00    +0.000 A 
ATOM      4  C   UNL     1      45.303   8.260  12.460  0.00  0.00    +0.000 A 
ATOM      5  C   UNL     1      45.189   7.135  11.647  0.00  0.00    +0.000 A 
ATOM      6  N   UNL     1      43.913   6.806  11.122  0.00  0.00    +0.000 N 
ATOM      7  N   UNL     1      46.260   6.364  11.369  0.00  0.00    +0.000 NA
ATOM      8  C   UNL     1      47.445   6.676  11.946  0.00  0.00    +0.000 A 
ATOM      9  H   UNL     1      43.702   7.500  10.407  0.00  0.00    +0.000 HD
BRANCH   6  10
ATOM     10  C   UNL     1      43.880   5.441  10.594  0.00  0.00    +0.000 C 
BRANCH  10  11
ATOM     11  C   UNL     1      42.956   4.508  11.397  0.00  0.00    +0.000 C 
ATOM     12  C   UNL     1      43.134   4.813  12.886  0.00  0.00    +0.000 C 
ATOM     13  C   UNL     1      44.309   3.935  13.262  0.00  0.00    +0.000 C 
ATOM     14  N   UNL     1      44.019   2.671  12.581  0.00  0.00    +0.000 NA
ATOM     15  C   UNL     1      43.310   3.021  11.331  0.00  0.00    +0.000 C 
ATOM     16  H   UNL     1      43.376   2.138  13.171  0.00  0.00    +0.000 HD
ENDBRANCH  10  11
ENDBRANCH   6  10
ENDBRANCH   1   2
BRANCH   1  19
ATOM     17  O   UNL     1      48.553   8.676  16.117  0.00  0.00    +0.000 OA
ATOM     18  C   UNL     1      48.896   7.528  15.849  0.00  0.00    +0.000 C 
ATOM     19  N   UNL     1      49.202   7.136  14.571  0.00  0.00    +0.000 N 
ATOM     20  H   UNL     1      49.289   6.146  14.374  0.00  0.00    +0.000 HD
BRANCH  18  21
ATOM     21  C   UNL     1      49.039   6.502  16.885  0.00  0.00    +0.000 A 
ATOM     22  C   UNL     1      49.836   6.742  18.002  0.00  0.00    +0.000 A 
ATOM     23  S   UNL     1      49.897   5.431  19.093  0.00  0.00    +0.000 S 
ATOM     24  C   UNL     1      48.820   4.516  18.145  0.00  0.00    +0.000 A 
ATOM     25  N   UNL     1      48.419   3.276  18.538  0.00  0.00    +0.000 NA
ATOM     26  C   UNL     1      47.570   2.714  17.739  0.00  0.00    +0.000 A 
ATOM     27  N   UNL     1      47.098   3.272  16.578  0.00  0.00    +0.000 N 
ATOM     28  C   UNL     1      47.507   4.499  16.129  0.00  0.00    +0.000 A 
ATOM     29  O   UNL     1      47.116   4.949  15.055  0.00  0.00    +0.000 OA
ATOM     30  C   UNL     1      48.442   5.189  17.000  0.00  0.00    +0.000 A 
ATOM     31  H   UNL     1      46.452   2.772  15.992  0.00  0.00    +0.000 HD
ENDBRANCH  18  21
ENDBRANCH   1  19
TORSDOF 5
ENDMDL
MODEL 4
REMARK VINA RESULT:    -7.423      1.462      2.225
REMARK INTER + INTRA:         -10.288
REMARK INTER:                  -9.326
REMARK INTRA:                  -0.963
REMARK UNBOUND:                -0.696
REMARK  Name = 
REMARK  5 active torsions:
REMARK  status: ('A' for Active; 'I' for Inactive)
REMARK    1  A    between atoms: C_2  and  C_18
REMARK    2  A    between atoms: N_3  and  C_4
REMARK    3  A    between atoms: C_4  and  C_5
REMARK    4  A    between atoms: N_9  and  C_10
REMARK    5  A    between atoms: C_10  and  C_11
REMARK                            x       y       z     vdW  Elec       q    Type
REMARK                         _______ _______ _______ _____ _____    ______ ____
ROOT
ATOM      1  C   UNL     1      47.611   8.394  13.945  0.00  0.00    +0.000 C 
ENDROOT
BRANCH   1   2
ATOM      2  C   UNL     1      46.736   7.710  12.936  0.00  0.00    +0.000 A 
ATOM      3  C   UNL     1      45.491   8.213  12.563  0.00  0.00    +0.000 A 
ATOM      4  C   UNL     1      44.722   7.535  11.611  0.00  0.00    +0.000 A 
ATOM      5  C   UNL     1      45.198   6.346  11.066  0.00  0.00    +0.000 A 
ATOM      6  N   UNL     1      44.362   5.627  10.175  0.00  0.00    +0.000 N 
ATOM      7  N   UNL     1      46.423   5.875  11.382  0.00  0.00    +0.000 NA
ATOM      8  C   UNL     1      47.160   6.558  12.289  0.00  0.00    +0.000 A 
ATOM      9  H   UNL     1      44.331   6.158   9.307  0.00  0.00    +0.000 HD
BRANCH   6  10
ATOM     10  C   UNL     1      44.840   4.259   9.968  0.00  0.00    +0.000 C 
BRANCH  10  11
ATOM     11  C   UNL     1      44.733   3.799   8.504  0.00  0.00    +0.000 C 
ATOM     12  C   UNL     1      44.493   2.287   8.487  0.00  0.00    +0.000 C 
ATOM     13  C   UNL     1      45.901   1.731   8.534  0.00  0.00    +0.000 C 
ATOM     14  N   UNL     1      46.634   2.586   7.596  0.00  0.00    +0.000 NA
ATOM     15  C   UNL     1      46.016   3.927   7.681  0.00  0.00    +0.000 C 
ATOM     16  H   UNL     1      46.476   2.223   6.653  0.00  0.00    +0.000 HD
ENDBRANCH  10  11
ENDBRANCH   6  10
ENDBRANCH   1   2
BRANCH   1  19
ATOM     17  O   UNL     1      50.076   7.152  14.401  0.00  0.00    +0.000 OA
ATOM     18  C   UNL     1      49.180   7.001  15.227  0.00  0.00    +0.000 C 
ATOM     19  N   UNL     1      47.920   7.509  15.039  0.00  0.00    +0.000 N 
ATOM     20  H   UNL     1      47.280   7.526  15.825  0.00  0.00    +0.000 HD
BRANCH  18  21
ATOM     21  C   UNL     1      49.384   6.234  16.459  0.00  0.00    +0.000 A 
ATOM     22  C   UNL     1      50.335   6.645  17.389  0.00  0.00    +0.000 A 
ATOM     23  S   UNL     1      50.445   5.623  18.752  0.00  0.00    +0.000 S 
ATOM     24  C   UNL     1      49.190   4.626  18.178  0.00  0.00    +0.000 A 
ATOM     25  N   UNL     1      48.757   3.558  18.901  0.00  0.00    +0.000 NA
ATOM     26  C   UNL     1      47.773   2.915  18.361  0.00  0.00    +0.000 A 
ATOM     27  N   UNL     1      47.194   3.233  17.158  0.00  0.00    +0.000 N 
ATOM     28  C   UNL     1      47.628   4.275  16.384  0.00  0.00    +0.000 A 
ATOM     29  O   UNL     1      47.133   4.500  15.282  0.00  0.00    +0.000 OA
ATOM     30  C   UNL     1      48.715   5.050  16.953  0.00  0.00    +0.000 A 
ATOM     31  H   UNL     1      46.443   2.678  16.786  0.00  0.00    +0.000 HD
ENDBRANCH  18  21
ENDBRANCH   1  19
TORSDOF 5
ENDMDL
MODEL 5
REMARK VINA RESULT:    -7.417      3.261      8.201
REMARK INTER + INTRA:         -10.281
REMARK INTER:                  -9.223
REMARK INTRA:                  -1.059
REMARK UNBOUND:                -0.696
REMARK  Name = 
REMARK  5 active torsions:
REMARK  status: ('A' for Active; 'I' for Inactive)
REMARK    1  A    between atoms: C_2  and  C_18
REMARK    2  A    between atoms: N_3  and  C_4
REMARK    3  A    between atoms: C_4  and  C_5
REMARK    4  A    between atoms: N_9  and  C_10
REMARK    5  A    between atoms: C_10  and  C_11
REMARK                            x       y       z     vdW  Elec       q    Type
REMARK                         _______ _______ _______ _____ _____    ______ ____
ROOT
ATOM      1  C   UNL     1      48.256   8.006  12.185  0.00  0.00    +0.000 C 
ENDROOT
BRANCH   1   2
ATOM      2  C   UNL     1      48.479   7.895  13.665  0.00  0.00    +0.000 A 
ATOM      3  C   UNL     1      48.477   9.006  14.506  0.00  0.00    +0.000 A 
ATOM      4  C   UNL     1      48.683   8.840  15.880  0.00  0.00    +0.000 A 
ATOM      5  C   UNL     1      48.917   7.566  16.389  0.00  0.00    +0.000 A 
ATOM      6  N   UNL     1      49.217   7.432  17.768  0.00  0.00    +0.000 N 
ATOM      7  N   UNL     1      48.871   6.478  15.592  0.00  0.00    +0.000 NA
ATOM      8  C   UNL     1      48.649   6.657  14.269  0.00  0.00    +0.000 A 
ATOM      9  H   UNL     1      48.353   7.613  18.276  0.00  0.00    +0.000 HD
BRANCH   6  10
ATOM     10  C   UNL     1      49.773   6.114  18.076  0.00  0.00    +0.000 C 
BRANCH  10  11
ATOM     11  C   UNL     1      48.900   5.306  19.053  0.00  0.00    +0.000 C 
ATOM     12  C   UNL     1      48.507   3.990  18.376  0.00  0.00    +0.000 C 
ATOM     13  C   UNL     1      47.256   4.375  17.614  0.00  0.00    +0.000 C 
ATOM     14  N   UNL     1      46.520   5.208  18.569  0.00  0.00    +0.000 NA
ATOM     15  C   UNL     1      47.536   5.920  19.374  0.00  0.00    +0.000 C 
ATOM     16  H   UNL     1      46.001   4.586  19.192  0.00  0.00    +0.000 HD
ENDBRANCH  10  11
ENDBRANCH   6  10
ENDBRANCH   1   2
BRANCH   1  19
ATOM     17  O   UNL     1      45.496   7.909  11.738  0.00  0.00    +0.000 OA
ATOM     18  C   UNL     1      46.176   6.934  11.431  0.00  0.00    +0.000 C 
ATOM     19  N   UNL     1      47.522   6.870  11.691  0.00  0.00    +0.000 N 
ATOM     20  H   UNL     1      48.067   6.139  11.249  0.00  0.00    +0.000 HD
BRANCH  18  21
ATOM     21  C   UNL     1      45.590   5.751  10.796  0.00  0.00    +0.000 A 
ATOM     22  C   UNL     1      45.801   5.506   9.442  0.00  0.00    +0.000 A 
ATOM     23  S   UNL     1      45.030   4.093   8.873  0.00  0.00    +0.000 S 
ATOM     24  C   UNL     1      44.431   3.727  10.424  0.00  0.00    +0.000 A 
ATOM     25  N   UNL     1      43.697   2.602  10.644  0.00  0.00    +0.000 NA
ATOM     26  C   UNL     1      43.342   2.432  11.877  0.00  0.00    +0.000 A 
ATOM     27  N   UNL     1      43.641   3.290  12.904  0.00  0.00    +0.000 N 
ATOM     28  C   UNL     1      44.343   4.450  12.715  0.00  0.00    +0.000 A 
ATOM     29  O   UNL     1      44.543   5.232  13.642  0.00  0.00    +0.000 OA
ATOM     30  C   UNL     1      44.790   4.681  11.354  0.00  0.00    +0.000 A 
ATOM     31  H   UNL     1      43.317   3.107  13.838  0.00  0.00    +0.000 HD
ENDBRANCH  18  21
ENDBRANCH   1  19
TORSDOF 5
ENDMDL
MODEL 6
REMARK VINA RESULT:    -7.405      2.566      3.362
REMARK INTER + INTRA:         -10.265
REMARK INTER:                  -9.654
REMARK INTRA:                  -0.610
REMARK UNBOUND:                -0.696
REMARK  Name = 
REMARK  5 active torsions:
REMARK  status: ('A' for Active; 'I' for Inactive)
REMARK    1  A    between atoms: C_2  and  C_18
REMARK    2  A    between atoms: N_3  and  C_4
REMARK    3  A    between atoms: C_4  and  C_5
REMARK    4  A    between atoms: N_9  and  C_10
REMARK    5  A    between atoms: C_10  and  C_11
REMARK                            x       y       z     vdW  Elec       q    Type
REMARK                         _______ _______ _______ _____ _____    ______ ____
ROOT
ATOM      1  C   UNL     1      45.137   6.014  13.123  0.00  0.00    +0.000 C 
ENDROOT
BRANCH   1   2
ATOM      2  C   UNL     1      44.970   5.257  11.838  0.00  0.00    +0.000 A 
ATOM      3  C   UNL     1      44.143   4.141  11.729  0.00  0.00    +0.000 A 
ATOM      4  C   UNL     1      44.021   3.480  10.503  0.00  0.00    +0.000 A 
ATOM      5  C   UNL     1      44.753   3.929   9.407  0.00  0.00    +0.000 A 
ATOM      6  N   UNL     1      44.687   3.188   8.200  0.00  0.00    +0.000 N 
ATOM      7  N   UNL     1      45.518   5.037   9.487  0.00  0.00    +0.000 NA
ATOM      8  C   UNL     1      45.606   5.675  10.678  0.00  0.00    +0.000 A 
ATOM      9  H   UNL     1      43.762   3.349   7.806  0.00  0.00    +0.000 HD
BRANCH   6  10
ATOM     10  C   UNL     1      45.755   3.568   7.273  0.00  0.00    +0.000 C 
BRANCH  10  11
ATOM     11  C   UNL     1      46.087   2.464   6.253  0.00  0.00    +0.000 C 
ATOM     12  C   UNL     1      46.789   1.320   6.988  0.00  0.00    +0.000 C 
ATOM     13  C   UNL     1      48.240   1.752   6.957  0.00  0.00    +0.000 C 
ATOM     14  N   UNL     1      48.416   2.251   5.591  0.00  0.00    +0.000 NA
ATOM     15  C   UNL     1      47.121   2.843   5.191  0.00  0.00    +0.000 C 
ATOM     16  H   UNL     1      48.597   1.447   4.985  0.00  0.00    +0.000 HD
ENDBRANCH  10  11
ENDBRANCH   6  10
ENDBRANCH   1   2
BRANCH   1  19
ATOM     17  O   UNL     1      47.614   5.006  13.949  0.00  0.00    +0.000 OA
ATOM     18  C   UNL     1      47.565   6.142  13.485  0.00  0.00    +0.000 C 
ATOM     19  N   UNL     1      46.381   6.739  13.133  0.00  0.00    +0.000 N 
ATOM     20  H   UNL     1      46.411   7.589  12.582  0.00  0.00    +0.000 HD
BRANCH  18  21
ATOM     21  C   UNL     1      48.770   6.958  13.310  0.00  0.00    +0.000 A 
ATOM     22  C   UNL     1      49.095   7.465  12.054  0.00  0.00    +0.000 A 
ATOM     23  S   UNL     1      50.538   8.377  12.038  0.00  0.00    +0.000 S 
ATOM     24  C   UNL     1      50.754   8.174  13.714  0.00  0.00    +0.000 A 
ATOM     25  N   UNL     1      51.808   8.744  14.359  0.00  0.00    +0.000 NA
ATOM     26  C   UNL     1      51.824   8.538  15.636  0.00  0.00    +0.000 A 
ATOM     27  N   UNL     1      50.891   7.803  16.323  0.00  0.00    +0.000 N 
ATOM     28  C   UNL     1      49.840   7.182  15.705  0.00  0.00    +0.000 A 
ATOM     29  O   UNL     1      49.054   6.478  16.335  0.00  0.00    +0.000 OA
ATOM     30  C   UNL     1      49.757   7.400  14.272  0.00  0.00    +0.000 A 
ATOM     31  H   UNL     1      50.974   7.666  17.316  0.00  0.00    +0.000 HD
ENDBRANCH  18  21
ENDBRANCH   1  19
TORSDOF 5
ENDMDL
MODEL 7
REMARK VINA RESULT:    -7.171      3.858      8.578
REMARK INTER + INTRA:          -9.962
REMARK INTER:                  -8.973
REMARK INTRA:                  -0.989
REMARK UNBOUND:                -0.696
REMARK  Name = 
REMARK  5 active torsions:
REMARK  status: ('A' for Active; 'I' for Inactive)
REMARK    1  A    between atoms: C_2  and  C_18
REMARK    2  A    between atoms: N_3  and  C_4
REMARK    3  A    between atoms: C_4  and  C_5
REMARK    4  A    between atoms: N_9  and  C_10
REMARK    5  A    between atoms: C_10  and  C_11
REMARK                            x       y       z     vdW  Elec       q    Type
REMARK                         _______ _______ _______ _____ _____    ______ ____
ROOT
ATOM      1  C   UNL     1      47.177   3.460  16.715  0.00  0.00    +0.000 C 
ENDROOT
BRANCH   1   2
ATOM      2  C   UNL     1      48.636   3.607  17.034  0.00  0.00    +0.000 A 
ATOM      3  C   UNL     1      49.501   2.516  17.097  0.00  0.00    +0.000 A 
ATOM      4  C   UNL     1      50.854   2.715  17.392  0.00  0.00    +0.000 A 
ATOM      5  C   UNL     1      51.317   4.002  17.648  0.00  0.00    +0.000 A 
ATOM      6  N   UNL     1      52.670   4.169  18.037  0.00  0.00    +0.000 N 
ATOM      7  N   UNL     1      50.501   5.071  17.541  0.00  0.00    +0.000 NA
ATOM      8  C   UNL     1      49.199   4.859  17.233  0.00  0.00    +0.000 A 
ATOM      9  H   UNL     1      53.238   3.994  17.210  0.00  0.00    +0.000 HD
BRANCH   6  10
ATOM     10  C   UNL     1      52.911   5.499  18.601  0.00  0.00    +0.000 C 
BRANCH  10  11
ATOM     11  C   UNL     1      54.018   6.274  17.864  0.00  0.00    +0.000 C 
ATOM     12  C   UNL     1      53.411   7.557  17.291  0.00  0.00    +0.000 C 
ATOM     13  C   UNL     1      52.874   7.096  15.952  0.00  0.00    +0.000 C 
ATOM     14  N   UNL     1      53.945   6.239  15.435  0.00  0.00    +0.000 NA
ATOM     15  C   UNL     1      54.570   5.594  16.610  0.00  0.00    +0.000 C 
ATOM     16  H   UNL     1      54.644   6.843  14.996  0.00  0.00    +0.000 HD
ENDBRANCH  10  11
ENDBRANCH   6  10
ENDBRANCH   1   2
BRANCH   1  19
ATOM     17  O   UNL     1      47.180   3.089  13.942  0.00  0.00    +0.000 OA
ATOM     18  C   UNL     1      46.730   4.138  14.395  0.00  0.00    +0.000 C 
ATOM     19  N   UNL     1      46.767   4.431  15.735  0.00  0.00    +0.000 N 
ATOM     20  H   UNL     1      46.216   5.211  16.076  0.00  0.00    +0.000 HD
BRANCH  18  21
ATOM     21  C   UNL     1      46.156   5.171  13.528  0.00  0.00    +0.000 A 
ATOM     22  C   UNL     1      46.893   6.311  13.216  0.00  0.00    +0.000 A 
ATOM     23  S   UNL     1      46.059   7.409  12.210  0.00  0.00    +0.000 S 
ATOM     24  C   UNL     1      44.707   6.380  12.109  0.00  0.00    +0.000 A 
ATOM     25  N   UNL     1      43.624   6.718  11.357  0.00  0.00    +0.000 NA
ATOM     26  C   UNL     1      42.688   5.824  11.342  0.00  0.00    +0.000 A 
ATOM     27  N   UNL     1      42.731   4.633  12.022  0.00  0.00    +0.000 N 
ATOM     28  C   UNL     1      43.785   4.276  12.819  0.00  0.00    +0.000 A 
ATOM     29  O   UNL     1      43.770   3.232  13.466  0.00  0.00    +0.000 OA
ATOM     30  C   UNL     1      44.877   5.231  12.854  0.00  0.00    +0.000 A 
ATOM     31  H   UNL     1      41.958   3.991  11.982  0.00  0.00    +0.000 HD
ENDBRANCH  18  21
ENDBRANCH   1  19
TORSDOF 5
ENDMDL
MODEL 8
REMARK VINA RESULT:    -7.092      3.939      8.618
REMARK INTER + INTRA:          -9.861
REMARK INTER:                  -9.101
REMARK INTRA:                  -0.761
REMARK UNBOUND:                -0.696
REMARK  Name = 
REMARK  5 active torsions:
REMARK  status: ('A' for Active; 'I' for Inactive)
REMARK    1  A    between atoms: C_2  and  C_18
REMARK    2  A    between atoms: N_3  and  C_4
REMARK    3  A    between atoms: C_4  and  C_5
REMARK    4  A    between atoms: N_9  and  C_10
REMARK    5  A    between atoms: C_10  and  C_11
REMARK                            x       y       z     vdW  Elec       q    Type
REMARK                         _______ _______ _______ _____ _____    ______ ____
ROOT
ATOM      1  C   UNL     1      47.148   3.392  16.865  0.00  0.00    +0.000 C 
ENDROOT
BRANCH   1   2
ATOM      2  C   UNL     1      48.587   3.435  17.286  0.00  0.00    +0.000 A 
ATOM      3  C   UNL     1      49.082   4.401  18.160  0.00  0.00    +0.000 A 
ATOM      4  C   UNL     1      50.433   4.386  18.524  0.00  0.00    +0.000 A 
ATOM      5  C   UNL     1      51.277   3.420  17.982  0.00  0.00    +0.000 A 
ATOM      6  N   UNL     1      52.660   3.482  18.289  0.00  0.00    +0.000 N 
ATOM      7  N   UNL     1      50.800   2.451  17.175  0.00  0.00    +0.000 NA
ATOM      8  C   UNL     1      49.485   2.470  16.853  0.00  0.00    +0.000 A 
ATOM      9  H   UNL     1      52.758   3.201  19.263  0.00  0.00    +0.000 HD
BRANCH   6  10
ATOM     10  C   UNL     1      53.452   2.640  17.391  0.00  0.00    +0.000 C 
BRANCH  10  11
ATOM     11  C   UNL     1      54.170   1.490  18.120  0.00  0.00    +0.000 C 
ATOM     12  C   UNL     1      55.473   1.185  17.377  0.00  0.00    +0.000 C 
ATOM     13  C   UNL     1      55.023   0.201  16.317  0.00  0.00    +0.000 C 
ATOM     14  N   UNL     1      54.115  -0.689  17.045  0.00  0.00    +0.000 NA
ATOM     15  C   UNL     1      53.454   0.139  18.076  0.00  0.00    +0.000 C 
ATOM     16  H   UNL     1      54.682  -1.394  17.520  0.00  0.00    +0.000 HD
ENDBRANCH  10  11
ENDBRANCH   6  10
ENDBRANCH   1   2
BRANCH   1  19
ATOM     17  O   UNL     1      47.271   3.068  14.088  0.00  0.00    +0.000 OA
ATOM     18  C   UNL     1      46.884   4.143  14.539  0.00  0.00    +0.000 C 
ATOM     19  N   UNL     1      46.871   4.410  15.884  0.00  0.00    +0.000 N 
ATOM     20  H   UNL     1      46.368   5.227  16.213  0.00  0.00    +0.000 HD
BRANCH  18  21
ATOM     21  C   UNL     1      46.443   5.234  13.665  0.00  0.00    +0.000 A 
ATOM     22  C   UNL     1      47.291   6.308  13.405  0.00  0.00    +0.000 A 
ATOM     23  S   UNL     1      46.604   7.489  12.381  0.00  0.00    +0.000 S 
ATOM     24  C   UNL     1      45.172   6.585  12.203  0.00  0.00    +0.000 A 
ATOM     25  N   UNL     1      44.159   7.027  11.410  0.00  0.00    +0.000 NA
ATOM     26  C   UNL     1      43.150   6.220  11.338  0.00  0.00    +0.000 A 
ATOM     27  N   UNL     1      43.056   5.021  11.999  0.00  0.00    +0.000 N 
ATOM     28  C   UNL     1      44.037   4.562  12.836  0.00  0.00    +0.000 A 
ATOM     29  O   UNL     1      43.900   3.515  13.464  0.00  0.00    +0.000 OA
ATOM     30  C   UNL     1      45.206   5.415  12.936  0.00  0.00    +0.000 A 
ATOM     31  H   UNL     1      42.233   4.450  11.914  0.00  0.00    +0.000 HD
ENDBRANCH  18  21
ENDBRANCH   1  19
TORSDOF 5
ENDMDL
MODEL 9
REMARK VINA RESULT:    -6.967      3.115      4.716
REMARK INTER + INTRA:          -9.699
REMARK INTER:                  -9.054
REMARK INTRA:                  -0.645
REMARK UNBOUND:                -0.696
REMARK  Name = 
REMARK  5 active torsions:
REMARK  status: ('A' for Active; 'I' for Inactive)
REMARK    1  A    between atoms: C_2  and  C_18
REMARK    2  A    between atoms: N_3  and  C_4
REMARK    3  A    between atoms: C_4  and  C_5
REMARK    4  A    between atoms: N_9  and  C_10
REMARK    5  A    between atoms: C_10  and  C_11
REMARK                            x       y       z     vdW  Elec       q    Type
REMARK                         _______ _______ _______ _____ _____    ______ ____
ROOT
ATOM      1  C   UNL     1      49.761   6.889  16.211  0.00  0.00    +0.000 C 
ENDROOT
BRANCH   1   2
ATOM      2  C   UNL     1      48.647   6.124  15.559  0.00  0.00    +0.000 A 
ATOM      3  C   UNL     1      48.019   5.044  16.177  0.00  0.00    +0.000 A 
ATOM      4  C   UNL     1      46.981   4.373  15.523  0.00  0.00    +0.000 A 
ATOM      5  C   UNL     1      46.604   4.775  14.244  0.00  0.00    +0.000 A 
ATOM      6  N   UNL     1      45.615   4.022  13.563  0.00  0.00    +0.000 N 
ATOM      7  N   UNL     1      47.169   5.849  13.656  0.00  0.00    +0.000 NA
ATOM      8  C   UNL     1      48.158   6.498  14.315  0.00  0.00    +0.000 A 
ATOM      9  H   UNL     1      44.728   4.217  14.022  0.00  0.00    +0.000 HD
BRANCH   6  10
ATOM     10  C   UNL     1      45.580   4.341  12.134  0.00  0.00    +0.000 C 
BRANCH  10  11
ATOM     11  C   UNL     1      44.357   3.745  11.414  0.00  0.00    +0.000 C 
ATOM     12  C   UNL     1      44.851   2.925  10.219  0.00  0.00    +0.000 C 
ATOM     13  C   UNL     1      44.956   3.970   9.127  0.00  0.00    +0.000 C 
ATOM     14  N   UNL     1      43.734   4.760   9.295  0.00  0.00    +0.000 NA
ATOM     15  C   UNL     1      43.432   4.762  10.743  0.00  0.00    +0.000 C 
ATOM     16  H   UNL     1      42.976   4.270   8.814  0.00  0.00    +0.000 HD
ENDBRANCH  10  11
ENDBRANCH   6  10
ENDBRANCH   1   2
BRANCH   1  19
ATOM     17  O   UNL     1      50.362   6.371  18.894  0.00  0.00    +0.000 OA
ATOM     18  C   UNL     1      50.962   5.745  18.025  0.00  0.00    +0.000 C 
ATOM     19  N   UNL     1      50.785   5.996  16.688  0.00  0.00    +0.000 N 
ATOM     20  H   UNL     1      51.151   5.331  16.016  0.00  0.00    +0.000 HD
BRANCH  18  21
ATOM     21  C   UNL     1      51.942   4.707  18.357  0.00  0.00    +0.000 A 
ATOM     22  C   UNL     1      53.068   5.024  19.113  0.00  0.00    +0.000 A 
ATOM     23  S   UNL     1      54.104   3.695  19.387  0.00  0.00    +0.000 S 
ATOM     24  C   UNL     1      53.062   2.637  18.555  0.00  0.00    +0.000 A 
ATOM     25  N   UNL     1      53.351   1.312  18.446  0.00  0.00    +0.000 NA
ATOM     26  C   UNL     1      52.452   0.622  17.821  0.00  0.00    +0.000 A 
ATOM     27  N   UNL     1      51.300   1.139  17.284  0.00  0.00    +0.000 N 
ATOM     28  C   UNL     1      50.994   2.472  17.339  0.00  0.00    +0.000 A 
ATOM     29  O   UNL     1      49.987   2.918  16.795  0.00  0.00    +0.000 OA
ATOM     30  C   UNL     1      51.956   3.292  18.052  0.00  0.00    +0.000 A 
ATOM     31  H   UNL     1      50.651   0.548  16.793  0.00  0.00    +0.000 HD
ENDBRANCH  18  21
ENDBRANCH   1  19
TORSDOF 5
ENDMDL
