MODEL 1
REMARK VINA RESULT:    -8.482      0.000      0.000
REMARK INTER + INTRA:         -11.930
REMARK INTER:                 -11.706
REMARK INTRA:                  -0.224
REMARK UNBOUND:                -0.224
REMARK  Name = 
REMARK  8 active torsions:
REMARK  status: ('A' for Active; 'I' for Inactive)
REMARK    1  A    between atoms: C_1  and  C_2
REMARK    2  A    between atoms: C_7  and  C_8
REMARK    3  A    between atoms: C_12  and  C_13
REMARK    4  A    between atoms: C_13  and  C_14
REMARK    5  A    between atoms: C_14  and  O_15
REMARK    6  A    between atoms: O_15  and  C_16
REMARK    7  A    between atoms: C_19  and  C_20
REMARK    8  A    between atoms: C_20  and  O_22
REMARK                            x       y       z     vdW  Elec       q    Type
REMARK                         _______ _______ _______ _____ _____    ______ ____
ROOT
ATOM      1  C   UNL     1      46.883   4.988  14.221  0.00  0.00    +0.000 A 
ATOM      2  C   UNL     1      47.460   5.885  13.321  0.00  0.00    +0.000 A 
ATOM      3  C   UNL     1      46.755   6.257  12.179  0.00  0.00    +0.000 A 
ATOM      4  C   UNL     1      45.487   5.732  11.956  0.00  0.00    +0.000 A 
ATOM      5  C   UNL     1      44.963   4.839  12.884  0.00  0.00    +0.000 A 
ATOM      6  N   UNL     1      45.649   4.459  13.988  0.00  0.00    +0.000 NA
ENDROOT
BRANCH   1  13
ATOM      7  C   UNL     1      48.674   6.885  15.846  0.00  0.00    +0.000 C 
ATOM      8  C   UNL     1      48.408   5.458  16.225  0.00  0.00    +0.000 A 
ATOM      9  N   UNL     1      49.041   5.035  17.359  0.00  0.00    +0.000 NA
ATOM     10  C   UNL     1      48.805   3.763  17.740  0.00  0.00    +0.000 A 
ATOM     11  C   UNL     1      47.955   2.936  17.039  0.00  0.00    +0.000 A 
ATOM     12  N   UNL     1      47.313   3.338  15.920  0.00  0.00    +0.000 NA
ATOM     13  C   UNL     1      47.557   4.615  15.489  0.00  0.00    +0.000 A 
ENDBRANCH   1  13
BRANCH   5  14
ATOM     14  C   UNL     1      43.614   4.197  12.672  0.00  0.00    +0.000 C 
BRANCH  14  15
ATOM     15  C   UNL     1      43.725   3.043  11.679  0.00  0.00    +0.000 C 
BRANCH  15  16
ATOM     16  O   UNL     1      43.411   3.485  10.349  0.00  0.00    +0.000 OA
BRANCH  16  17
ATOM     17  C   UNL     1      44.395   3.290   9.423  0.00  0.00    +0.000 A 
ATOM     18  C   UNL     1      44.940   4.236   8.575  0.00  0.00    +0.000 A 
ATOM     19  N   UNL     1      45.908   3.982   7.669  0.00  0.00    +0.000 NA
ATOM     20  C   UNL     1      46.347   2.714   7.624  0.00  0.00    +0.000 A 
ATOM     21  N   UNL     1      45.904   1.689   8.399  0.00  0.00    +0.000 NA
ATOM     22  C   UNL     1      44.929   2.021   9.284  0.00  0.00    +0.000 A 
BRANCH  20  23
ATOM     23  C   UNL     1      47.425   2.371   6.626  0.00  0.00    +0.000 C 
ATOM     24  O   UNL     1      48.228   1.460   6.721  0.00  0.00    +0.000 OA
BRANCH  23  25
ATOM     25  O   UNL     1      47.392   3.231   5.569  0.00  0.00    +0.000 OA
ATOM     26  H   UNL     1      46.928   2.804   4.814  0.00  0.00    +0.000 HD
ENDBRANCH  23  25
ENDBRANCH  20  23
ENDBRANCH  16  17
ENDBRANCH  15  16
ENDBRANCH  14  15
ENDBRANCH   5  14
TORSDOF 7
ENDMDL
MODEL 2
REMARK VINA RESULT:    -8.104      2.440      3.961
REMARK INTER + INTRA:         -11.407
REMARK INTER:                 -10.977
REMARK INTRA:                  -0.431
REMARK UNBOUND:                -0.224
REMARK  Name = 
REMARK  8 active torsions:
REMARK  status: ('A' for Active; 'I' for Inactive)
REMARK    1  A    between atoms: C_1  and  C_2
REMARK    2  A    between atoms: C_7  and  C_8
REMARK    3  A    between atoms: C_12  and  C_13
REMARK    4  A    between atoms: C_13  and  C_14
REMARK    5  A    between atoms: C_14  and  O_15
REMARK    6  A    between atoms: O_15  and  C_16
REMARK    7  A    between atoms: C_19  and  C_20
REMARK    8  A    between atoms: C_20  and  O_22
REMARK                            x       y       z     vdW  Elec       q    Type
REMARK                         _______ _______ _______ _____ _____    ______ ____
ROOT
ATOM      1  C   UNL     1      46.414   6.905  12.826  0.00  0.00    +0.000 A 
ATOM      2  C   UNL     1      47.218   6.038  13.566  0.00  0.00    +0.000 A 
ATOM      3  C   UNL     1      46.724   4.787  13.927  0.00  0.00    +0.000 A 
ATOM      4  C   UNL     1      45.440   4.421  13.541  0.00  0.00    +0.000 A 
ATOM      5  C   UNL     1      44.681   5.326  12.808  0.00  0.00    +0.000 A 
ATOM      6  N   UNL     1      45.148   6.552  12.468  0.00  0.00    +0.000 NA
ENDROOT
BRANCH   1  13
ATOM      7  C   UNL     1      49.251   7.383  11.743  0.00  0.00    +0.000 C 
ATOM      8  C   UNL     1      48.219   8.462  11.889  0.00  0.00    +0.000 A 
ATOM      9  N   UNL     1      48.634   9.710  11.515  0.00  0.00    +0.000 NA
ATOM     10  C   UNL     1      47.723  10.699  11.612  0.00  0.00    +0.000 A 
ATOM     11  C   UNL     1      46.435  10.468  12.043  0.00  0.00    +0.000 A 
ATOM     12  N   UNL     1      46.003   9.241  12.408  0.00  0.00    +0.000 NA
ATOM     13  C   UNL     1      46.914   8.219  12.351  0.00  0.00    +0.000 A 
ENDBRANCH   1  13
BRANCH   5  14
ATOM     14  C   UNL     1      43.263   5.006  12.404  0.00  0.00    +0.000 C 
BRANCH  14  15
ATOM     15  C   UNL     1      43.251   3.991  11.264  0.00  0.00    +0.000 C 
BRANCH  15  16
ATOM     16  O   UNL     1      43.759   4.579  10.056  0.00  0.00    +0.000 OA
BRANCH  16  17
ATOM     17  C   UNL     1      44.617   3.793   9.341  0.00  0.00    +0.000 A 
ATOM     18  C   UNL     1      45.499   4.202   8.359  0.00  0.00    +0.000 A 
ATOM     19  N   UNL     1      46.320   3.376   7.677  0.00  0.00    +0.000 NA
ATOM     20  C   UNL     1      46.247   2.077   8.009  0.00  0.00    +0.000 A 
ATOM     21  N   UNL     1      45.432   1.540   8.955  0.00  0.00    +0.000 NA
ATOM     22  C   UNL     1      44.635   2.433   9.596  0.00  0.00    +0.000 A 
BRANCH  20  23
ATOM     23  C   UNL     1      47.137   1.105   7.276  0.00  0.00    +0.000 C 
ATOM     24  O   UNL     1      47.898   1.375   6.363  0.00  0.00    +0.000 OA
BRANCH  23  25
ATOM     25  O   UNL     1      46.985  -0.155   7.772  0.00  0.00    +0.000 OA
ATOM     26  H   UNL     1      46.407  -0.127   8.567  0.00  0.00    +0.000 HD
ENDBRANCH  23  25
ENDBRANCH  20  23
ENDBRANCH  16  17
ENDBRANCH  15  16
ENDBRANCH  14  15
ENDBRANCH   5  14
TORSDOF 7
ENDMDL
MODEL 3
REMARK VINA RESULT:    -7.882      1.667      2.595
REMARK INTER + INTRA:         -11.101
REMARK INTER:                 -10.639
REMARK INTRA:                  -0.462
REMARK UNBOUND:                -0.224
REMARK  Name = 
REMARK  8 active torsions:
REMARK  status: ('A' for Active; 'I' for Inactive)
REMARK    1  A    between atoms: C_1  and  C_2
REMARK    2  A    between atoms: C_7  and  C_8
REMARK    3  A    between atoms: C_12  and  C_13
REMARK    4  A    between atoms: C_13  and  C_14
REMARK    5  A    between atoms: C_14  and  O_15
REMARK    6  A    between atoms: O_15  and  C_16
REMARK    7  A    between atoms: C_19  and  C_20
REMARK    8  A    between atoms: C_20  and  O_22
REMARK                            x       y       z     vdW  Elec       q    Type
REMARK                         _______ _______ _______ _____ _____    ______ ____
ROOT
ATOM      1  C   UNL     1      47.154   5.239  13.774  0.00  0.00    +0.000 A 
ATOM      2  C   UNL     1      47.228   3.853  13.921  0.00  0.00    +0.000 A 
ATOM      3  C   UNL     1      46.280   3.047  13.294  0.00  0.00    +0.000 A 
ATOM      4  C   UNL     1      45.279   3.635  12.531  0.00  0.00    +0.000 A 
ATOM      5  C   UNL     1      45.251   5.021  12.422  0.00  0.00    +0.000 A 
ATOM      6  N   UNL     1      46.158   5.813  13.042  0.00  0.00    +0.000 NA
ENDROOT
BRANCH   1  13
ATOM      7  C   UNL     1      48.479   7.559  12.253  0.00  0.00    +0.000 C 
ATOM      8  C   UNL     1      48.820   7.181  13.664  0.00  0.00    +0.000 A 
ATOM      9  N   UNL     1      49.796   7.942  14.244  0.00  0.00    +0.000 NA
ATOM     10  C   UNL     1      50.111   7.643  15.521  0.00  0.00    +0.000 A 
ATOM     11  C   UNL     1      49.473   6.640  16.216  0.00  0.00    +0.000 A 
ATOM     12  N   UNL     1      48.500   5.881  15.663  0.00  0.00    +0.000 NA
ATOM     13  C   UNL     1      48.179   6.140  14.357  0.00  0.00    +0.000 A 
ENDBRANCH   1  13
BRANCH   5  14
ATOM     14  C   UNL     1      44.160   5.720  11.649  0.00  0.00    +0.000 C 
BRANCH  14  15
ATOM     15  C   UNL     1      43.345   4.709  10.848  0.00  0.00    +0.000 C 
BRANCH  15  16
ATOM     16  O   UNL     1      43.656   4.799   9.448  0.00  0.00    +0.000 OA
BRANCH  16  17
ATOM     17  C   UNL     1      44.490   3.829   8.973  0.00  0.00    +0.000 A 
ATOM     18  C   UNL     1      44.439   2.476   9.252  0.00  0.00    +0.000 A 
ATOM     19  N   UNL     1      45.299   1.561   8.758  0.00  0.00    +0.000 NA
ATOM     20  C   UNL     1      46.251   2.037   7.939  0.00  0.00    +0.000 A 
ATOM     21  N   UNL     1      46.414   3.337   7.578  0.00  0.00    +0.000 NA
ATOM     22  C   UNL     1      45.512   4.198   8.117  0.00  0.00    +0.000 A 
BRANCH  20  23
ATOM     23  C   UNL     1      47.245   1.061   7.362  0.00  0.00    +0.000 C 
ATOM     24  O   UNL     1      48.184   1.335   6.636  0.00  0.00    +0.000 OA
BRANCH  23  25
ATOM     25  O   UNL     1      46.957  -0.211   7.761  0.00  0.00    +0.000 OA
ATOM     26  H   UNL     1      47.306  -0.849   7.100  0.00  0.00    +0.000 HD
ENDBRANCH  23  25
ENDBRANCH  20  23
ENDBRANCH  16  17
ENDBRANCH  15  16
ENDBRANCH  14  15
ENDBRANCH   5  14
TORSDOF 7
ENDMDL
MODEL 4
REMARK VINA RESULT:    -7.527      1.708      2.492
REMARK INTER + INTRA:         -10.611
REMARK INTER:                 -10.477
REMARK INTRA:                  -0.134
REMARK UNBOUND:                -0.224
REMARK  Name = 
REMARK  8 active torsions:
REMARK  status: ('A' for Active; 'I' for Inactive)
REMARK    1  A    between atoms: C_1  and  C_2
REMARK    2  A    between atoms: C_7  and  C_8
REMARK    3  A    between atoms: C_12  and  C_13
REMARK    4  A    between atoms: C_13  and  C_14
REMARK    5  A    between atoms: C_14  and  O_15
REMARK    6  A    between atoms: O_15  and  C_16
REMARK    7  A    between atoms: C_19  and  C_20
REMARK    8  A    between atoms: C_20  and  O_22
REMARK                            x       y       z     vdW  Elec       q    Type
REMARK                         _______ _______ _______ _____ _____    ______ ____
ROOT
ATOM      1  C   UNL     1      47.039   6.723  13.226  0.00  0.00    +0.000 A 
ATOM      2  C   UNL     1      46.162   7.762  12.911  0.00  0.00    +0.000 A 
ATOM      3  C   UNL     1      44.947   7.469  12.298  0.00  0.00    +0.000 A 
ATOM      4  C   UNL     1      44.625   6.147  12.013  0.00  0.00    +0.000 A 
ATOM      5  C   UNL     1      45.538   5.153  12.345  0.00  0.00    +0.000 A 
ATOM      6  N   UNL     1      46.730   5.431  12.926  0.00  0.00    +0.000 NA
ENDROOT
BRANCH   1  13
ATOM      7  C   UNL     1      49.461   8.169  12.004  0.00  0.00    +0.000 C 
ATOM      8  C   UNL     1      49.441   7.596  13.391  0.00  0.00    +0.000 A 
ATOM      9  N   UNL     1      50.605   7.745  14.092  0.00  0.00    +0.000 NA
ATOM     10  C   UNL     1      50.613   7.261  15.351  0.00  0.00    +0.000 A 
ATOM     11  C   UNL     1      49.506   6.666  15.913  0.00  0.00    +0.000 A 
ATOM     12  N   UNL     1      48.343   6.516  15.239  0.00  0.00    +0.000 NA
ATOM     13  C   UNL     1      48.313   6.970  13.947  0.00  0.00    +0.000 A 
ENDBRANCH   1  13
BRANCH   5  14
ATOM     14  C   UNL     1      45.268   3.705  12.015  0.00  0.00    +0.000 C 
BRANCH  14  15
ATOM     15  C   UNL     1      43.790   3.499  11.698  0.00  0.00    +0.000 C 
BRANCH  15  16
ATOM     16  O   UNL     1      43.522   3.785  10.316  0.00  0.00    +0.000 OA
BRANCH  16  17
ATOM     17  C   UNL     1      44.474   3.357   9.437  0.00  0.00    +0.000 A 
ATOM     18  C   UNL     1      44.917   2.060   9.253  0.00  0.00    +0.000 A 
ATOM     19  N   UNL     1      45.872   1.696   8.372  0.00  0.00    +0.000 NA
ATOM     20  C   UNL     1      46.399   2.690   7.639  0.00  0.00    +0.000 A 
ATOM     21  N   UNL     1      46.056   4.004   7.714  0.00  0.00    +0.000 NA
ATOM     22  C   UNL     1      45.091   4.292   8.624  0.00  0.00    +0.000 A 
BRANCH  20  23
ATOM     23  C   UNL     1      47.476   2.343   6.642  0.00  0.00    +0.000 C 
ATOM     24  O   UNL     1      48.301   1.455   6.755  0.00  0.00    +0.000 OA
BRANCH  23  25
ATOM     25  O   UNL     1      47.414   3.172   5.561  0.00  0.00    +0.000 OA
ATOM     26  H   UNL     1      47.645   4.087   5.836  0.00  0.00    +0.000 HD
ENDBRANCH  23  25
ENDBRANCH  20  23
ENDBRANCH  16  17
ENDBRANCH  15  16
ENDBRANCH  14  15
ENDBRANCH   5  14
TORSDOF 7
ENDMDL
MODEL 5
REMARK VINA RESULT:    -7.406      3.931      8.073
REMARK INTER + INTRA:         -10.444
REMARK INTER:                  -9.892
REMARK INTRA:                  -0.553
REMARK UNBOUND:                -0.224
REMARK  Name = 
REMARK  8 active torsions:
REMARK  status: ('A' for Active; 'I' for Inactive)
REMARK    1  A    between atoms: C_1  and  C_2
REMARK    2  A    between atoms: C_7  and  C_8
REMARK    3  A    between atoms: C_12  and  C_13
REMARK    4  A    between atoms: C_13  and  C_14
REMARK    5  A    between atoms: C_14  and  O_15
REMARK    6  A    between atoms: O_15  and  C_16
REMARK    7  A    between atoms: C_19  and  C_20
REMARK    8  A    between atoms: C_20  and  O_22
REMARK                            x       y       z     vdW  Elec       q    Type
REMARK                         _______ _______ _______ _____ _____    ______ ____
ROOT
ATOM      1  C   UNL     1      45.451   5.600  11.237  0.00  0.00    +0.000 A 
ATOM      2  C   UNL     1      44.972   6.909  11.169  0.00  0.00    +0.000 A 
ATOM      3  C   UNL     1      45.358   7.831  12.139  0.00  0.00    +0.000 A 
ATOM      4  C   UNL     1      46.217   7.433  13.157  0.00  0.00    +0.000 A 
ATOM      5  C   UNL     1      46.660   6.116  13.178  0.00  0.00    +0.000 A 
ATOM      6  N   UNL     1      46.275   5.209  12.249  0.00  0.00    +0.000 NA
ENDROOT
BRANCH   1  13
ATOM      7  C   UNL     1      43.671   3.135  11.693  0.00  0.00    +0.000 C 
ATOM      8  C   UNL     1      44.351   3.447  10.392  0.00  0.00    +0.000 A 
ATOM      9  N   UNL     1      44.138   2.534   9.398  0.00  0.00    +0.000 NA
ATOM     10  C   UNL     1      44.715   2.796   8.208  0.00  0.00    +0.000 A 
ATOM     11  C   UNL     1      45.464   3.932   7.994  0.00  0.00    +0.000 A 
ATOM     12  N   UNL     1      45.679   4.851   8.961  0.00  0.00    +0.000 NA
ATOM     13  C   UNL     1      45.131   4.598  10.191  0.00  0.00    +0.000 A 
ENDBRANCH   1  13
BRANCH   5  14
ATOM     14  C   UNL     1      47.553   5.611  14.285  0.00  0.00    +0.000 C 
BRANCH  14  15
ATOM     15  C   UNL     1      46.864   4.488  15.054  0.00  0.00    +0.000 C 
BRANCH  15  16
ATOM     16  O   UNL     1      47.231   4.522  16.443  0.00  0.00    +0.000 OA
BRANCH  16  17
ATOM     17  C   UNL     1      48.365   3.833  16.763  0.00  0.00    +0.000 A 
ATOM     18  C   UNL     1      49.385   4.249  17.597  0.00  0.00    +0.000 A 
ATOM     19  N   UNL     1      50.491   3.525  17.872  0.00  0.00    +0.000 NA
ATOM     20  C   UNL     1      50.564   2.323  17.277  0.00  0.00    +0.000 A 
ATOM     21  N   UNL     1      49.635   1.790  16.440  0.00  0.00    +0.000 NA
ATOM     22  C   UNL     1      48.553   2.578  16.211  0.00  0.00    +0.000 A 
BRANCH  20  23
ATOM     23  C   UNL     1      51.781   1.473  17.542  0.00  0.00    +0.000 C 
ATOM     24  O   UNL     1      52.938   1.789  17.331  0.00  0.00    +0.000 OA
BRANCH  23  25
ATOM     25  O   UNL     1      51.420   0.266  18.063  0.00  0.00    +0.000 OA
ATOM     26  H   UNL     1      50.459   0.274  18.273  0.00  0.00    +0.000 HD
ENDBRANCH  23  25
ENDBRANCH  20  23
ENDBRANCH  16  17
ENDBRANCH  15  16
ENDBRANCH  14  15
ENDBRANCH   5  14
TORSDOF 7
ENDMDL
MODEL 6
REMARK VINA RESULT:    -7.306      3.365      5.688
REMARK INTER + INTRA:         -10.306
REMARK INTER:                  -9.543
REMARK INTRA:                  -0.764
REMARK UNBOUND:                -0.224
REMARK  Name = 
REMARK  8 active torsions:
REMARK  status: ('A' for Active; 'I' for Inactive)
REMARK    1  A    between atoms: C_1  and  C_2
REMARK    2  A    between atoms: C_7  and  C_8
REMARK    3  A    between atoms: C_12  and  C_13
REMARK    4  A    between atoms: C_13  and  C_14
REMARK    5  A    between atoms: C_14  and  O_15
REMARK    6  A    between atoms: O_15  and  C_16
REMARK    7  A    between atoms: C_19  and  C_20
REMARK    8  A    between atoms: C_20  and  O_22
REMARK                            x       y       z     vdW  Elec       q    Type
REMARK                         _______ _______ _______ _____ _____    ______ ____
ROOT
ATOM      1  C   UNL     1      50.104   4.728  17.719  0.00  0.00    +0.000 A 
ATOM      2  C   UNL     1      49.355   5.090  18.840  0.00  0.00    +0.000 A 
ATOM      3  C   UNL     1      48.584   6.248  18.802  0.00  0.00    +0.000 A 
ATOM      4  C   UNL     1      48.568   7.023  17.648  0.00  0.00    +0.000 A 
ATOM      5  C   UNL     1      49.336   6.617  16.563  0.00  0.00    +0.000 A 
ATOM      6  N   UNL     1      50.103   5.501  16.598  0.00  0.00    +0.000 NA
ENDROOT
BRANCH   1  13
ATOM      7  C   UNL     1      49.043   2.078  16.578  0.00  0.00    +0.000 C 
ATOM      8  C   UNL     1      50.402   2.239  17.194  0.00  0.00    +0.000 A 
ATOM      9  N   UNL     1      51.155   1.099  17.233  0.00  0.00    +0.000 NA
ATOM     10  C   UNL     1      52.391   1.214  17.760  0.00  0.00    +0.000 A 
ATOM     11  C   UNL     1      52.882   2.417  18.217  0.00  0.00    +0.000 A 
ATOM     12  N   UNL     1      52.157   3.557  18.179  0.00  0.00    +0.000 NA
ATOM     13  C   UNL     1      50.884   3.467  17.678  0.00  0.00    +0.000 A 
ENDBRANCH   1  13
BRANCH   5  14
ATOM     14  C   UNL     1      49.400   7.442  15.301  0.00  0.00    +0.000 C 
BRANCH  14  15
ATOM     15  C   UNL     1      48.225   7.107  14.387  0.00  0.00    +0.000 C 
BRANCH  15  16
ATOM     16  O   UNL     1      48.344   5.770  13.876  0.00  0.00    +0.000 OA
BRANCH  16  17
ATOM     17  C   UNL     1      47.195   5.235  13.369  0.00  0.00    +0.000 A 
ATOM     18  C   UNL     1      46.242   5.882  12.604  0.00  0.00    +0.000 A 
ATOM     19  N   UNL     1      45.117   5.302  12.136  0.00  0.00    +0.000 NA
ATOM     20  C   UNL     1      44.952   4.008  12.451  0.00  0.00    +0.000 A 
ATOM     21  N   UNL     1      45.807   3.252  13.189  0.00  0.00    +0.000 NA
ATOM     22  C   UNL     1      46.915   3.905  13.627  0.00  0.00    +0.000 A 
BRANCH  20  23
ATOM     23  C   UNL     1      43.709   3.310  11.960  0.00  0.00    +0.000 C 
ATOM     24  O   UNL     1      42.941   3.723  11.109  0.00  0.00    +0.000 OA
BRANCH  23  25
ATOM     25  O   UNL     1      43.539   2.120  12.604  0.00  0.00    +0.000 OA
ATOM     26  H   UNL     1      43.958   2.166  13.493  0.00  0.00    +0.000 HD
ENDBRANCH  23  25
ENDBRANCH  20  23
ENDBRANCH  16  17
ENDBRANCH  15  16
ENDBRANCH  14  15
ENDBRANCH   5  14
TORSDOF 7
ENDMDL
MODEL 7
REMARK VINA RESULT:    -6.947      2.125      3.285
REMARK INTER + INTRA:          -9.810
REMARK INTER:                  -8.747
REMARK INTRA:                  -1.064
REMARK UNBOUND:                -0.224
REMARK  Name = 
REMARK  8 active torsions:
REMARK  status: ('A' for Active; 'I' for Inactive)
REMARK    1  A    between atoms: C_1  and  C_2
REMARK    2  A    between atoms: C_7  and  C_8
REMARK    3  A    between atoms: C_12  and  C_13
REMARK    4  A    between atoms: C_13  and  C_14
REMARK    5  A    between atoms: C_14  and  O_15
REMARK    6  A    between atoms: O_15  and  C_16
REMARK    7  A    between atoms: C_19  and  C_20
REMARK    8  A    between atoms: C_20  and  O_22
REMARK                            x       y       z     vdW  Elec       q    Type
REMARK                         _______ _______ _______ _____ _____    ______ ____
ROOT
ATOM      1  C   UNL     1      47.864   6.618  13.704  0.00  0.00    +0.000 A 
ATOM      2  C   UNL     1      49.016   6.975  13.003  0.00  0.00    +0.000 A 
ATOM      3  C   UNL     1      48.962   8.019  12.084  0.00  0.00    +0.000 A 
ATOM      4  C   UNL     1      47.763   8.692  11.882  0.00  0.00    +0.000 A 
ATOM      5  C   UNL     1      46.645   8.291  12.605  0.00  0.00    +0.000 A 
ATOM      6  N   UNL     1      46.685   7.265  13.488  0.00  0.00    +0.000 NA
ENDROOT
BRANCH   1  13
ATOM      7  C   UNL     1      46.407   3.922  13.458  0.00  0.00    +0.000 C 
ATOM      8  C   UNL     1      47.192   4.341  14.666  0.00  0.00    +0.000 A 
ATOM      9  N   UNL     1      47.206   3.433  15.687  0.00  0.00    +0.000 NA
ATOM     10  C   UNL     1      47.921   3.769  16.780  0.00  0.00    +0.000 A 
ATOM     11  C   UNL     1      48.620   4.954  16.860  0.00  0.00    +0.000 A 
ATOM     12  N   UNL     1      48.625   5.861  15.859  0.00  0.00    +0.000 NA
ATOM     13  C   UNL     1      47.882   5.562  14.747  0.00  0.00    +0.000 A 
ENDBRANCH   1  13
BRANCH   5  14
ATOM     14  C   UNL     1      45.303   8.949  12.393  0.00  0.00    +0.000 C 
BRANCH  14  15
ATOM     15  C   UNL     1      44.540   8.251  11.271  0.00  0.00    +0.000 C 
BRANCH  15  16
ATOM     16  O   UNL     1      43.952   7.027  11.742  0.00  0.00    +0.000 OA
BRANCH  16  17
ATOM     17  C   UNL     1      44.314   5.905  11.054  0.00  0.00    +0.000 A 
ATOM     18  C   UNL     1      45.436   5.737  10.265  0.00  0.00    +0.000 A 
ATOM     19  N   UNL     1      45.739   4.603   9.599  0.00  0.00    +0.000 NA
ATOM     20  C   UNL     1      44.868   3.591   9.743  0.00  0.00    +0.000 A 
ATOM     21  N   UNL     1      43.731   3.618  10.488  0.00  0.00    +0.000 NA
ATOM     22  C   UNL     1      43.494   4.793  11.126  0.00  0.00    +0.000 A 
BRANCH  20  23
ATOM     23  C   UNL     1      45.152   2.301   9.016  0.00  0.00    +0.000 C 
ATOM     24  O   UNL     1      46.045   2.111   8.210  0.00  0.00    +0.000 OA
BRANCH  23  25
ATOM     25  O   UNL     1      44.258   1.338   9.380  0.00  0.00    +0.000 OA
ATOM     26  H   UNL     1      44.533   0.474   8.998  0.00  0.00    +0.000 HD
ENDBRANCH  23  25
ENDBRANCH  20  23
ENDBRANCH  16  17
ENDBRANCH  15  16
ENDBRANCH  14  15
ENDBRANCH   5  14
TORSDOF 7
ENDMDL
MODEL 8
REMARK VINA RESULT:    -6.844      3.581      7.688
REMARK INTER + INTRA:          -9.668
REMARK INTER:                  -8.684
REMARK INTRA:                  -0.985
REMARK UNBOUND:                -0.224
REMARK  Name = 
REMARK  8 active torsions:
REMARK  status: ('A' for Active; 'I' for Inactive)
REMARK    1  A    between atoms: C_1  and  C_2
REMARK    2  A    between atoms: C_7  and  C_8
REMARK    3  A    between atoms: C_12  and  C_13
REMARK    4  A    between atoms: C_13  and  C_14
REMARK    5  A    between atoms: C_14  and  O_15
REMARK    6  A    between atoms: O_15  and  C_16
REMARK    7  A    between atoms: C_19  and  C_20
REMARK    8  A    between atoms: C_20  and  O_22
REMARK                            x       y       z     vdW  Elec       q    Type
REMARK                         _______ _______ _______ _____ _____    ______ ____
ROOT
ATOM      1  C   UNL     1      45.833   6.740  11.396  0.00  0.00    +0.000 A 
ATOM      2  C   UNL     1      44.880   7.650  11.853  0.00  0.00    +0.000 A 
ATOM      3  C   UNL     1      45.296   8.871  12.377  0.00  0.00    +0.000 A 
ATOM      4  C   UNL     1      46.653   9.165  12.433  0.00  0.00    +0.000 A 
ATOM      5  C   UNL     1      47.559   8.220  11.968  0.00  0.00    +0.000 A 
ATOM      6  N   UNL     1      47.164   7.023  11.473  0.00  0.00    +0.000 NA
ENDROOT
BRANCH   1  13
ATOM      7  C   UNL     1      44.682   4.335  12.926  0.00  0.00    +0.000 C 
ATOM      8  C   UNL     1      44.952   4.336  11.450  0.00  0.00    +0.000 A 
ATOM      9  N   UNL     1      44.661   3.163  10.811  0.00  0.00    +0.000 NA
ATOM     10  C   UNL     1      44.871   3.137   9.479  0.00  0.00    +0.000 A 
ATOM     11  C   UNL     1      45.332   4.237   8.790  0.00  0.00    +0.000 A 
ATOM     12  N   UNL     1      45.617   5.408   9.402  0.00  0.00    +0.000 NA
ATOM     13  C   UNL     1      45.444   5.457  10.761  0.00  0.00    +0.000 A 
ENDBRANCH   1  13
BRANCH   5  14
ATOM     14  C   UNL     1      49.047   8.460  12.049  0.00  0.00    +0.000 C 
BRANCH  14  15
ATOM     15  C   UNL     1      49.680   7.530  13.080  0.00  0.00    +0.000 C 
BRANCH  15  16
ATOM     16  O   UNL     1      49.164   7.801  14.393  0.00  0.00    +0.000 OA
BRANCH  16  17
ATOM     17  C   UNL     1      48.728   6.709  15.086  0.00  0.00    +0.000 A 
ATOM     18  C   UNL     1      47.912   5.696  14.617  0.00  0.00    +0.000 A 
ATOM     19  N   UNL     1      47.504   4.641  15.352  0.00  0.00    +0.000 NA
ATOM     20  C   UNL     1      47.947   4.607  16.619  0.00  0.00    +0.000 A 
ATOM     21  N   UNL     1      48.753   5.530  17.207  0.00  0.00    +0.000 NA
ATOM     22  C   UNL     1      49.119   6.563  16.404  0.00  0.00    +0.000 A 
BRANCH  20  23
ATOM     23  C   UNL     1      47.517   3.454  17.491  0.00  0.00    +0.000 C 
ATOM     24  O   UNL     1      46.434   2.897  17.465  0.00  0.00    +0.000 OA
BRANCH  23  25
ATOM     25  O   UNL     1      48.520   3.096  18.343  0.00  0.00    +0.000 OA
ATOM     26  H   UNL     1      49.239   3.766  18.303  0.00  0.00    +0.000 HD
ENDBRANCH  23  25
ENDBRANCH  20  23
ENDBRANCH  16  17
ENDBRANCH  15  16
ENDBRANCH  14  15
ENDBRANCH   5  14
TORSDOF 7
ENDMDL
MODEL 9
REMARK VINA RESULT:    -6.550      2.634      4.607
REMARK INTER + INTRA:          -9.263
REMARK INTER:                  -8.389
REMARK INTRA:                  -0.874
REMARK UNBOUND:                -0.224
REMARK  Name = 
REMARK  8 active torsions:
REMARK  status: ('A' for Active; 'I' for Inactive)
REMARK    1  A    between atoms: C_1  and  C_2
REMARK    2  A    between atoms: C_7  and  C_8
REMARK    3  A    between atoms: C_12  and  C_13
REMARK    4  A    between atoms: C_13  and  C_14
REMARK    5  A    between atoms: C_14  and  O_15
REMARK    6  A    between atoms: O_15  and  C_16
REMARK    7  A    between atoms: C_19  and  C_20
REMARK    8  A    between atoms: C_20  and  O_22
REMARK                            x       y       z     vdW  Elec       q    Type
REMARK                         _______ _______ _______ _____ _____    ______ ____
ROOT
ATOM      1  C   UNL     1      49.171   6.558  16.296  0.00  0.00    +0.000 A 
ATOM      2  C   UNL     1      48.785   7.565  17.181  0.00  0.00    +0.000 A 
ATOM      3  C   UNL     1      48.441   8.819  16.683  0.00  0.00    +0.000 A 
ATOM      4  C   UNL     1      48.484   9.046  15.312  0.00  0.00    +0.000 A 
ATOM      5  C   UNL     1      48.880   8.007  14.477  0.00  0.00    +0.000 A 
ATOM      6  N   UNL     1      49.233   6.791  14.955  0.00  0.00    +0.000 NA
ENDROOT
BRANCH   1  13
ATOM      7  C   UNL     1      47.094   4.300  16.494  0.00  0.00    +0.000 C 
ATOM      8  C   UNL     1      48.532   4.151  16.897  0.00  0.00    +0.000 A 
ATOM      9  N   UNL     1      48.869   2.921  17.386  0.00  0.00    +0.000 NA
ATOM     10  C   UNL     1      50.159   2.746  17.736  0.00  0.00    +0.000 A 
ATOM     11  C   UNL     1      51.098   3.744  17.590  0.00  0.00    +0.000 A 
ATOM     12  N   UNL     1      50.787   4.965  17.100  0.00  0.00    +0.000 NA
ATOM     13  C   UNL     1      49.476   5.184  16.765  0.00  0.00    +0.000 A 
ENDBRANCH   1  13
BRANCH   5  14
ATOM     14  C   UNL     1      48.995   8.207  12.986  0.00  0.00    +0.000 C 
BRANCH  14  15
ATOM     15  C   UNL     1      48.308   7.065  12.242  0.00  0.00    +0.000 C 
BRANCH  15  16
ATOM     16  O   UNL     1      46.881   7.223  12.275  0.00  0.00    +0.000 OA
BRANCH  16  17
ATOM     17  C   UNL     1      46.163   6.087  12.034  0.00  0.00    +0.000 A 
ATOM     18  C   UNL     1      45.964   5.028  12.899  0.00  0.00    +0.000 A 
ATOM     19  N   UNL     1      45.249   3.922  12.602  0.00  0.00    +0.000 NA
ATOM     20  C   UNL     1      44.707   3.890  11.374  0.00  0.00    +0.000 A 
ATOM     21  N   UNL     1      44.819   4.860  10.428  0.00  0.00    +0.000 NA
ATOM     22  C   UNL     1      45.555   5.939  10.800  0.00  0.00    +0.000 A 
BRANCH  20  23
ATOM     23  C   UNL     1      43.903   2.676  10.984  0.00  0.00    +0.000 C 
ATOM     24  O   UNL     1      42.896   2.272  11.538  0.00  0.00    +0.000 OA
BRANCH  23  25
ATOM     25  O   UNL     1      44.455   2.061   9.900  0.00  0.00    +0.000 OA
ATOM     26  H   UNL     1      44.562   1.102  10.086  0.00  0.00    +0.000 HD
ENDBRANCH  23  25
ENDBRANCH  20  23
ENDBRANCH  16  17
ENDBRANCH  15  16
ENDBRANCH  14  15
ENDBRANCH   5  14
TORSDOF 7
ENDMDL
