MODEL 1
REMARK VINA RESULT:    -8.193      0.000      0.000
REMARK INTER + INTRA:         -13.115
REMARK INTER:                 -12.024
REMARK INTRA:                  -1.091
REMARK UNBOUND:                -1.091
REMARK  Name = 
REMARK  9 active torsions:
REMARK  status: ('A' for Active; 'I' for Inactive)
REMARK    1  A    between atoms: C_1  and  O_2
REMARK    2  A    between atoms: O_2  and  C_3
REMARK    3  A    between atoms: C_10  and  C_11
REMARK    4  A    between atoms: N_13  and  C_14
REMARK    5  A    between atoms: C_14  and  C_15
REMARK    6  A    between atoms: C_18  and  C_19
REMARK    7  A    between atoms: C_19  and  O_20
REMARK    8  A    between atoms: O_20  and  C_21
REMARK    9  A    between atoms: C_21  and  C_22
REMARK                            x       y       z     vdW  Elec       q    Type
REMARK                         _______ _______ _______ _____ _____    ______ ____
ROOT
ATOM      1  C   UNL     1      47.999   6.974  13.302  0.00  0.00    +0.000 C 
ENDROOT
BRANCH   1   2
ATOM      2  C   UNL     1      46.844   6.194  12.729  0.00  0.00    +0.000 A 
ATOM      3  C   UNL     1      46.217   5.188  13.475  0.00  0.00    +0.000 A 
ATOM      4  C   UNL     1      45.172   4.437  12.923  0.00  0.00    +0.000 A 
ATOM      5  C   UNL     1      44.738   4.671  11.611  0.00  0.00    +0.000 A 
ATOM      6  C   UNL     1      45.363   5.682  10.868  0.00  0.00    +0.000 A 
ATOM      7  C   UNL     1      46.407   6.432  11.419  0.00  0.00    +0.000 A 
BRANCH   5   8
ATOM      8  C   UNL     1      43.647   3.826  10.999  0.00  0.00    +0.000 C 
BRANCH   8   9
ATOM      9  O   UNL     1      43.963   3.557   9.637  0.00  0.00    +0.000 OA
BRANCH   9  10
ATOM     10  C   UNL     1      44.548   2.259   9.480  0.00  0.00    +0.000 C 
BRANCH  10  11
ATOM     11  C   UNL     1      45.596   2.257   8.390  0.00  0.00    +0.000 A 
ATOM     12  C   UNL     1      45.844   3.403   7.635  0.00  0.00    +0.000 A 
ATOM     13  C   UNL     1      46.827   3.367   6.650  0.00  0.00    +0.000 A 
ATOM     14  C   UNL     1      47.549   2.198   6.453  0.00  0.00    +0.000 A 
ATOM     15  C   UNL     1      47.260   1.109   7.258  0.00  0.00    +0.000 A 
ATOM     16  N   UNL     1      46.310   1.113   8.220  0.00  0.00    +0.000 NA
ENDBRANCH  10  11
ENDBRANCH   9  10
ENDBRANCH   8   9
ENDBRANCH   5   8
ENDBRANCH   1   2
BRANCH   1  19
ATOM     17  C   UNL     1      49.012   6.946  15.542  0.00  0.00    +0.000 C 
ATOM     18  O   UNL     1      50.129   6.762  15.061  0.00  0.00    +0.000 OA
ATOM     19  N   UNL     1      47.907   7.059  14.742  0.00  0.00    +0.000 N 
ATOM     20  H   UNL     1      46.989   7.160  15.150  0.00  0.00    +0.000 HD
BRANCH  17  28
ATOM     21  C   UNL     1      48.951   4.636  18.102  0.00  0.00    +0.000 A 
ATOM     22  N   UNL     1      48.889   3.968  19.273  0.00  0.00    +0.000 NA
ATOM     23  C   UNL     1      48.667   4.669  20.387  0.00  0.00    +0.000 A 
ATOM     24  N   UNL     1      48.491   5.983  20.482  0.00  0.00    +0.000 NA
ATOM     25  C   UNL     1      48.568   6.611  19.296  0.00  0.00    +0.000 A 
ATOM     26  S   UNL     1      48.362   8.294  19.230  0.00  0.00    +0.000 S 
ATOM     27  C   UNL     1      48.582   8.304  17.547  0.00  0.00    +0.000 A 
ATOM     28  C   UNL     1      48.817   7.047  17.000  0.00  0.00    +0.000 A 
ATOM     29  C   UNL     1      48.803   6.032  18.051  0.00  0.00    +0.000 A 
BRANCH  21  31
ATOM     30  C   UNL     1      48.280   2.852  16.756  0.00  0.00    +0.000 C 
ATOM     31  O   UNL     1      49.215   3.910  16.959  0.00  0.00    +0.000 OA
ENDBRANCH  21  31
ENDBRANCH  17  28
ENDBRANCH   1  19
TORSDOF 8
ENDMDL
MODEL 2
REMARK VINA RESULT:    -7.890      1.396      2.409
REMARK INTER + INTRA:         -12.670
REMARK INTER:                 -11.551
REMARK INTRA:                  -1.119
REMARK UNBOUND:                -1.091
REMARK  Name = 
REMARK  9 active torsions:
REMARK  status: ('A' for Active; 'I' for Inactive)
REMARK    1  A    between atoms: C_1  and  O_2
REMARK    2  A    between atoms: O_2  and  C_3
REMARK    3  A    between atoms: C_10  and  C_11
REMARK    4  A    between atoms: N_13  and  C_14
REMARK    5  A    between atoms: C_14  and  C_15
REMARK    6  A    between atoms: C_18  and  C_19
REMARK    7  A    between atoms: C_19  and  O_20
REMARK    8  A    between atoms: O_20  and  C_21
REMARK    9  A    between atoms: C_21  and  C_22
REMARK                            x       y       z     vdW  Elec       q    Type
REMARK                         _______ _______ _______ _____ _____    ______ ____
ROOT
ATOM      1  C   UNL     1      48.066   6.745  13.741  0.00  0.00    +0.000 C 
ENDROOT
BRANCH   1   2
ATOM      2  C   UNL     1      46.877   6.187  13.000  0.00  0.00    +0.000 A 
ATOM      3  C   UNL     1      46.059   5.213  13.588  0.00  0.00    +0.000 A 
ATOM      4  C   UNL     1      44.982   4.667  12.879  0.00  0.00    +0.000 A 
ATOM      5  C   UNL     1      44.704   5.078  11.569  0.00  0.00    +0.000 A 
ATOM      6  C   UNL     1      45.520   6.057  10.986  0.00  0.00    +0.000 A 
ATOM      7  C   UNL     1      46.597   6.602  11.691  0.00  0.00    +0.000 A 
BRANCH   5   8
ATOM      8  C   UNL     1      43.575   4.450  10.788  0.00  0.00    +0.000 C 
BRANCH   8   9
ATOM      9  O   UNL     1      44.061   4.002   9.527  0.00  0.00    +0.000 OA
BRANCH   9  10
ATOM     10  C   UNL     1      44.625   2.688   9.620  0.00  0.00    +0.000 C 
BRANCH  10  11
ATOM     11  C   UNL     1      45.577   2.418   8.476  0.00  0.00    +0.000 A 
ATOM     12  C   UNL     1      45.935   3.432   7.589  0.00  0.00    +0.000 A 
ATOM     13  C   UNL     1      46.824   3.149   6.557  0.00  0.00    +0.000 A 
ATOM     14  C   UNL     1      47.349   1.868   6.443  0.00  0.00    +0.000 A 
ATOM     15  C   UNL     1      46.962   0.921   7.376  0.00  0.00    +0.000 A 
ATOM     16  N   UNL     1      46.099   1.166   8.388  0.00  0.00    +0.000 NA
ENDBRANCH  10  11
ENDBRANCH   9  10
ENDBRANCH   8   9
ENDBRANCH   5   8
ENDBRANCH   1   2
BRANCH   1  19
ATOM     17  C   UNL     1      48.996   6.395  15.989  0.00  0.00    +0.000 C 
ATOM     18  O   UNL     1      50.139   6.362  15.538  0.00  0.00    +0.000 OA
ATOM     19  N   UNL     1      47.916   6.578  15.169  0.00  0.00    +0.000 N 
ATOM     20  H   UNL     1      46.979   6.553  15.544  0.00  0.00    +0.000 HD
BRANCH  17  28
ATOM     21  C   UNL     1      47.843   8.513  18.456  0.00  0.00    +0.000 A 
ATOM     22  N   UNL     1      47.417   9.104  19.591  0.00  0.00    +0.000 NA
ATOM     23  C   UNL     1      47.404   8.380  20.713  0.00  0.00    +0.000 A 
ATOM     24  N   UNL     1      47.774   7.110  20.847  0.00  0.00    +0.000 NA
ATOM     25  C   UNL     1      48.182   6.556  19.693  0.00  0.00    +0.000 A 
ATOM     26  S   UNL     1      48.697   4.939  19.682  0.00  0.00    +0.000 S 
ATOM     27  C   UNL     1      49.017   5.002  18.016  0.00  0.00    +0.000 A 
ATOM     28  C   UNL     1      48.742   6.234  17.433  0.00  0.00    +0.000 A 
ATOM     29  C   UNL     1      48.247   7.167  18.443  0.00  0.00    +0.000 A 
BRANCH  21  31
ATOM     30  C   UNL     1      49.029   9.989  17.093  0.00  0.00    +0.000 C 
ATOM     31  O   UNL     1      47.821   9.257  17.294  0.00  0.00    +0.000 OA
ENDBRANCH  21  31
ENDBRANCH  17  28
ENDBRANCH   1  19
TORSDOF 8
ENDMDL
MODEL 3
REMARK VINA RESULT:    -7.325      1.490      1.820
REMARK INTER + INTRA:         -11.841
REMARK INTER:                 -10.752
REMARK INTRA:                  -1.089
REMARK UNBOUND:                -1.091
REMARK  Name = 
REMARK  9 active torsions:
REMARK  status: ('A' for Active; 'I' for Inactive)
REMARK    1  A    between atoms: C_1  and  O_2
REMARK    2  A    between atoms: O_2  and  C_3
REMARK    3  A    between atoms: C_10  and  C_11
REMARK    4  A    between atoms: N_13  and  C_14
REMARK    5  A    between atoms: C_14  and  C_15
REMARK    6  A    between atoms: C_18  and  C_19
REMARK    7  A    between atoms: C_19  and  O_20
REMARK    8  A    between atoms: O_20  and  C_21
REMARK    9  A    between atoms: C_21  and  C_22
REMARK                            x       y       z     vdW  Elec       q    Type
REMARK                         _______ _______ _______ _____ _____    ______ ____
ROOT
ATOM      1  C   UNL     1      46.196   8.470  12.638  0.00  0.00    +0.000 C 
ENDROOT
BRANCH   1   2
ATOM      2  C   UNL     1      45.645   7.110  12.292  0.00  0.00    +0.000 A 
ATOM      3  C   UNL     1      46.214   6.345  11.266  0.00  0.00    +0.000 A 
ATOM      4  C   UNL     1      45.672   5.101  10.920  0.00  0.00    +0.000 A 
ATOM      5  C   UNL     1      44.547   4.600  11.588  0.00  0.00    +0.000 A 
ATOM      6  C   UNL     1      43.983   5.365  12.619  0.00  0.00    +0.000 A 
ATOM      7  C   UNL     1      44.523   6.607  12.964  0.00  0.00    +0.000 A 
BRANCH   5   8
ATOM      8  C   UNL     1      43.932   3.283  11.180  0.00  0.00    +0.000 C 
BRANCH   8   9
ATOM      9  O   UNL     1      44.876   2.531  10.427  0.00  0.00    +0.000 OA
BRANCH   9  10
ATOM     10  C   UNL     1      44.426   2.319   9.083  0.00  0.00    +0.000 C 
BRANCH  10  11
ATOM     11  C   UNL     1      45.589   2.262   8.117  0.00  0.00    +0.000 A 
ATOM     12  C   UNL     1      45.880   3.342   7.283  0.00  0.00    +0.000 A 
ATOM     13  C   UNL     1      46.966   3.258   6.419  0.00  0.00    +0.000 A 
ATOM     14  C   UNL     1      47.748   2.110   6.417  0.00  0.00    +0.000 A 
ATOM     15  C   UNL     1      47.409   1.090   7.291  0.00  0.00    +0.000 A 
ATOM     16  N   UNL     1      46.358   1.142   8.140  0.00  0.00    +0.000 NA
ENDBRANCH  10  11
ENDBRANCH   9  10
ENDBRANCH   8   9
ENDBRANCH   5   8
ENDBRANCH   1   2
BRANCH   1  19
ATOM     17  C   UNL     1      48.112   8.344  14.172  0.00  0.00    +0.000 C 
ATOM     18  O   UNL     1      48.889   8.204  13.230  0.00  0.00    +0.000 OA
ATOM     19  N   UNL     1      46.766   8.479  13.967  0.00  0.00    +0.000 N 
ATOM     20  H   UNL     1      46.133   8.543  14.750  0.00  0.00    +0.000 HD
BRANCH  17  28
ATOM     21  C   UNL     1      48.800   5.888  16.495  0.00  0.00    +0.000 A 
ATOM     22  N   UNL     1      49.149   5.154  17.572  0.00  0.00    +0.000 NA
ATOM     23  C   UNL     1      49.560   5.797  18.667  0.00  0.00    +0.000 A 
ATOM     24  N   UNL     1      49.666   7.112  18.828  0.00  0.00    +0.000 NA
ATOM     25  C   UNL     1      49.318   7.806  17.731  0.00  0.00    +0.000 A 
ATOM     26  S   UNL     1      49.389   9.501  17.761  0.00  0.00    +0.000 S 
ATOM     27  C   UNL     1      48.843   9.600  16.157  0.00  0.00    +0.000 A 
ATOM     28  C   UNL     1      48.599   8.366  15.564  0.00  0.00    +0.000 A 
ATOM     29  C   UNL     1      48.880   7.291  16.513  0.00  0.00    +0.000 A 
BRANCH  21  31
ATOM     30  C   UNL     1      47.181   4.510  15.533  0.00  0.00    +0.000 C 
ATOM     31  O   UNL     1      48.408   5.216  15.356  0.00  0.00    +0.000 OA
ENDBRANCH  21  31
ENDBRANCH  17  28
ENDBRANCH   1  19
TORSDOF 8
ENDMDL
MODEL 4
REMARK VINA RESULT:    -7.248      1.510      2.138
REMARK INTER + INTRA:         -11.729
REMARK INTER:                 -10.524
REMARK INTRA:                  -1.205
REMARK UNBOUND:                -1.091
REMARK  Name = 
REMARK  9 active torsions:
REMARK  status: ('A' for Active; 'I' for Inactive)
REMARK    1  A    between atoms: C_1  and  O_2
REMARK    2  A    between atoms: O_2  and  C_3
REMARK    3  A    between atoms: C_10  and  C_11
REMARK    4  A    between atoms: N_13  and  C_14
REMARK    5  A    between atoms: C_14  and  C_15
REMARK    6  A    between atoms: C_18  and  C_19
REMARK    7  A    between atoms: C_19  and  O_20
REMARK    8  A    between atoms: O_20  and  C_21
REMARK    9  A    between atoms: C_21  and  C_22
REMARK                            x       y       z     vdW  Elec       q    Type
REMARK                         _______ _______ _______ _____ _____    ______ ____
ROOT
ATOM      1  C   UNL     1      47.686   4.322  15.077  0.00  0.00    +0.000 C 
ENDROOT
BRANCH   1   2
ATOM      2  C   UNL     1      46.723   4.451  13.925  0.00  0.00    +0.000 A 
ATOM      3  C   UNL     1      46.231   5.704  13.537  0.00  0.00    +0.000 A 
ATOM      4  C   UNL     1      45.303   5.813  12.494  0.00  0.00    +0.000 A 
ATOM      5  C   UNL     1      44.844   4.673  11.821  0.00  0.00    +0.000 A 
ATOM      6  C   UNL     1      45.343   3.421  12.206  0.00  0.00    +0.000 A 
ATOM      7  C   UNL     1      46.268   3.310  13.249  0.00  0.00    +0.000 A 
BRANCH   5   8
ATOM      8  C   UNL     1      43.806   4.787  10.732  0.00  0.00    +0.000 C 
BRANCH   8   9
ATOM      9  O   UNL     1      44.042   3.790   9.744  0.00  0.00    +0.000 OA
BRANCH   9  10
ATOM     10  C   UNL     1      44.779   4.315   8.634  0.00  0.00    +0.000 C 
BRANCH  10  11
ATOM     11  C   UNL     1      45.684   3.265   8.029  0.00  0.00    +0.000 A 
ATOM     12  C   UNL     1      46.595   3.596   7.026  0.00  0.00    +0.000 A 
ATOM     13  C   UNL     1      47.420   2.606   6.505  0.00  0.00    +0.000 A 
ATOM     14  C   UNL     1      47.331   1.313   7.005  0.00  0.00    +0.000 A 
ATOM     15  C   UNL     1      46.418   1.067   8.016  0.00  0.00    +0.000 A 
ATOM     16  N   UNL     1      45.601   2.008   8.541  0.00  0.00    +0.000 NA
ENDBRANCH  10  11
ENDBRANCH   9  10
ENDBRANCH   8   9
ENDBRANCH   5   8
ENDBRANCH   1   2
BRANCH   1  19
ATOM     17  C   UNL     1      48.621   6.360  16.086  0.00  0.00    +0.000 C 
ATOM     18  O   UNL     1      49.664   6.226  15.450  0.00  0.00    +0.000 OA
ATOM     19  N   UNL     1      47.595   5.462  15.962  0.00  0.00    +0.000 N 
ATOM     20  H   UNL     1      46.764   5.555  16.526  0.00  0.00    +0.000 HD
BRANCH  17  28
ATOM     21  C   UNL     1      47.780   6.590  19.424  0.00  0.00    +0.000 A 
ATOM     22  N   UNL     1      47.486   6.968  20.685  0.00  0.00    +0.000 NA
ATOM     23  C   UNL     1      47.468   8.274  20.964  0.00  0.00    +0.000 A 
ATOM     24  N   UNL     1      47.711   9.273  20.122  0.00  0.00    +0.000 NA
ATOM     25  C   UNL     1      48.008   8.854  18.880  0.00  0.00    +0.000 A 
ATOM     26  S   UNL     1      48.341  10.000  17.673  0.00  0.00    +0.000 S 
ATOM     27  C   UNL     1      48.591   8.781  16.518  0.00  0.00    +0.000 A 
ATOM     28  C   UNL     1      48.434   7.491  17.013  0.00  0.00    +0.000 A 
ATOM     29  C   UNL     1      48.078   7.538  18.430  0.00  0.00    +0.000 A 
BRANCH  21  31
ATOM     30  C   UNL     1      49.107   4.670  19.437  0.00  0.00    +0.000 C 
ATOM     31  O   UNL     1      47.830   5.239  19.150  0.00  0.00    +0.000 OA
ENDBRANCH  21  31
ENDBRANCH  17  28
ENDBRANCH   1  19
TORSDOF 8
ENDMDL
MODEL 5
REMARK VINA RESULT:    -7.221      1.726      3.171
REMARK INTER + INTRA:         -11.689
REMARK INTER:                 -10.462
REMARK INTRA:                  -1.227
REMARK UNBOUND:                -1.091
REMARK  Name = 
REMARK  9 active torsions:
REMARK  status: ('A' for Active; 'I' for Inactive)
REMARK    1  A    between atoms: C_1  and  O_2
REMARK    2  A    between atoms: O_2  and  C_3
REMARK    3  A    between atoms: C_10  and  C_11
REMARK    4  A    between atoms: N_13  and  C_14
REMARK    5  A    between atoms: C_14  and  C_15
REMARK    6  A    between atoms: C_18  and  C_19
REMARK    7  A    between atoms: C_19  and  O_20
REMARK    8  A    between atoms: O_20  and  C_21
REMARK    9  A    between atoms: C_21  and  C_22
REMARK                            x       y       z     vdW  Elec       q    Type
REMARK                         _______ _______ _______ _____ _____    ______ ____
ROOT
ATOM      1  C   UNL     1      47.471   4.015  14.905  0.00  0.00    +0.000 C 
ENDROOT
BRANCH   1   2
ATOM      2  C   UNL     1      46.536   4.227  13.743  0.00  0.00    +0.000 A 
ATOM      3  C   UNL     1      46.136   5.517  13.369  0.00  0.00    +0.000 A 
ATOM      4  C   UNL     1      45.233   5.705  12.315  0.00  0.00    +0.000 A 
ATOM      5  C   UNL     1      44.707   4.609  11.618  0.00  0.00    +0.000 A 
ATOM      6  C   UNL     1      45.114   3.320  11.990  0.00  0.00    +0.000 A 
ATOM      7  C   UNL     1      46.014   3.131  13.043  0.00  0.00    +0.000 A 
BRANCH   5   8
ATOM      8  C   UNL     1      43.695   4.811  10.517  0.00  0.00    +0.000 C 
BRANCH   8   9
ATOM      9  O   UNL     1      43.960   3.901   9.455  0.00  0.00    +0.000 OA
BRANCH   9  10
ATOM     10  C   UNL     1      44.967   4.407   8.570  0.00  0.00    +0.000 C 
BRANCH  10  11
ATOM     11  C   UNL     1      45.765   3.283   7.947  0.00  0.00    +0.000 A 
ATOM     12  C   UNL     1      46.569   3.511   6.830  0.00  0.00    +0.000 A 
ATOM     13  C   UNL     1      47.300   2.456   6.293  0.00  0.00    +0.000 A 
ATOM     14  C   UNL     1      47.226   1.204   6.891  0.00  0.00    +0.000 A 
ATOM     15  C   UNL     1      46.424   1.062   8.010  0.00  0.00    +0.000 A 
ATOM     16  N   UNL     1      45.700   2.068   8.553  0.00  0.00    +0.000 NA
ENDBRANCH  10  11
ENDBRANCH   9  10
ENDBRANCH   8   9
ENDBRANCH   5   8
ENDBRANCH   1   2
BRANCH   1  19
ATOM     17  C   UNL     1      48.591   5.360  16.632  0.00  0.00    +0.000 C 
ATOM     18  O   UNL     1      49.395   4.456  16.850  0.00  0.00    +0.000 OA
ATOM     19  N   UNL     1      47.608   5.222  15.691  0.00  0.00    +0.000 N 
ATOM     20  H   UNL     1      46.923   5.951  15.556  0.00  0.00    +0.000 HD
BRANCH  17  28
ATOM     21  C   UNL     1      48.717   8.678  15.696  0.00  0.00    +0.000 A 
ATOM     22  N   UNL     1      48.762  10.024  15.619  0.00  0.00    +0.000 NA
ATOM     23  C   UNL     1      48.805  10.719  16.757  0.00  0.00    +0.000 A 
ATOM     24  N   UNL     1      48.812  10.229  17.993  0.00  0.00    +0.000 NA
ATOM     25  C   UNL     1      48.758   8.887  18.026  0.00  0.00    +0.000 A 
ATOM     26  S   UNL     1      48.763   8.090  19.525  0.00  0.00    +0.000 S 
ATOM     27  C   UNL     1      48.685   6.571  18.772  0.00  0.00    +0.000 A 
ATOM     28  C   UNL     1      48.650   6.628  17.382  0.00  0.00    +0.000 A 
ATOM     29  C   UNL     1      48.700   8.019  16.938  0.00  0.00    +0.000 A 
BRANCH  21  31
ATOM     30  C   UNL     1      47.874   8.643  13.520  0.00  0.00    +0.000 C 
ATOM     31  O   UNL     1      48.639   7.966  14.517  0.00  0.00    +0.000 OA
ENDBRANCH  21  31
ENDBRANCH  17  28
ENDBRANCH   1  19
TORSDOF 8
ENDMDL
MODEL 6
REMARK VINA RESULT:    -6.964      1.965      2.643
REMARK INTER + INTRA:         -11.312
REMARK INTER:                 -10.211
REMARK INTRA:                  -1.100
REMARK UNBOUND:                -1.091
REMARK  Name = 
REMARK  9 active torsions:
REMARK  status: ('A' for Active; 'I' for Inactive)
REMARK    1  A    between atoms: C_1  and  O_2
REMARK    2  A    between atoms: O_2  and  C_3
REMARK    3  A    between atoms: C_10  and  C_11
REMARK    4  A    between atoms: N_13  and  C_14
REMARK    5  A    between atoms: C_14  and  C_15
REMARK    6  A    between atoms: C_18  and  C_19
REMARK    7  A    between atoms: C_19  and  O_20
REMARK    8  A    between atoms: O_20  and  C_21
REMARK    9  A    between atoms: C_21  and  C_22
REMARK                            x       y       z     vdW  Elec       q    Type
REMARK                         _______ _______ _______ _____ _____    ______ ____
ROOT
ATOM      1  C   UNL     1      47.312   4.054  15.443  0.00  0.00    +0.000 C 
ENDROOT
BRANCH   1   2
ATOM      2  C   UNL     1      46.745   4.605  14.160  0.00  0.00    +0.000 A 
ATOM      3  C   UNL     1      45.638   4.004  13.547  0.00  0.00    +0.000 A 
ATOM      4  C   UNL     1      45.143   4.494  12.332  0.00  0.00    +0.000 A 
ATOM      5  C   UNL     1      45.747   5.591  11.703  0.00  0.00    +0.000 A 
ATOM      6  C   UNL     1      46.851   6.194  12.321  0.00  0.00    +0.000 A 
ATOM      7  C   UNL     1      47.347   5.705  13.533  0.00  0.00    +0.000 A 
BRANCH   5   8
ATOM      8  C   UNL     1      45.245   6.086  10.368  0.00  0.00    +0.000 C 
BRANCH   8   9
ATOM      9  O   UNL     1      45.901   5.378   9.322  0.00  0.00    +0.000 OA
BRANCH   9  10
ATOM     10  C   UNL     1      45.048   4.379   8.749  0.00  0.00    +0.000 C 
BRANCH  10  11
ATOM     11  C   UNL     1      45.846   3.359   7.967  0.00  0.00    +0.000 A 
ATOM     12  C   UNL     1      45.981   2.050   8.429  0.00  0.00    +0.000 A 
ATOM     13  C   UNL     1      46.710   1.136   7.675  0.00  0.00    +0.000 A 
ATOM     14  C   UNL     1      47.272   1.542   6.472  0.00  0.00    +0.000 A 
ATOM     15  C   UNL     1      47.075   2.852   6.069  0.00  0.00    +0.000 A 
ATOM     16  N   UNL     1      46.374   3.763   6.781  0.00  0.00    +0.000 NA
ENDBRANCH  10  11
ENDBRANCH   9  10
ENDBRANCH   8   9
ENDBRANCH   5   8
ENDBRANCH   1   2
BRANCH   1  19
ATOM     17  C   UNL     1      47.630   5.287  17.546  0.00  0.00    +0.000 C 
ATOM     18  O   UNL     1      46.801   4.579  18.115  0.00  0.00    +0.000 OA
ATOM     19  N   UNL     1      47.938   5.095  16.227  0.00  0.00    +0.000 N 
ATOM     20  H   UNL     1      48.583   5.714  15.757  0.00  0.00    +0.000 HD
BRANCH  17  28
ATOM     21  C   UNL     1      50.929   6.264  17.778  0.00  0.00    +0.000 A 
ATOM     22  N   UNL     1      52.111   6.861  18.036  0.00  0.00    +0.000 NA
ATOM     23  C   UNL     1      52.118   7.925  18.843  0.00  0.00    +0.000 A 
ATOM     24  N   UNL     1      51.068   8.479  19.442  0.00  0.00    +0.000 NA
ATOM     25  C   UNL     1      49.911   7.860  19.152  0.00  0.00    +0.000 A 
ATOM     26  S   UNL     1      48.467   8.433  19.837  0.00  0.00    +0.000 S 
ATOM     27  C   UNL     1      47.562   7.229  19.054  0.00  0.00    +0.000 A 
ATOM     28  C   UNL     1      48.321   6.375  18.262  0.00  0.00    +0.000 A 
ATOM     29  C   UNL     1      49.731   6.753  18.327  0.00  0.00    +0.000 A 
BRANCH  21  31
ATOM     30  C   UNL     1      51.158   3.950  17.589  0.00  0.00    +0.000 C 
ATOM     31  O   UNL     1      50.926   5.187  16.917  0.00  0.00    +0.000 OA
ENDBRANCH  21  31
ENDBRANCH  17  28
ENDBRANCH   1  19
TORSDOF 8
ENDMDL
MODEL 7
REMARK VINA RESULT:    -6.791      4.377      9.420
REMARK INTER + INTRA:         -11.058
REMARK INTER:                  -9.994
REMARK INTRA:                  -1.064
REMARK UNBOUND:                -1.091
REMARK  Name = 
REMARK  9 active torsions:
REMARK  status: ('A' for Active; 'I' for Inactive)
REMARK    1  A    between atoms: C_1  and  O_2
REMARK    2  A    between atoms: O_2  and  C_3
REMARK    3  A    between atoms: C_10  and  C_11
REMARK    4  A    between atoms: N_13  and  C_14
REMARK    5  A    between atoms: C_14  and  C_15
REMARK    6  A    between atoms: C_18  and  C_19
REMARK    7  A    between atoms: C_19  and  O_20
REMARK    8  A    between atoms: O_20  and  C_21
REMARK    9  A    between atoms: C_21  and  C_22
REMARK                            x       y       z     vdW  Elec       q    Type
REMARK                         _______ _______ _______ _____ _____    ______ ____
ROOT
ATOM      1  C   UNL     1      47.238   3.310  16.677  0.00  0.00    +0.000 C 
ENDROOT
BRANCH   1   2
ATOM      2  C   UNL     1      48.679   3.466  17.092  0.00  0.00    +0.000 A 
ATOM      3  C   UNL     1      49.189   4.718  17.459  0.00  0.00    +0.000 A 
ATOM      4  C   UNL     1      50.538   4.865  17.802  0.00  0.00    +0.000 A 
ATOM      5  C   UNL     1      51.406   3.765  17.780  0.00  0.00    +0.000 A 
ATOM      6  C   UNL     1      50.892   2.512  17.419  0.00  0.00    +0.000 A 
ATOM      7  C   UNL     1      49.545   2.365  17.074  0.00  0.00    +0.000 A 
BRANCH   5   8
ATOM      8  C   UNL     1      52.872   3.934  18.100  0.00  0.00    +0.000 C 
BRANCH   8   9
ATOM      9  O   UNL     1      53.255   2.983  19.087  0.00  0.00    +0.000 OA
BRANCH   9  10
ATOM     10  C   UNL     1      54.603   2.537  18.891  0.00  0.00    +0.000 C 
BRANCH  10  11
ATOM     11  C   UNL     1      54.641   1.107  18.398  0.00  0.00    +0.000 A 
ATOM     12  C   UNL     1      54.711   0.822  17.035  0.00  0.00    +0.000 A 
ATOM     13  C   UNL     1      54.760  -0.506  16.621  0.00  0.00    +0.000 A 
ATOM     14  C   UNL     1      54.755  -1.516  17.575  0.00  0.00    +0.000 A 
ATOM     15  C   UNL     1      54.707  -1.152  18.909  0.00  0.00    +0.000 A 
ATOM     16  N   UNL     1      54.657   0.128  19.342  0.00  0.00    +0.000 NA
ENDBRANCH  10  11
ENDBRANCH   9  10
ENDBRANCH   8   9
ENDBRANCH   5   8
ENDBRANCH   1   2
BRANCH   1  19
ATOM     17  C   UNL     1      46.844   4.191  14.415  0.00  0.00    +0.000 C 
ATOM     18  O   UNL     1      47.194   3.125  13.913  0.00  0.00    +0.000 OA
ATOM     19  N   UNL     1      46.840   4.366  15.772  0.00  0.00    +0.000 N 
ATOM     20  H   UNL     1      46.598   5.261  16.171  0.00  0.00    +0.000 HD
BRANCH  17  28
ATOM     21  C   UNL     1      43.957   4.918  12.673  0.00  0.00    +0.000 A 
ATOM     22  N   UNL     1      42.969   5.451  11.926  0.00  0.00    +0.000 NA
ATOM     23  C   UNL     1      43.183   6.635  11.348  0.00  0.00    +0.000 A 
ATOM     24  N   UNL     1      44.289   7.370  11.420  0.00  0.00    +0.000 NA
ATOM     25  C   UNL     1      45.245   6.808  12.179  0.00  0.00    +0.000 A 
ATOM     26  S   UNL     1      46.728   7.608  12.377  0.00  0.00    +0.000 S 
ATOM     27  C   UNL     1      47.322   6.365  13.369  0.00  0.00    +0.000 A 
ATOM     28  C   UNL     1      46.421   5.326  13.575  0.00  0.00    +0.000 A 
ATOM     29  C   UNL     1      45.177   5.592  12.855  0.00  0.00    +0.000 A 
BRANCH  21  31
ATOM     30  C   UNL     1      43.713   2.615  12.381  0.00  0.00    +0.000 C 
ATOM     31  O   UNL     1      43.716   3.710  13.295  0.00  0.00    +0.000 OA
ENDBRANCH  21  31
ENDBRANCH  17  28
ENDBRANCH   1  19
TORSDOF 8
ENDMDL
MODEL 8
REMARK VINA RESULT:    -6.757      2.935      4.173
REMARK INTER + INTRA:         -11.008
REMARK INTER:                  -9.918
REMARK INTRA:                  -1.090
REMARK UNBOUND:                -1.091
REMARK  Name = 
REMARK  9 active torsions:
REMARK  status: ('A' for Active; 'I' for Inactive)
REMARK    1  A    between atoms: C_1  and  O_2
REMARK    2  A    between atoms: O_2  and  C_3
REMARK    3  A    between atoms: C_10  and  C_11
REMARK    4  A    between atoms: N_13  and  C_14
REMARK    5  A    between atoms: C_14  and  C_15
REMARK    6  A    between atoms: C_18  and  C_19
REMARK    7  A    between atoms: C_19  and  O_20
REMARK    8  A    between atoms: O_20  and  C_21
REMARK    9  A    between atoms: C_21  and  C_22
REMARK                            x       y       z     vdW  Elec       q    Type
REMARK                         _______ _______ _______ _____ _____    ______ ____
ROOT
ATOM      1  C   UNL     1      47.130   7.932  12.405  0.00  0.00    +0.000 C 
ENDROOT
BRANCH   1   2
ATOM      2  C   UNL     1      46.326   6.703  12.067  0.00  0.00    +0.000 A 
ATOM      3  C   UNL     1      46.016   6.392  10.736  0.00  0.00    +0.000 A 
ATOM      4  C   UNL     1      45.232   5.273  10.430  0.00  0.00    +0.000 A 
ATOM      5  C   UNL     1      44.737   4.445  11.447  0.00  0.00    +0.000 A 
ATOM      6  C   UNL     1      45.054   4.755  12.776  0.00  0.00    +0.000 A 
ATOM      7  C   UNL     1      45.835   5.873  13.084  0.00  0.00    +0.000 A 
BRANCH   5   8
ATOM      8  C   UNL     1      43.849   3.269  11.119  0.00  0.00    +0.000 C 
BRANCH   8   9
ATOM      9  O   UNL     1      43.861   3.042   9.713  0.00  0.00    +0.000 OA
BRANCH   9  10
ATOM     10  C   UNL     1      44.545   1.827   9.384  0.00  0.00    +0.000 C 
BRANCH  10  11
ATOM     11  C   UNL     1      45.607   2.062   8.333  0.00  0.00    +0.000 A 
ATOM     12  C   UNL     1      45.719   3.296   7.693  0.00  0.00    +0.000 A 
ATOM     13  C   UNL     1      46.717   3.480   6.742  0.00  0.00    +0.000 A 
ATOM     14  C   UNL     1      47.591   2.436   6.463  0.00  0.00    +0.000 A 
ATOM     15  C   UNL     1      47.430   1.249   7.156  0.00  0.00    +0.000 A 
ATOM     16  N   UNL     1      46.468   1.040   8.084  0.00  0.00    +0.000 NA
ENDBRANCH  10  11
ENDBRANCH   9  10
ENDBRANCH   8   9
ENDBRANCH   5   8
ENDBRANCH   1   2
BRANCH   1  19
ATOM     17  C   UNL     1      48.716   8.147  14.271  0.00  0.00    +0.000 C 
ATOM     18  O   UNL     1      47.999   8.983  14.816  0.00  0.00    +0.000 OA
ATOM     19  N   UNL     1      48.361   7.580  13.078  0.00  0.00    +0.000 N 
ATOM     20  H   UNL     1      48.981   6.931  12.615  0.00  0.00    +0.000 HD
BRANCH  17  28
ATOM     21  C   UNL     1      52.023   8.474  13.345  0.00  0.00    +0.000 A 
ATOM     22  N   UNL     1      53.367   8.465  13.237  0.00  0.00    +0.000 NA
ATOM     23  C   UNL     1      54.074   7.870  14.201  0.00  0.00    +0.000 A 
ATOM     24  N   UNL     1      53.595   7.265  15.284  0.00  0.00    +0.000 NA
ATOM     25  C   UNL     1      52.254   7.304  15.358  0.00  0.00    +0.000 A 
ATOM     26  S   UNL     1      51.471   6.574  16.675  0.00  0.00    +0.000 S 
ATOM     27  C   UNL     1      49.946   7.017  16.077  0.00  0.00    +0.000 A 
ATOM     28  C   UNL     1      49.991   7.723  14.880  0.00  0.00    +0.000 A 
ATOM     29  C   UNL     1      51.377   7.889  14.448  0.00  0.00    +0.000 A 
BRANCH  21  31
ATOM     30  C   UNL     1      51.999   9.176  11.120  0.00  0.00    +0.000 C 
ATOM     31  O   UNL     1      51.301   9.120  12.363  0.00  0.00    +0.000 OA
ENDBRANCH  21  31
ENDBRANCH  17  28
ENDBRANCH   1  19
TORSDOF 8
ENDMDL
MODEL 9
REMARK VINA RESULT:    -6.723      2.951      4.120
REMARK INTER + INTRA:         -10.959
REMARK INTER:                  -9.721
REMARK INTRA:                  -1.238
REMARK UNBOUND:                -1.091
REMARK  Name = 
REMARK  9 active torsions:
REMARK  status: ('A' for Active; 'I' for Inactive)
REMARK    1  A    between atoms: C_1  and  O_2
REMARK    2  A    between atoms: O_2  and  C_3
REMARK    3  A    between atoms: C_10  and  C_11
REMARK    4  A    between atoms: N_13  and  C_14
REMARK    5  A    between atoms: C_14  and  C_15
REMARK    6  A    between atoms: C_18  and  C_19
REMARK    7  A    between atoms: C_19  and  O_20
REMARK    8  A    between atoms: O_20  and  C_21
REMARK    9  A    between atoms: C_21  and  C_22
REMARK                            x       y       z     vdW  Elec       q    Type
REMARK                         _______ _______ _______ _____ _____    ______ ____
ROOT
ATOM      1  C   UNL     1      46.079   8.327  13.110  0.00  0.00    +0.000 C 
ENDROOT
BRANCH   1   2
ATOM      2  C   UNL     1      45.460   7.110  12.472  0.00  0.00    +0.000 A 
ATOM      3  C   UNL     1      44.559   6.307  13.183  0.00  0.00    +0.000 A 
ATOM      4  C   UNL     1      44.020   5.153  12.601  0.00  0.00    +0.000 A 
ATOM      5  C   UNL     1      44.375   4.776  11.299  0.00  0.00    +0.000 A 
ATOM      6  C   UNL     1      45.271   5.585  10.586  0.00  0.00    +0.000 A 
ATOM      7  C   UNL     1      45.811   6.736  11.167  0.00  0.00    +0.000 A 
BRANCH   5   8
ATOM      8  C   UNL     1      43.833   3.504  10.691  0.00  0.00    +0.000 C 
BRANCH   8   9
ATOM      9  O   UNL     1      44.910   2.618  10.405  0.00  0.00    +0.000 OA
BRANCH   9  10
ATOM     10  C   UNL     1      44.664   1.860   9.215  0.00  0.00    +0.000 C 
BRANCH  10  11
ATOM     11  C   UNL     1      45.760   2.071   8.193  0.00  0.00    +0.000 A 
ATOM     12  C   UNL     1      45.927   3.307   7.569  0.00  0.00    +0.000 A 
ATOM     13  C   UNL     1      46.955   3.467   6.646  0.00  0.00    +0.000 A 
ATOM     14  C   UNL     1      47.801   2.399   6.378  0.00  0.00    +0.000 A 
ATOM     15  C   UNL     1      47.585   1.211   7.055  0.00  0.00    +0.000 A 
ATOM     16  N   UNL     1      46.594   1.024   7.956  0.00  0.00    +0.000 NA
ENDBRANCH  10  11
ENDBRANCH   9  10
ENDBRANCH   8   9
ENDBRANCH   5   8
ENDBRANCH   1   2
BRANCH   1  19
ATOM     17  C   UNL     1      48.291   9.171  12.447  0.00  0.00    +0.000 C 
ATOM     18  O   UNL     1      47.778  10.109  11.840  0.00  0.00    +0.000 OA
ATOM     19  N   UNL     1      47.522   8.245  13.098  0.00  0.00    +0.000 N 
ATOM     20  H   UNL     1      47.952   7.451  13.551  0.00  0.00    +0.000 HD
BRANCH  17  28
ATOM     21  C   UNL     1      50.490   8.087  14.874  0.00  0.00    +0.000 A 
ATOM     22  N   UNL     1      51.551   7.706  15.614  0.00  0.00    +0.000 NA
ATOM     23  C   UNL     1      52.764   7.778  15.061  0.00  0.00    +0.000 A 
ATOM     24  N   UNL     1      53.059   8.195  13.834  0.00  0.00    +0.000 NA
ATOM     25  C   UNL     1      51.974   8.557  13.128  0.00  0.00    +0.000 A 
ATOM     26  S   UNL     1      52.166   9.122  11.538  0.00  0.00    +0.000 S 
ATOM     27  C   UNL     1      50.493   9.348  11.365  0.00  0.00    +0.000 A 
ATOM     28  C   UNL     1      49.755   9.002  12.492  0.00  0.00    +0.000 A 
ATOM     29  C   UNL     1      50.647   8.534  13.550  0.00  0.00    +0.000 A 
BRANCH  21  31
ATOM     30  C   UNL     1      48.963   6.661  15.914  0.00  0.00    +0.000 C 
ATOM     31  O   UNL     1      49.236   7.979  15.439  0.00  0.00    +0.000 OA
ENDBRANCH  21  31
ENDBRANCH  17  28
ENDBRANCH   1  19
TORSDOF 8
ENDMDL
