MODEL 1
REMARK VINA RESULT:    -8.429      0.000      0.000
REMARK INTER + INTRA:         -11.640
REMARK INTER:                 -10.892
REMARK INTRA:                  -0.747
REMARK UNBOUND:                -0.747
REMARK  Name = 
REMARK  5 active torsions:
REMARK  status: ('A' for Active; 'I' for Inactive)
REMARK    1  A    between atoms: C_2  and  C_4
REMARK    2  A    between atoms: C_7  and  O_8
REMARK    3  A    between atoms: O_8  and  C_9
REMARK    4  A    between atoms: C_9  and  C_10
REMARK    5  A    between atoms: C_14  and  C_15
REMARK                            x       y       z     vdW  Elec       q    Type
REMARK                         _______ _______ _______ _____ _____    ______ ____
ROOT
ATOM      1  C   UNL     1      43.794   5.174  10.641  0.00  0.00    +0.000 C 
ENDROOT
BRANCH   1   2
ATOM      2  C   UNL     1      44.819   5.149  11.741  0.00  0.00    +0.000 A 
ATOM      3  C   UNL     1      44.730   4.206  12.757  0.00  0.00    +0.000 A 
ATOM      4  N   UNL     1      45.631   4.085  13.753  0.00  0.00    +0.000 NA
ATOM      5  C   UNL     1      46.679   4.944  13.730  0.00  0.00    +0.000 A 
ATOM      6  C   UNL     1      46.904   5.919  12.756  0.00  0.00    +0.000 A 
ATOM      7  C   UNL     1      45.936   5.994  11.744  0.00  0.00    +0.000 A 
BRANCH   6   8
ATOM      8  C   UNL     1      48.083   6.811  12.778  0.00  0.00    +0.000 A 
ATOM      9  C   UNL     1      48.844   6.995  13.941  0.00  0.00    +0.000 A 
ATOM     10  C   UNL     1      49.947   7.835  13.910  0.00  0.00    +0.000 A 
ATOM     11  N   UNL     1      50.355   8.499  12.811  0.00  0.00    +0.000 NA
ATOM     12  C   UNL     1      49.621   8.319  11.696  0.00  0.00    +0.000 A 
ATOM     13  C   UNL     1      48.499   7.506  11.633  0.00  0.00    +0.000 A 
ENDBRANCH   6   8
ENDBRANCH   1   2
BRANCH   1  14
ATOM     14  O   UNL     1      43.554   3.852  10.138  0.00  0.00    +0.000 OA
BRANCH  14  18
ATOM     15  C   UNL     1      46.473   2.628   7.507  0.00  0.00    +0.000 A 
ATOM     16  C   UNL     1      45.926   1.706   8.402  0.00  0.00    +0.000 A 
ATOM     17  C   UNL     1      44.938   2.127   9.297  0.00  0.00    +0.000 A 
ATOM     18  C   UNL     1      44.537   3.458   9.253  0.00  0.00    +0.000 A 
ATOM     19  N   UNL     1      45.056   4.369   8.403  0.00  0.00    +0.000 NA
ATOM     20  C   UNL     1      46.019   3.938   7.557  0.00  0.00    +0.000 A 
BRANCH  15  22
ATOM     21  N   UNL     1      47.572   3.050   5.385  0.00  0.00    +0.000 N 
ATOM     22  C   UNL     1      47.516   2.290   6.519  0.00  0.00    +0.000 C 
ATOM     23  O   UNL     1      48.328   1.400   6.730  0.00  0.00    +0.000 OA
ATOM     24  H   UNL     1      48.368   2.886   4.779  0.00  0.00    +0.000 HD
ATOM     25  H   UNL     1      47.103   3.940   5.306  0.00  0.00    +0.000 HD
ENDBRANCH  15  22
ENDBRANCH  14  18
ENDBRANCH   1  14
TORSDOF 5
ENDMDL
MODEL 2
REMARK VINA RESULT:    -8.428      1.257      1.449
REMARK INTER + INTRA:         -11.639
REMARK INTER:                 -11.020
REMARK INTRA:                  -0.619
REMARK UNBOUND:                -0.747
REMARK  Name = 
REMARK  5 active torsions:
REMARK  status: ('A' for Active; 'I' for Inactive)
REMARK    1  A    between atoms: C_2  and  C_4
REMARK    2  A    between atoms: C_7  and  O_8
REMARK    3  A    between atoms: O_8  and  C_9
REMARK    4  A    between atoms: C_9  and  C_10
REMARK    5  A    between atoms: C_14  and  C_15
REMARK                            x       y       z     vdW  Elec       q    Type
REMARK                         _______ _______ _______ _____ _____    ______ ____
ROOT
ATOM      1  C   UNL     1      43.477   4.352  11.139  0.00  0.00    +0.000 C 
ENDROOT
BRANCH   1   2
ATOM      2  C   UNL     1      44.685   4.773  11.931  0.00  0.00    +0.000 A 
ATOM      3  C   UNL     1      45.246   3.909  12.861  0.00  0.00    +0.000 A 
ATOM      4  N   UNL     1      46.355   4.189  13.577  0.00  0.00    +0.000 NA
ATOM      5  C   UNL     1      46.938   5.390  13.346  0.00  0.00    +0.000 A 
ATOM      6  C   UNL     1      46.494   6.340  12.422  0.00  0.00    +0.000 A 
ATOM      7  C   UNL     1      45.341   5.990  11.705  0.00  0.00    +0.000 A 
BRANCH   6   8
ATOM      8  C   UNL     1      47.192   7.624  12.204  0.00  0.00    +0.000 A 
ATOM      9  C   UNL     1      46.541   8.854  12.375  0.00  0.00    +0.000 A 
ATOM     10  C   UNL     1      47.242  10.033  12.167  0.00  0.00    +0.000 A 
ATOM     11  N   UNL     1      48.539  10.083  11.807  0.00  0.00    +0.000 NA
ATOM     12  C   UNL     1      49.161   8.899  11.644  0.00  0.00    +0.000 A 
ATOM     13  C   UNL     1      48.542   7.670  11.822  0.00  0.00    +0.000 A 
ENDBRANCH   6   8
ENDBRANCH   1   2
BRANCH   1  14
ATOM     14  O   UNL     1      43.617   4.722   9.761  0.00  0.00    +0.000 OA
BRANCH  14  18
ATOM     15  C   UNL     1      46.284   2.262   7.817  0.00  0.00    +0.000 A 
ATOM     16  C   UNL     1      45.399   1.714   8.748  0.00  0.00    +0.000 A 
ATOM     17  C   UNL     1      44.497   2.554   9.408  0.00  0.00    +0.000 A 
ATOM     18  C   UNL     1      44.520   3.910   9.105  0.00  0.00    +0.000 A 
ATOM     19  N   UNL     1      45.372   4.464   8.216  0.00  0.00    +0.000 NA
ATOM     20  C   UNL     1      46.242   3.631   7.601  0.00  0.00    +0.000 A 
BRANCH  15  22
ATOM     21  N   UNL     1      48.385   2.119   6.613  0.00  0.00    +0.000 N 
ATOM     22  C   UNL     1      47.272   1.468   7.061  0.00  0.00    +0.000 C 
ATOM     23  O   UNL     1      47.125   0.266   6.888  0.00  0.00    +0.000 OA
ATOM     24  H   UNL     1      49.109   1.536   6.207  0.00  0.00    +0.000 HD
ATOM     25  H   UNL     1      48.661   3.024   6.963  0.00  0.00    +0.000 HD
ENDBRANCH  15  22
ENDBRANCH  14  18
ENDBRANCH   1  14
TORSDOF 5
ENDMDL
MODEL 3
REMARK VINA RESULT:    -7.974      1.292      1.732
REMARK INTER + INTRA:         -11.052
REMARK INTER:                 -10.460
REMARK INTRA:                  -0.592
REMARK UNBOUND:                -0.747
REMARK  Name = 
REMARK  5 active torsions:
REMARK  status: ('A' for Active; 'I' for Inactive)
REMARK    1  A    between atoms: C_2  and  C_4
REMARK    2  A    between atoms: C_7  and  O_8
REMARK    3  A    between atoms: O_8  and  C_9
REMARK    4  A    between atoms: C_9  and  C_10
REMARK    5  A    between atoms: C_14  and  C_15
REMARK                            x       y       z     vdW  Elec       q    Type
REMARK                         _______ _______ _______ _____ _____    ______ ____
ROOT
ATOM      1  C   UNL     1      44.171   3.550  11.559  0.00  0.00    +0.000 C 
ENDROOT
BRANCH   1   2
ATOM      2  C   UNL     1      44.614   4.986  11.638  0.00  0.00    +0.000 A 
ATOM      3  C   UNL     1      43.709   6.011  11.397  0.00  0.00    +0.000 A 
ATOM      4  N   UNL     1      44.011   7.322  11.493  0.00  0.00    +0.000 NA
ATOM      5  C   UNL     1      45.281   7.625  11.856  0.00  0.00    +0.000 A 
ATOM      6  C   UNL     1      46.281   6.696  12.152  0.00  0.00    +0.000 A 
ATOM      7  C   UNL     1      45.905   5.350  12.040  0.00  0.00    +0.000 A 
BRANCH   6   8
ATOM      8  C   UNL     1      47.643   7.097  12.565  0.00  0.00    +0.000 A 
ATOM      9  C   UNL     1      48.101   6.904  13.876  0.00  0.00    +0.000 A 
ATOM     10  C   UNL     1      49.390   7.288  14.213  0.00  0.00    +0.000 A 
ATOM     11  N   UNL     1      50.260   7.844  13.347  0.00  0.00    +0.000 NA
ATOM     12  C   UNL     1      49.816   8.027  12.088  0.00  0.00    +0.000 A 
ATOM     13  C   UNL     1      48.542   7.682  11.660  0.00  0.00    +0.000 A 
ENDBRANCH   6   8
ENDBRANCH   1   2
BRANCH   1  14
ATOM     14  O   UNL     1      43.596   3.265  10.277  0.00  0.00    +0.000 OA
BRANCH  14  18
ATOM     15  C   UNL     1      46.499   2.625   7.429  0.00  0.00    +0.000 A 
ATOM     16  C   UNL     1      45.934   3.896   7.560  0.00  0.00    +0.000 A 
ATOM     17  C   UNL     1      44.946   4.108   8.526  0.00  0.00    +0.000 A 
ATOM     18  C   UNL     1      44.567   3.034   9.323  0.00  0.00    +0.000 A 
ATOM     19  N   UNL     1      45.092   1.795   9.210  0.00  0.00    +0.000 NA
ATOM     20  C   UNL     1      46.036   1.615   8.259  0.00  0.00    +0.000 A 
BRANCH  15  22
ATOM     21  N   UNL     1      47.489   2.914   5.233  0.00  0.00    +0.000 N 
ATOM     22  C   UNL     1      47.550   2.293   6.448  0.00  0.00    +0.000 C 
ATOM     23  O   UNL     1      48.466   1.532   6.729  0.00  0.00    +0.000 OA
ATOM     24  H   UNL     1      48.284   2.771   4.621  0.00  0.00    +0.000 HD
ATOM     25  H   UNL     1      46.918   3.730   5.070  0.00  0.00    +0.000 HD
ENDBRANCH  15  22
ENDBRANCH  14  18
ENDBRANCH   1  14
TORSDOF 5
ENDMDL
MODEL 4
REMARK VINA RESULT:    -7.795      1.512      1.994
REMARK INTER + INTRA:         -10.821
REMARK INTER:                 -10.106
REMARK INTRA:                  -0.716
REMARK UNBOUND:                -0.747
REMARK  Name = 
REMARK  5 active torsions:
REMARK  status: ('A' for Active; 'I' for Inactive)
REMARK    1  A    between atoms: C_2  and  C_4
REMARK    2  A    between atoms: C_7  and  O_8
REMARK    3  A    between atoms: O_8  and  C_9
REMARK    4  A    between atoms: C_9  and  C_10
REMARK    5  A    between atoms: C_14  and  C_15
REMARK                            x       y       z     vdW  Elec       q    Type
REMARK                         _______ _______ _______ _____ _____    ______ ____
ROOT
ATOM      1  C   UNL     1      44.143   4.845  11.253  0.00  0.00    +0.000 C 
ENDROOT
BRANCH   1   2
ATOM      2  C   UNL     1      44.804   6.183  11.446  0.00  0.00    +0.000 A 
ATOM      3  C   UNL     1      44.067   7.352  11.311  0.00  0.00    +0.000 A 
ATOM      4  N   UNL     1      44.569   8.587  11.513  0.00  0.00    +0.000 NA
ATOM      5  C   UNL     1      45.872   8.659  11.878  0.00  0.00    +0.000 A 
ATOM      6  C   UNL     1      46.718   7.565  12.074  0.00  0.00    +0.000 A 
ATOM      7  C   UNL     1      46.138   6.307  11.854  0.00  0.00    +0.000 A 
BRANCH   6   8
ATOM      8  C   UNL     1      48.127   7.714  12.495  0.00  0.00    +0.000 A 
ATOM      9  C   UNL     1      49.117   8.159  11.607  0.00  0.00    +0.000 A 
ATOM     10  C   UNL     1      50.424   8.292  12.052  0.00  0.00    +0.000 A 
ATOM     11  N   UNL     1      50.821   8.021  13.311  0.00  0.00    +0.000 NA
ATOM     12  C   UNL     1      49.867   7.593  14.160  0.00  0.00    +0.000 A 
ATOM     13  C   UNL     1      48.537   7.423  13.805  0.00  0.00    +0.000 A 
ENDBRANCH   6   8
ENDBRANCH   1   2
BRANCH   1  14
ATOM     14  O   UNL     1      43.727   4.675   9.891  0.00  0.00    +0.000 OA
BRANCH  14  18
ATOM     15  C   UNL     1      46.465   2.492   7.726  0.00  0.00    +0.000 A 
ATOM     16  C   UNL     1      45.636   1.839   8.642  0.00  0.00    +0.000 A 
ATOM     17  C   UNL     1      44.711   2.585   9.377  0.00  0.00    +0.000 A 
ATOM     18  C   UNL     1      44.654   3.957   9.161  0.00  0.00    +0.000 A 
ATOM     19  N   UNL     1      45.450   4.611   8.289  0.00  0.00    +0.000 NA
ATOM     20  C   UNL     1      46.344   3.868   7.600  0.00  0.00    +0.000 A 
BRANCH  15  22
ATOM     21  N   UNL     1      48.495   2.558   6.400  0.00  0.00    +0.000 N 
ATOM     22  C   UNL     1      47.472   1.802   6.896  0.00  0.00    +0.000 C 
ATOM     23  O   UNL     1      47.419   0.595   6.703  0.00  0.00    +0.000 OA
ATOM     24  H   UNL     1      49.241   2.048   5.940  0.00  0.00    +0.000 HD
ATOM     25  H   UNL     1      48.712   3.477   6.755  0.00  0.00    +0.000 HD
ENDBRANCH  15  22
ENDBRANCH  14  18
ENDBRANCH   1  14
TORSDOF 5
ENDMDL
MODEL 5
REMARK VINA RESULT:    -7.584      2.439      6.739
REMARK INTER + INTRA:         -10.548
REMARK INTER:                  -9.898
REMARK INTRA:                  -0.650
REMARK UNBOUND:                -0.747
REMARK  Name = 
REMARK  5 active torsions:
REMARK  status: ('A' for Active; 'I' for Inactive)
REMARK    1  A    between atoms: C_2  and  C_4
REMARK    2  A    between atoms: C_7  and  O_8
REMARK    3  A    between atoms: O_8  and  C_9
REMARK    4  A    between atoms: C_9  and  C_10
REMARK    5  A    between atoms: C_14  and  C_15
REMARK                            x       y       z     vdW  Elec       q    Type
REMARK                         _______ _______ _______ _____ _____    ______ ____
ROOT
ATOM      1  C   UNL     1      43.738   6.256  11.073  0.00  0.00    +0.000 C 
ENDROOT
BRANCH   1   2
ATOM      2  C   UNL     1      43.942   4.807  10.725  0.00  0.00    +0.000 A 
ATOM      3  C   UNL     1      43.218   3.821  11.382  0.00  0.00    +0.000 A 
ATOM      4  N   UNL     1      43.306   2.506  11.099  0.00  0.00    +0.000 NA
ATOM      5  C   UNL     1      44.155   2.156  10.102  0.00  0.00    +0.000 A 
ATOM      6  C   UNL     1      44.921   3.045   9.343  0.00  0.00    +0.000 A 
ATOM      7  C   UNL     1      44.783   4.399   9.682  0.00  0.00    +0.000 A 
BRANCH   6   8
ATOM      8  C   UNL     1      45.811   2.598   8.252  0.00  0.00    +0.000 A 
ATOM      9  C   UNL     1      46.228   3.471   7.238  0.00  0.00    +0.000 A 
ATOM     10  C   UNL     1      47.072   3.007   6.240  0.00  0.00    +0.000 A 
ATOM     11  N   UNL     1      47.537   1.744   6.176  0.00  0.00    +0.000 NA
ATOM     12  C   UNL     1      47.134   0.908   7.152  0.00  0.00    +0.000 A 
ATOM     13  C   UNL     1      46.287   1.279   8.186  0.00  0.00    +0.000 A 
ENDBRANCH   6   8
ENDBRANCH   1   2
BRANCH   1  14
ATOM     14  O   UNL     1      43.903   6.469  12.482  0.00  0.00    +0.000 OA
BRANCH  14  18
ATOM     15  C   UNL     1      47.863   6.945  13.500  0.00  0.00    +0.000 A 
ATOM     16  C   UNL     1      47.143   8.039  13.014  0.00  0.00    +0.000 A 
ATOM     17  C   UNL     1      45.799   7.872  12.666  0.00  0.00    +0.000 A 
ATOM     18  C   UNL     1      45.233   6.612  12.823  0.00  0.00    +0.000 A 
ATOM     19  N   UNL     1      45.910   5.538  13.281  0.00  0.00    +0.000 NA
ATOM     20  C   UNL     1      47.211   5.725  13.599  0.00  0.00    +0.000 A 
BRANCH  15  22
ATOM     21  N   UNL     1      50.172   7.468  12.971  0.00  0.00    +0.000 N 
ATOM     22  C   UNL     1      49.282   7.011  13.900  0.00  0.00    +0.000 C 
ATOM     23  O   UNL     1      49.638   6.717  15.033  0.00  0.00    +0.000 OA
ATOM     24  H   UNL     1      51.118   7.625  13.302  0.00  0.00    +0.000 HD
ATOM     25  H   UNL     1      49.883   7.963  12.141  0.00  0.00    +0.000 HD
ENDBRANCH  15  22
ENDBRANCH  14  18
ENDBRANCH   1  14
TORSDOF 5
ENDMDL
MODEL 6
REMARK VINA RESULT:    -6.854      3.537      7.931
REMARK INTER + INTRA:          -9.604
REMARK INTER:                  -9.110
REMARK INTRA:                  -0.495
REMARK UNBOUND:                -0.747
REMARK  Name = 
REMARK  5 active torsions:
REMARK  status: ('A' for Active; 'I' for Inactive)
REMARK    1  A    between atoms: C_2  and  C_4
REMARK    2  A    between atoms: C_7  and  O_8
REMARK    3  A    between atoms: O_8  and  C_9
REMARK    4  A    between atoms: C_9  and  C_10
REMARK    5  A    between atoms: C_14  and  C_15
REMARK                            x       y       z     vdW  Elec       q    Type
REMARK                         _______ _______ _______ _____ _____    ______ ____
ROOT
ATOM      1  C   UNL     1      45.280   4.610  13.621  0.00  0.00    +0.000 C 
ENDROOT
BRANCH   1   2
ATOM      2  C   UNL     1      44.746   4.550  12.215  0.00  0.00    +0.000 A 
ATOM      3  C   UNL     1      43.589   5.239  11.878  0.00  0.00    +0.000 A 
ATOM      4  N   UNL     1      43.070   5.277  10.634  0.00  0.00    +0.000 NA
ATOM      5  C   UNL     1      43.745   4.598   9.675  0.00  0.00    +0.000 A 
ATOM      6  C   UNL     1      44.931   3.887   9.872  0.00  0.00    +0.000 A 
ATOM      7  C   UNL     1      45.424   3.888  11.184  0.00  0.00    +0.000 A 
BRANCH   6   8
ATOM      8  C   UNL     1      45.630   3.185   8.774  0.00  0.00    +0.000 A 
ATOM      9  C   UNL     1      46.197   3.883   7.698  0.00  0.00    +0.000 A 
ATOM     10  C   UNL     1      46.850   3.180   6.696  0.00  0.00    +0.000 A 
ATOM     11  N   UNL     1      46.988   1.840   6.686  0.00  0.00    +0.000 NA
ATOM     12  C   UNL     1      46.443   1.174   7.722  0.00  0.00    +0.000 A 
ATOM     13  C   UNL     1      45.765   1.788   8.764  0.00  0.00    +0.000 A 
ENDBRANCH   6   8
ENDBRANCH   1   2
BRANCH   1  14
ATOM     14  O   UNL     1      46.680   4.920  13.621  0.00  0.00    +0.000 OA
BRANCH  14  18
ATOM     15  C   UNL     1      48.374   4.391  17.335  0.00  0.00    +0.000 A 
ATOM     16  C   UNL     1      48.644   5.559  16.618  0.00  0.00    +0.000 A 
ATOM     17  C   UNL     1      48.069   5.733  15.355  0.00  0.00    +0.000 A 
ATOM     18  C   UNL     1      47.245   4.726  14.865  0.00  0.00    +0.000 A 
ATOM     19  N   UNL     1      46.977   3.586  15.535  0.00  0.00    +0.000 NA
ATOM     20  C   UNL     1      47.555   3.438  16.749  0.00  0.00    +0.000 A 
BRANCH  15  22
ATOM     21  N   UNL     1      48.315   3.127  19.405  0.00  0.00    +0.000 N 
ATOM     22  C   UNL     1      48.923   4.108  18.675  0.00  0.00    +0.000 C 
ATOM     23  O   UNL     1      49.912   4.693  19.095  0.00  0.00    +0.000 OA
ATOM     24  H   UNL     1      48.779   2.861  20.266  0.00  0.00    +0.000 HD
ATOM     25  H   UNL     1      47.684   2.457  18.991  0.00  0.00    +0.000 HD
ENDBRANCH  15  22
ENDBRANCH  14  18
ENDBRANCH   1  14
TORSDOF 5
ENDMDL
MODEL 7
REMARK VINA RESULT:    -6.831      2.780      7.401
REMARK INTER + INTRA:          -9.575
REMARK INTER:                  -9.187
REMARK INTRA:                  -0.388
REMARK UNBOUND:                -0.747
REMARK  Name = 
REMARK  5 active torsions:
REMARK  status: ('A' for Active; 'I' for Inactive)
REMARK    1  A    between atoms: C_2  and  C_4
REMARK    2  A    between atoms: C_7  and  O_8
REMARK    3  A    between atoms: O_8  and  C_9
REMARK    4  A    between atoms: C_9  and  C_10
REMARK    5  A    between atoms: C_14  and  C_15
REMARK                            x       y       z     vdW  Elec       q    Type
REMARK                         _______ _______ _______ _____ _____    ______ ____
ROOT
ATOM      1  C   UNL     1      45.190   6.119  11.789  0.00  0.00    +0.000 C 
ENDROOT
BRANCH   1   2
ATOM      2  C   UNL     1      44.846   4.822  11.109  0.00  0.00    +0.000 A 
ATOM      3  C   UNL     1      43.737   4.093  11.516  0.00  0.00    +0.000 A 
ATOM      4  N   UNL     1      43.332   2.947  10.931  0.00  0.00    +0.000 NA
ATOM      5  C   UNL     1      44.068   2.510   9.880  0.00  0.00    +0.000 A 
ATOM      6  C   UNL     1      45.188   3.158   9.353  0.00  0.00    +0.000 A 
ATOM      7  C   UNL     1      45.556   4.347  10.000  0.00  0.00    +0.000 A 
BRANCH   6   8
ATOM      8  C   UNL     1      45.933   2.638   8.187  0.00  0.00    +0.000 A 
ATOM      9  C   UNL     1      46.296   3.466   7.116  0.00  0.00    +0.000 A 
ATOM     10  C   UNL     1      47.003   2.933   6.049  0.00  0.00    +0.000 A 
ATOM     11  N   UNL     1      47.381   1.642   5.968  0.00  0.00    +0.000 NA
ATOM     12  C   UNL     1      47.031   0.850   6.999  0.00  0.00    +0.000 A 
ATOM     13  C   UNL     1      46.318   1.291   8.104  0.00  0.00    +0.000 A 
ENDBRANCH   6   8
ENDBRANCH   1   2
BRANCH   1  14
ATOM     14  O   UNL     1      46.608   6.242  11.964  0.00  0.00    +0.000 OA
BRANCH  14  18
ATOM     15  C   UNL     1      47.795   5.149  15.751  0.00  0.00    +0.000 A 
ATOM     16  C   UNL     1      48.370   6.271  15.149  0.00  0.00    +0.000 A 
ATOM     17  C   UNL     1      47.966   6.636  13.861  0.00  0.00    +0.000 A 
ATOM     18  C   UNL     1      46.999   5.861  13.231  0.00  0.00    +0.000 A 
ATOM     19  N   UNL     1      46.436   4.768  13.789  0.00  0.00    +0.000 NA
ATOM     20  C   UNL     1      46.853   4.430  15.030  0.00  0.00    +0.000 A 
BRANCH  15  22
ATOM     21  N   UNL     1      47.322   3.747  17.673  0.00  0.00    +0.000 N 
ATOM     22  C   UNL     1      48.143   4.678  17.105  0.00  0.00    +0.000 C 
ATOM     23  O   UNL     1      49.153   5.068  17.675  0.00  0.00    +0.000 OA
ATOM     24  H   UNL     1      47.643   3.344  18.546  0.00  0.00    +0.000 HD
ATOM     25  H   UNL     1      46.651   3.217  17.137  0.00  0.00    +0.000 HD
ENDBRANCH  15  22
ENDBRANCH  14  18
ENDBRANCH   1  14
TORSDOF 5
ENDMDL
MODEL 8
REMARK VINA RESULT:    -6.669      4.747      8.069
REMARK INTER + INTRA:          -9.366
REMARK INTER:                  -8.680
REMARK INTRA:                  -0.685
REMARK UNBOUND:                -0.747
REMARK  Name = 
REMARK  5 active torsions:
REMARK  status: ('A' for Active; 'I' for Inactive)
REMARK    1  A    between atoms: C_2  and  C_4
REMARK    2  A    between atoms: C_7  and  O_8
REMARK    3  A    between atoms: O_8  and  C_9
REMARK    4  A    between atoms: C_9  and  C_10
REMARK    5  A    between atoms: C_14  and  C_15
REMARK                            x       y       z     vdW  Elec       q    Type
REMARK                         _______ _______ _______ _____ _____    ______ ____
ROOT
ATOM      1  C   UNL     1      48.620   6.322  15.619  0.00  0.00    +0.000 C 
ENDROOT
BRANCH   1   2
ATOM      2  C   UNL     1      47.991   6.459  14.259  0.00  0.00    +0.000 A 
ATOM      3  C   UNL     1      48.466   7.407  13.362  0.00  0.00    +0.000 A 
ATOM      4  N   UNL     1      47.991   7.563  12.109  0.00  0.00    +0.000 NA
ATOM      5  C   UNL     1      46.997   6.724  11.729  0.00  0.00    +0.000 A 
ATOM      6  C   UNL     1      46.447   5.712  12.519  0.00  0.00    +0.000 A 
ATOM      7  C   UNL     1      46.985   5.596  13.809  0.00  0.00    +0.000 A 
BRANCH   6   8
ATOM      8  C   UNL     1      45.377   4.815  12.033  0.00  0.00    +0.000 A 
ATOM      9  C   UNL     1      44.578   4.076  12.917  0.00  0.00    +0.000 A 
ATOM     10  C   UNL     1      43.581   3.255  12.413  0.00  0.00    +0.000 A 
ATOM     11  N   UNL     1      43.313   3.117  11.100  0.00  0.00    +0.000 NA
ATOM     12  C   UNL     1      44.082   3.829  10.254  0.00  0.00    +0.000 A 
ATOM     13  C   UNL     1      45.107   4.669  10.664  0.00  0.00    +0.000 A 
ENDBRANCH   6   8
ENDBRANCH   1   2
BRANCH   1  14
ATOM     14  O   UNL     1      48.055   5.214  16.332  0.00  0.00    +0.000 OA
BRANCH  14  18
ATOM     15  C   UNL     1      50.907   2.435  17.376  0.00  0.00    +0.000 A 
ATOM     16  C   UNL     1      49.652   2.001  16.944  0.00  0.00    +0.000 A 
ATOM     17  C   UNL     1      48.685   2.948  16.594  0.00  0.00    +0.000 A 
ATOM     18  C   UNL     1      49.020   4.294  16.690  0.00  0.00    +0.000 A 
ATOM     19  N   UNL     1      50.223   4.738  17.113  0.00  0.00    +0.000 NA
ATOM     20  C   UNL     1      51.135   3.801  17.456  0.00  0.00    +0.000 A 
BRANCH  15  22
ATOM     21  N   UNL     1      51.660   0.240  18.083  0.00  0.00    +0.000 N 
ATOM     22  C   UNL     1      52.001   1.523  17.764  0.00  0.00    +0.000 C 
ATOM     23  O   UNL     1      53.168   1.888  17.753  0.00  0.00    +0.000 OA
ATOM     24  H   UNL     1      52.431  -0.403  18.224  0.00  0.00    +0.000 HD
ATOM     25  H   UNL     1      50.763  -0.157  17.846  0.00  0.00    +0.000 HD
ENDBRANCH  15  22
ENDBRANCH  14  18
ENDBRANCH   1  14
TORSDOF 5
ENDMDL
MODEL 9
REMARK VINA RESULT:    -6.391      4.899      6.641
REMARK INTER + INTRA:          -9.006
REMARK INTER:                  -8.471
REMARK INTRA:                  -0.535
REMARK UNBOUND:                -0.747
REMARK  Name = 
REMARK  5 active torsions:
REMARK  status: ('A' for Active; 'I' for Inactive)
REMARK    1  A    between atoms: C_2  and  C_4
REMARK    2  A    between atoms: C_7  and  O_8
REMARK    3  A    between atoms: O_8  and  C_9
REMARK    4  A    between atoms: C_9  and  C_10
REMARK    5  A    between atoms: C_14  and  C_15
REMARK                            x       y       z     vdW  Elec       q    Type
REMARK                         _______ _______ _______ _____ _____    ______ ____
ROOT
ATOM      1  C   UNL     1      47.017   4.030  15.961  0.00  0.00    +0.000 C 
ENDROOT
BRANCH   1   2
ATOM      2  C   UNL     1      48.125   4.197  16.964  0.00  0.00    +0.000 A 
ATOM      3  C   UNL     1      47.955   5.033  18.060  0.00  0.00    +0.000 A 
ATOM      4  N   UNL     1      48.878   5.202  19.028  0.00  0.00    +0.000 NA
ATOM      5  C   UNL     1      50.027   4.495  18.901  0.00  0.00    +0.000 A 
ATOM      6  C   UNL     1      50.316   3.602  17.866  0.00  0.00    +0.000 A 
ATOM      7  C   UNL     1      49.317   3.465  16.892  0.00  0.00    +0.000 A 
BRANCH   6   8
ATOM      8  C   UNL     1      51.583   2.844  17.799  0.00  0.00    +0.000 A 
ATOM      9  C   UNL     1      51.605   1.470  17.523  0.00  0.00    +0.000 A 
ATOM     10  C   UNL     1      52.820   0.804  17.462  0.00  0.00    +0.000 A 
ATOM     11  N   UNL     1      54.014   1.400  17.648  0.00  0.00    +0.000 NA
ATOM     12  C   UNL     1      53.989   2.721  17.913  0.00  0.00    +0.000 A 
ATOM     13  C   UNL     1      52.824   3.469  18.001  0.00  0.00    +0.000 A 
ENDBRANCH   6   8
ENDBRANCH   1   2
BRANCH   1  14
ATOM     14  O   UNL     1      47.531   3.564  14.706  0.00  0.00    +0.000 OA
BRANCH  14  18
ATOM     15  C   UNL     1      45.092   4.641  11.570  0.00  0.00    +0.000 A 
ATOM     16  C   UNL     1      45.860   5.617  12.209  0.00  0.00    +0.000 A 
ATOM     17  C   UNL     1      46.684   5.247  13.275  0.00  0.00    +0.000 A 
ATOM     18  C   UNL     1      46.705   3.910  13.656  0.00  0.00    +0.000 A 
ATOM     19  N   UNL     1      45.966   2.951  13.060  0.00  0.00    +0.000 NA
ATOM     20  C   UNL     1      45.168   3.338  12.039  0.00  0.00    +0.000 A 
BRANCH  15  22
ATOM     21  N   UNL     1      44.680   4.681   9.179  0.00  0.00    +0.000 N 
ATOM     22  C   UNL     1      44.194   4.919  10.433  0.00  0.00    +0.000 C 
ATOM     23  O   UNL     1      43.044   5.300  10.608  0.00  0.00    +0.000 OA
ATOM     24  H   UNL     1      44.012   4.758   8.421  0.00  0.00    +0.000 HD
ATOM     25  H   UNL     1      45.506   4.125   9.015  0.00  0.00    +0.000 HD
ENDBRANCH  15  22
ENDBRANCH  14  18
ENDBRANCH   1  14
TORSDOF 5
ENDMDL
