MODEL 1
REMARK VINA RESULT:    -8.137      0.000      0.000
REMARK INTER + INTRA:         -11.099
REMARK INTER:                 -10.516
REMARK INTRA:                  -0.584
REMARK UNBOUND:                -0.584
REMARK  Name = 
REMARK  7 active torsions:
REMARK  status: ('A' for Active; 'I' for Inactive)
REMARK    1  A    between atoms: C_1  and  O_2
REMARK    2  A    between atoms: O_2  and  C_3
REMARK    3  A    between atoms: C_5  and  C_6
REMARK    4  A    between atoms: C_6  and  C_7
REMARK    5  A    between atoms: C_6  and  N_8
REMARK    6  A    between atoms: N_8  and  C_9
REMARK    7  A    between atoms: C_12  and  C_13
REMARK                            x       y       z     vdW  Elec       q    Type
REMARK                         _______ _______ _______ _____ _____    ______ ____
ROOT
ATOM      1  N   UNL     1      43.777   3.849  10.434  0.00  0.00    +0.000 N 
ATOM      2  H   UNL     1      43.646   3.176  11.189  0.00  0.00    +0.000 HD
ENDROOT
BRANCH   1   3
ATOM      3  C   UNL     1      44.616   3.387   9.426  0.00  0.00    +0.000 A 
ATOM      4  C   UNL     1      45.087   2.078   9.322  0.00  0.00    +0.000 A 
ATOM      5  C   UNL     1      46.006   1.726   8.328  0.00  0.00    +0.000 A 
ATOM      6  C   UNL     1      46.459   2.710   7.463  0.00  0.00    +0.000 A 
ATOM      7  N   UNL     1      46.052   4.005   7.524  0.00  0.00    +0.000 NA
ATOM      8  C   UNL     1      45.155   4.295   8.502  0.00  0.00    +0.000 A 
BRANCH   6   9
ATOM      9  C   UNL     1      47.466   2.361   6.412  0.00  0.00    +0.000 C 
ATOM     10  N   UNL     1      47.423   3.124   5.278  0.00  0.00    +0.000 N 
ATOM     11  O   UNL     1      48.288   1.461   6.552  0.00  0.00    +0.000 OA
ATOM     12  H   UNL     1      46.743   3.873   5.210  0.00  0.00    +0.000 HD
ATOM     13  H   UNL     1      48.089   2.961   4.538  0.00  0.00    +0.000 HD
ENDBRANCH   6   9
ENDBRANCH   1   3
BRANCH   1  14
ATOM     14  C   UNL     1      43.781   5.225  10.934  0.00  0.00    +0.000 C 
ATOM     15  C   UNL     1      42.508   5.439  11.768  0.00  0.00    +0.000 C 
BRANCH  14  18
ATOM     16  C   UNL     1      46.463   4.724  13.461  0.00  0.00    +0.000 A 
ATOM     17  C   UNL     1      45.207   4.653  12.907  0.00  0.00    +0.000 A 
ATOM     18  C   UNL     1      44.957   5.520  11.859  0.00  0.00    +0.000 A 
ATOM     19  N   UNL     1      45.859   6.458  11.470  0.00  0.00    +0.000 NA
ATOM     20  C   UNL     1      47.025   6.471  12.135  0.00  0.00    +0.000 A 
ATOM     21  N   UNL     1      47.391   5.626  13.108  0.00  0.00    +0.000 NA
BRANCH  16  23
ATOM     22  C   UNL     1      47.230   4.248  15.620  0.00  0.00    +0.000 C 
ATOM     23  O   UNL     1      46.769   3.733  14.375  0.00  0.00    +0.000 OA
ENDBRANCH  16  23
ENDBRANCH  14  18
ENDBRANCH   1  14
TORSDOF 5
ENDMDL
MODEL 2
REMARK VINA RESULT:    -7.836      1.305      1.796
REMARK INTER + INTRA:         -10.710
REMARK INTER:                 -10.129
REMARK INTRA:                  -0.581
REMARK UNBOUND:                -0.584
REMARK  Name = 
REMARK  7 active torsions:
REMARK  status: ('A' for Active; 'I' for Inactive)
REMARK    1  A    between atoms: C_1  and  O_2
REMARK    2  A    between atoms: O_2  and  C_3
REMARK    3  A    between atoms: C_5  and  C_6
REMARK    4  A    between atoms: C_6  and  C_7
REMARK    5  A    between atoms: C_6  and  N_8
REMARK    6  A    between atoms: N_8  and  C_9
REMARK    7  A    between atoms: C_12  and  C_13
REMARK                            x       y       z     vdW  Elec       q    Type
REMARK                         _______ _______ _______ _____ _____    ______ ____
ROOT
ATOM      1  N   UNL     1      43.800   3.929  10.534  0.00  0.00    +0.000 N 
ATOM      2  H   UNL     1      43.298   3.182  11.016  0.00  0.00    +0.000 HD
ENDROOT
BRANCH   1   3
ATOM      3  C   UNL     1      44.617   3.467   9.508  0.00  0.00    +0.000 A 
ATOM      4  C   UNL     1      45.031   2.144   9.356  0.00  0.00    +0.000 A 
ATOM      5  C   UNL     1      45.932   1.788   8.347  0.00  0.00    +0.000 A 
ATOM      6  C   UNL     1      46.425   2.782   7.515  0.00  0.00    +0.000 A 
ATOM      7  N   UNL     1      46.074   4.090   7.623  0.00  0.00    +0.000 NA
ATOM      8  C   UNL     1      45.192   4.383   8.613  0.00  0.00    +0.000 A 
BRANCH   6   9
ATOM      9  C   UNL     1      47.414   2.427   6.449  0.00  0.00    +0.000 C 
ATOM     10  N   UNL     1      47.390   3.221   5.336  0.00  0.00    +0.000 N 
ATOM     11  O   UNL     1      48.206   1.497   6.561  0.00  0.00    +0.000 OA
ATOM     12  H   UNL     1      46.735   3.993   5.291  0.00  0.00    +0.000 HD
ATOM     13  H   UNL     1      48.046   3.055   4.588  0.00  0.00    +0.000 HD
ENDBRANCH   6   9
ENDBRANCH   1   3
BRANCH   1  14
ATOM     14  C   UNL     1      44.171   5.008  11.451  0.00  0.00    +0.000 C 
ATOM     15  C   UNL     1      43.106   5.090  12.555  0.00  0.00    +0.000 C 
BRANCH  14  18
ATOM     16  C   UNL     1      47.363   5.673  13.239  0.00  0.00    +0.000 A 
ATOM     17  C   UNL     1      46.382   5.821  12.287  0.00  0.00    +0.000 A 
ATOM     18  C   UNL     1      45.503   4.763  12.153  0.00  0.00    +0.000 A 
ATOM     19  N   UNL     1      45.660   3.604  12.842  0.00  0.00    +0.000 NA
ATOM     20  C   UNL     1      46.698   3.556  13.694  0.00  0.00    +0.000 A 
ATOM     21  N   UNL     1      47.556   4.551  13.950  0.00  0.00    +0.000 NA
BRANCH  16  23
ATOM     22  C   UNL     1      48.917   7.203  12.391  0.00  0.00    +0.000 C 
ATOM     23  O   UNL     1      48.118   6.800  13.499  0.00  0.00    +0.000 OA
ENDBRANCH  16  23
ENDBRANCH  14  18
ENDBRANCH   1  14
TORSDOF 5
ENDMDL
MODEL 3
REMARK VINA RESULT:    -7.197      1.540      1.864
REMARK INTER + INTRA:          -9.884
REMARK INTER:                  -9.612
REMARK INTRA:                  -0.272
REMARK UNBOUND:                -0.584
REMARK  Name = 
REMARK  7 active torsions:
REMARK  status: ('A' for Active; 'I' for Inactive)
REMARK    1  A    between atoms: C_1  and  O_2
REMARK    2  A    between atoms: O_2  and  C_3
REMARK    3  A    between atoms: C_5  and  C_6
REMARK    4  A    between atoms: C_6  and  C_7
REMARK    5  A    between atoms: C_6  and  N_8
REMARK    6  A    between atoms: N_8  and  C_9
REMARK    7  A    between atoms: C_12  and  C_13
REMARK                            x       y       z     vdW  Elec       q    Type
REMARK                         _______ _______ _______ _____ _____    ______ ____
ROOT
ATOM      1  N   UNL     1      43.675   3.979  10.517  0.00  0.00    +0.000 N 
ATOM      2  H   UNL     1      42.728   3.608  10.444  0.00  0.00    +0.000 HD
ENDROOT
BRANCH   1   3
ATOM      3  C   UNL     1      44.530   3.498   9.532  0.00  0.00    +0.000 A 
ATOM      4  C   UNL     1      44.855   2.154   9.348  0.00  0.00    +0.000 A 
ATOM      5  C   UNL     1      45.800   1.771   8.392  0.00  0.00    +0.000 A 
ATOM      6  C   UNL     1      46.427   2.756   7.644  0.00  0.00    +0.000 A 
ATOM      7  N   UNL     1      46.167   4.083   7.788  0.00  0.00    +0.000 NA
ATOM      8  C   UNL     1      45.238   4.402   8.725  0.00  0.00    +0.000 A 
BRANCH   6   9
ATOM      9  C   UNL     1      47.463   2.370   6.636  0.00  0.00    +0.000 C 
ATOM     10  N   UNL     1      47.443   3.080   5.468  0.00  0.00    +0.000 N 
ATOM     11  O   UNL     1      48.291   1.487   6.840  0.00  0.00    +0.000 OA
ATOM     12  H   UNL     1      46.757   3.816   5.347  0.00  0.00    +0.000 HD
ATOM     13  H   UNL     1      48.129   2.890   4.753  0.00  0.00    +0.000 HD
ENDBRANCH   6   9
ENDBRANCH   1   3
BRANCH   1  14
ATOM     14  C   UNL     1      44.069   4.181  11.913  0.00  0.00    +0.000 C 
ATOM     15  C   UNL     1      45.249   3.246  12.221  0.00  0.00    +0.000 C 
BRANCH  14  18
ATOM     16  C   UNL     1      46.283   6.983  12.949  0.00  0.00    +0.000 A 
ATOM     17  C   UNL     1      45.647   5.767  13.028  0.00  0.00    +0.000 A 
ATOM     18  C   UNL     1      44.556   5.598  12.196  0.00  0.00    +0.000 A 
ATOM     19  N   UNL     1      44.074   6.607  11.426  0.00  0.00    +0.000 NA
ATOM     20  C   UNL     1      44.743   7.770  11.486  0.00  0.00    +0.000 A 
ATOM     21  N   UNL     1      45.852   8.009  12.199  0.00  0.00    +0.000 NA
BRANCH  16  23
ATOM     22  C   UNL     1      48.603   6.695  12.855  0.00  0.00    +0.000 C 
ATOM     23  O   UNL     1      47.477   7.079  13.637  0.00  0.00    +0.000 OA
ENDBRANCH  16  23
ENDBRANCH  14  18
ENDBRANCH   1  14
TORSDOF 5
ENDMDL
MODEL 4
REMARK VINA RESULT:    -6.756      2.007      2.893
REMARK INTER + INTRA:          -9.314
REMARK INTER:                  -8.885
REMARK INTRA:                  -0.429
REMARK UNBOUND:                -0.584
REMARK  Name = 
REMARK  7 active torsions:
REMARK  status: ('A' for Active; 'I' for Inactive)
REMARK    1  A    between atoms: C_1  and  O_2
REMARK    2  A    between atoms: O_2  and  C_3
REMARK    3  A    between atoms: C_5  and  C_6
REMARK    4  A    between atoms: C_6  and  C_7
REMARK    5  A    between atoms: C_6  and  N_8
REMARK    6  A    between atoms: N_8  and  C_9
REMARK    7  A    between atoms: C_12  and  C_13
REMARK                            x       y       z     vdW  Elec       q    Type
REMARK                         _______ _______ _______ _____ _____    ______ ____
ROOT
ATOM      1  N   UNL     1      43.902   3.902  10.538  0.00  0.00    +0.000 N 
ATOM      2  H   UNL     1      43.097   3.275  10.564  0.00  0.00    +0.000 HD
ENDROOT
BRANCH   1   3
ATOM      3  C   UNL     1      44.829   3.564   9.559  0.00  0.00    +0.000 A 
ATOM      4  C   UNL     1      45.411   4.468   8.670  0.00  0.00    +0.000 A 
ATOM      5  C   UNL     1      46.262   4.023   7.654  0.00  0.00    +0.000 A 
ATOM      6  C   UNL     1      46.498   2.662   7.531  0.00  0.00    +0.000 A 
ATOM      7  N   UNL     1      45.947   1.731   8.355  0.00  0.00    +0.000 NA
ATOM      8  C   UNL     1      45.134   2.214   9.329  0.00  0.00    +0.000 A 
BRANCH   6   9
ATOM      9  C   UNL     1      47.381   2.162   6.432  0.00  0.00    +0.000 C 
ATOM     10  N   UNL     1      47.508   2.993   5.354  0.00  0.00    +0.000 N 
ATOM     11  O   UNL     1      47.969   1.087   6.489  0.00  0.00    +0.000 OA
ATOM     12  H   UNL     1      47.023   3.884   5.354  0.00  0.00    +0.000 HD
ATOM     13  H   UNL     1      48.108   2.732   4.586  0.00  0.00    +0.000 HD
ENDBRANCH   6   9
ENDBRANCH   1   3
BRANCH   1  14
ATOM     14  C   UNL     1      44.261   4.372  11.877  0.00  0.00    +0.000 C 
ATOM     15  C   UNL     1      45.063   3.263  12.578  0.00  0.00    +0.000 C 
BRANCH  14  18
ATOM     16  C   UNL     1      45.313   7.938  11.867  0.00  0.00    +0.000 A 
ATOM     17  C   UNL     1      44.600   6.820  11.504  0.00  0.00    +0.000 A 
ATOM     18  C   UNL     1      45.158   5.605  11.856  0.00  0.00    +0.000 A 
ATOM     19  N   UNL     1      46.385   5.515  12.429  0.00  0.00    +0.000 NA
ATOM     20  C   UNL     1      47.013   6.677  12.673  0.00  0.00    +0.000 A 
ATOM     21  N   UNL     1      46.526   7.903  12.441  0.00  0.00    +0.000 NA
BRANCH  16  23
ATOM     22  C   UNL     1      43.482   9.029  10.901  0.00  0.00    +0.000 C 
ATOM     23  O   UNL     1      44.666   9.145  11.683  0.00  0.00    +0.000 OA
ENDBRANCH  16  23
ENDBRANCH  14  18
ENDBRANCH   1  14
TORSDOF 5
ENDMDL
MODEL 5
REMARK VINA RESULT:    -6.481      2.185      6.919
REMARK INTER + INTRA:          -8.960
REMARK INTER:                  -8.458
REMARK INTRA:                  -0.502
REMARK UNBOUND:                -0.584
REMARK  Name = 
REMARK  7 active torsions:
REMARK  status: ('A' for Active; 'I' for Inactive)
REMARK    1  A    between atoms: C_1  and  O_2
REMARK    2  A    between atoms: O_2  and  C_3
REMARK    3  A    between atoms: C_5  and  C_6
REMARK    4  A    between atoms: C_6  and  C_7
REMARK    5  A    between atoms: C_6  and  N_8
REMARK    6  A    between atoms: N_8  and  C_9
REMARK    7  A    between atoms: C_12  and  C_13
REMARK                            x       y       z     vdW  Elec       q    Type
REMARK                         _______ _______ _______ _____ _____    ______ ____
ROOT
ATOM      1  N   UNL     1      46.630   5.726  12.325  0.00  0.00    +0.000 N 
ATOM      2  H   UNL     1      47.271   5.491  11.566  0.00  0.00    +0.000 HD
ENDROOT
BRANCH   1   3
ATOM      3  C   UNL     1      46.973   5.136  13.536  0.00  0.00    +0.000 A 
ATOM      4  C   UNL     1      47.459   5.826  14.647  0.00  0.00    +0.000 A 
ATOM      5  C   UNL     1      47.870   5.137  15.792  0.00  0.00    +0.000 A 
ATOM      6  C   UNL     1      47.808   3.751  15.794  0.00  0.00    +0.000 A 
ATOM      7  N   UNL     1      47.360   3.022  14.738  0.00  0.00    +0.000 NA
ATOM      8  C   UNL     1      46.968   3.737  13.653  0.00  0.00    +0.000 A 
BRANCH   6   9
ATOM      9  C   UNL     1      48.271   2.994  16.998  0.00  0.00    +0.000 C 
ATOM     10  N   UNL     1      47.372   2.912  18.025  0.00  0.00    +0.000 N 
ATOM     11  O   UNL     1      49.376   2.465  17.066  0.00  0.00    +0.000 OA
ATOM     12  H   UNL     1      46.461   3.344  17.922  0.00  0.00    +0.000 HD
ATOM     13  H   UNL     1      47.608   2.395  18.859  0.00  0.00    +0.000 HD
ENDBRANCH   6   9
ENDBRANCH   1   3
BRANCH   1  14
ATOM     14  C   UNL     1      45.255   5.864  11.844  0.00  0.00    +0.000 C 
ATOM     15  C   UNL     1      45.056   7.310  11.362  0.00  0.00    +0.000 C 
BRANCH  14  18
ATOM     16  C   UNL     1      45.575   4.209   8.530  0.00  0.00    +0.000 A 
ATOM     17  C   UNL     1      45.566   5.235   9.444  0.00  0.00    +0.000 A 
ATOM     18  C   UNL     1      44.946   4.966  10.651  0.00  0.00    +0.000 A 
ATOM     19  N   UNL     1      44.292   3.798  10.880  0.00  0.00    +0.000 NA
ATOM     20  C   UNL     1      44.314   2.900   9.882  0.00  0.00    +0.000 A 
ATOM     21  N   UNL     1      44.950   3.035   8.711  0.00  0.00    +0.000 NA
BRANCH  16  23
ATOM     22  C   UNL     1      46.491   3.249   6.602  0.00  0.00    +0.000 C 
ATOM     23  O   UNL     1      46.354   4.416   7.407  0.00  0.00    +0.000 OA
ENDBRANCH  16  23
ENDBRANCH  14  18
ENDBRANCH   1  14
TORSDOF 5
ENDMDL
MODEL 6
REMARK VINA RESULT:    -6.042      3.221      8.115
REMARK INTER + INTRA:          -8.392
REMARK INTER:                  -8.080
REMARK INTRA:                  -0.312
REMARK UNBOUND:                -0.584
REMARK  Name = 
REMARK  7 active torsions:
REMARK  status: ('A' for Active; 'I' for Inactive)
REMARK    1  A    between atoms: C_1  and  O_2
REMARK    2  A    between atoms: O_2  and  C_3
REMARK    3  A    between atoms: C_5  and  C_6
REMARK    4  A    between atoms: C_6  and  C_7
REMARK    5  A    between atoms: C_6  and  N_8
REMARK    6  A    between atoms: N_8  and  C_9
REMARK    7  A    between atoms: C_12  and  C_13
REMARK                            x       y       z     vdW  Elec       q    Type
REMARK                         _______ _______ _______ _____ _____    ______ ____
ROOT
ATOM      1  N   UNL     1      46.821   4.014  14.255  0.00  0.00    +0.000 N 
ATOM      2  H   UNL     1      46.442   3.087  14.060  0.00  0.00    +0.000 HD
ENDROOT
BRANCH   1   3
ATOM      3  C   UNL     1      47.384   4.121  15.522  0.00  0.00    +0.000 A 
ATOM      4  C   UNL     1      47.388   3.106  16.478  0.00  0.00    +0.000 A 
ATOM      5  C   UNL     1      47.892   3.335  17.763  0.00  0.00    +0.000 A 
ATOM      6  C   UNL     1      48.367   4.600  18.075  0.00  0.00    +0.000 A 
ATOM      7  N   UNL     1      48.374   5.634  17.193  0.00  0.00    +0.000 NA
ATOM      8  C   UNL     1      47.880   5.359  15.959  0.00  0.00    +0.000 A 
BRANCH   6   9
ATOM      9  C   UNL     1      48.883   4.875  19.452  0.00  0.00    +0.000 C 
ATOM     10  N   UNL     1      48.557   3.945  20.400  0.00  0.00    +0.000 N 
ATOM     11  O   UNL     1      49.565   5.858  19.722  0.00  0.00    +0.000 OA
ATOM     12  H   UNL     1      48.009   3.135  20.132  0.00  0.00    +0.000 HD
ATOM     13  H   UNL     1      48.892   4.053  21.346  0.00  0.00    +0.000 HD
ENDBRANCH   6   9
ENDBRANCH   1   3
BRANCH   1  14
ATOM     14  C   UNL     1      46.023   5.066  13.624  0.00  0.00    +0.000 C 
ATOM     15  C   UNL     1      46.946   5.889  12.710  0.00  0.00    +0.000 C 
BRANCH  14  18
ATOM     16  C   UNL     1      44.093   4.186  10.571  0.00  0.00    +0.000 A 
ATOM     17  C   UNL     1      44.832   4.965  11.429  0.00  0.00    +0.000 A 
ATOM     18  C   UNL     1      44.911   4.520  12.735  0.00  0.00    +0.000 A 
ATOM     19  N   UNL     1      44.215   3.439  13.172  0.00  0.00    +0.000 NA
ATOM     20  C   UNL     1      43.474   2.800  12.252  0.00  0.00    +0.000 A 
ATOM     21  N   UNL     1      43.393   3.106  10.950  0.00  0.00    +0.000 NA
BRANCH  16  23
ATOM     22  C   UNL     1      45.340   4.023   8.598  0.00  0.00    +0.000 C 
ATOM     23  O   UNL     1      44.171   4.529   9.234  0.00  0.00    +0.000 OA
ENDBRANCH  16  23
ENDBRANCH  14  18
ENDBRANCH   1  14
TORSDOF 5
ENDMDL
MODEL 7
REMARK VINA RESULT:    -5.789      3.297      5.271
REMARK INTER + INTRA:          -8.065
REMARK INTER:                  -7.554
REMARK INTRA:                  -0.511
REMARK UNBOUND:                -0.584
REMARK  Name = 
REMARK  7 active torsions:
REMARK  status: ('A' for Active; 'I' for Inactive)
REMARK    1  A    between atoms: C_1  and  O_2
REMARK    2  A    between atoms: O_2  and  C_3
REMARK    3  A    between atoms: C_5  and  C_6
REMARK    4  A    between atoms: C_6  and  C_7
REMARK    5  A    between atoms: C_6  and  N_8
REMARK    6  A    between atoms: N_8  and  C_9
REMARK    7  A    between atoms: C_12  and  C_13
REMARK                            x       y       z     vdW  Elec       q    Type
REMARK                         _______ _______ _______ _____ _____    ______ ____
ROOT
ATOM      1  N   UNL     1      47.021   6.839  13.674  0.00  0.00    +0.000 N 
ATOM      2  H   UNL     1      46.609   7.005  14.592  0.00  0.00    +0.000 HD
ENDROOT
BRANCH   1   3
ATOM      3  C   UNL     1      46.339   5.882  12.931  0.00  0.00    +0.000 A 
ATOM      4  C   UNL     1      45.750   6.113  11.687  0.00  0.00    +0.000 A 
ATOM      5  C   UNL     1      45.000   5.116  11.056  0.00  0.00    +0.000 A 
ATOM      6  C   UNL     1      44.833   3.900  11.701  0.00  0.00    +0.000 A 
ATOM      7  N   UNL     1      45.367   3.620  12.919  0.00  0.00    +0.000 NA
ATOM      8  C   UNL     1      46.091   4.618  13.487  0.00  0.00    +0.000 A 
BRANCH   6   9
ATOM      9  C   UNL     1      44.009   2.830  11.056  0.00  0.00    +0.000 C 
ATOM     10  N   UNL     1      44.556   2.255   9.942  0.00  0.00    +0.000 N 
ATOM     11  O   UNL     1      42.920   2.474  11.496  0.00  0.00    +0.000 OA
ATOM     12  H   UNL     1      45.467   2.562   9.623  0.00  0.00    +0.000 HD
ATOM     13  H   UNL     1      44.066   1.510   9.471  0.00  0.00    +0.000 HD
ENDBRANCH   6   9
ENDBRANCH   1   3
BRANCH   1  14
ATOM     14  C   UNL     1      48.480   6.959  13.709  0.00  0.00    +0.000 C 
ATOM     15  C   UNL     1      48.853   8.408  13.357  0.00  0.00    +0.000 C 
BRANCH  14  18
ATOM     16  C   UNL     1      49.064   5.357  17.013  0.00  0.00    +0.000 A 
ATOM     17  C   UNL     1      48.352   5.892  15.966  0.00  0.00    +0.000 A 
ATOM     18  C   UNL     1      49.068   6.685  15.089  0.00  0.00    +0.000 A 
ATOM     19  N   UNL     1      50.370   7.005  15.305  0.00  0.00    +0.000 NA
ATOM     20  C   UNL     1      50.937   6.474  16.401  0.00  0.00    +0.000 A 
ATOM     21  N   UNL     1      50.352   5.635  17.267  0.00  0.00    +0.000 NA
BRANCH  16  23
ATOM     22  C   UNL     1      47.248   3.884  17.117  0.00  0.00    +0.000 C 
ATOM     23  O   UNL     1      48.393   4.419  17.774  0.00  0.00    +0.000 OA
ENDBRANCH  16  23
ENDBRANCH  14  18
ENDBRANCH   1  14
TORSDOF 5
ENDMDL
MODEL 8
REMARK VINA RESULT:    -5.639      3.383      5.645
REMARK INTER + INTRA:          -7.871
REMARK INTER:                  -7.357
REMARK INTRA:                  -0.514
REMARK UNBOUND:                -0.584
REMARK  Name = 
REMARK  7 active torsions:
REMARK  status: ('A' for Active; 'I' for Inactive)
REMARK    1  A    between atoms: C_1  and  O_2
REMARK    2  A    between atoms: O_2  and  C_3
REMARK    3  A    between atoms: C_5  and  C_6
REMARK    4  A    between atoms: C_6  and  C_7
REMARK    5  A    between atoms: C_6  and  N_8
REMARK    6  A    between atoms: N_8  and  C_9
REMARK    7  A    between atoms: C_12  and  C_13
REMARK                            x       y       z     vdW  Elec       q    Type
REMARK                         _______ _______ _______ _____ _____    ______ ____
ROOT
ATOM      1  N   UNL     1      46.939   6.898  13.815  0.00  0.00    +0.000 N 
ATOM      2  H   UNL     1      46.403   7.162  14.642  0.00  0.00    +0.000 HD
ENDROOT
BRANCH   1   3
ATOM      3  C   UNL     1      46.310   5.931  13.039  0.00  0.00    +0.000 A 
ATOM      4  C   UNL     1      45.955   6.095  11.700  0.00  0.00    +0.000 A 
ATOM      5  C   UNL     1      45.237   5.103  11.025  0.00  0.00    +0.000 A 
ATOM      6  C   UNL     1      44.865   3.962  11.719  0.00  0.00    +0.000 A 
ATOM      7  N   UNL     1      45.166   3.751  13.027  0.00  0.00    +0.000 NA
ATOM      8  C   UNL     1      45.868   4.741  13.636  0.00  0.00    +0.000 A 
BRANCH   6   9
ATOM      9  C   UNL     1      44.071   2.901  11.023  0.00  0.00    +0.000 C 
ATOM     10  N   UNL     1      44.684   2.312   9.953  0.00  0.00    +0.000 N 
ATOM     11  O   UNL     1      42.949   2.565  11.388  0.00  0.00    +0.000 OA
ATOM     12  H   UNL     1      45.621   2.603   9.696  0.00  0.00    +0.000 HD
ATOM     13  H   UNL     1      44.217   1.572   9.452  0.00  0.00    +0.000 HD
ENDBRANCH   6   9
ENDBRANCH   1   3
BRANCH   1  14
ATOM     14  C   UNL     1      48.379   6.928  14.075  0.00  0.00    +0.000 C 
ATOM     15  C   UNL     1      48.885   8.357  13.823  0.00  0.00    +0.000 C 
BRANCH  14  18
ATOM     16  C   UNL     1      48.812   7.295  17.750  0.00  0.00    +0.000 A 
ATOM     17  C   UNL     1      48.885   7.633  16.419  0.00  0.00    +0.000 A 
ATOM     18  C   UNL     1      48.732   6.594  15.521  0.00  0.00    +0.000 A 
ATOM     19  N   UNL     1      48.624   5.302  15.924  0.00  0.00    +0.000 NA
ATOM     20  C   UNL     1      48.634   5.093  17.251  0.00  0.00    +0.000 A 
ATOM     21  N   UNL     1      48.699   6.035  18.200  0.00  0.00    +0.000 NA
BRANCH  16  23
ATOM     22  C   UNL     1      47.881   9.387  18.232  0.00  0.00    +0.000 C 
ATOM     23  O   UNL     1      48.776   8.355  18.635  0.00  0.00    +0.000 OA
ENDBRANCH  16  23
ENDBRANCH  14  18
ENDBRANCH   1  14
TORSDOF 5
ENDMDL
MODEL 9
REMARK VINA RESULT:    -5.489      3.416      6.526
REMARK INTER + INTRA:          -7.677
REMARK INTER:                  -7.147
REMARK INTRA:                  -0.530
REMARK UNBOUND:                -0.584
REMARK  Name = 
REMARK  7 active torsions:
REMARK  status: ('A' for Active; 'I' for Inactive)
REMARK    1  A    between atoms: C_1  and  O_2
REMARK    2  A    between atoms: O_2  and  C_3
REMARK    3  A    between atoms: C_5  and  C_6
REMARK    4  A    between atoms: C_6  and  C_7
REMARK    5  A    between atoms: C_6  and  N_8
REMARK    6  A    between atoms: N_8  and  C_9
REMARK    7  A    between atoms: C_12  and  C_13
REMARK                            x       y       z     vdW  Elec       q    Type
REMARK                         _______ _______ _______ _____ _____    ______ ____
ROOT
ATOM      1  N   UNL     1      46.468   6.587  13.315  0.00  0.00    +0.000 N 
ATOM      2  H   UNL     1      45.518   6.952  13.252  0.00  0.00    +0.000 HD
ENDROOT
BRANCH   1   3
ATOM      3  C   UNL     1      47.430   7.479  12.855  0.00  0.00    +0.000 A 
ATOM      4  C   UNL     1      47.173   8.794  12.468  0.00  0.00    +0.000 A 
ATOM      5  C   UNL     1      48.187   9.591  11.926  0.00  0.00    +0.000 A 
ATOM      6  C   UNL     1      49.449   9.040  11.760  0.00  0.00    +0.000 A 
ATOM      7  N   UNL     1      49.757   7.761  12.102  0.00  0.00    +0.000 NA
ATOM      8  C   UNL     1      48.740   7.031  12.628  0.00  0.00    +0.000 A 
BRANCH   6   9
ATOM      9  C   UNL     1      50.540   9.865  11.154  0.00  0.00    +0.000 C 
ATOM     10  N   UNL     1      50.289  11.207  11.073  0.00  0.00    +0.000 N 
ATOM     11  O   UNL     1      51.599   9.383  10.766  0.00  0.00    +0.000 OA
ATOM     12  H   UNL     1      49.410  11.569  11.426  0.00  0.00    +0.000 HD
ATOM     13  H   UNL     1      50.991  11.827  10.699  0.00  0.00    +0.000 HD
ENDBRANCH   6   9
ENDBRANCH   1   3
BRANCH   1  14
ATOM     14  C   UNL     1      46.509   5.144  13.070  0.00  0.00    +0.000 C 
ATOM     15  C   UNL     1      46.598   4.427  14.426  0.00  0.00    +0.000 C 
BRANCH  14  18
ATOM     16  C   UNL     1      44.135   4.148  10.386  0.00  0.00    +0.000 A 
ATOM     17  C   UNL     1      45.040   4.935  11.057  0.00  0.00    +0.000 A 
ATOM     18  C   UNL     1      45.250   4.619  12.387  0.00  0.00    +0.000 A 
ATOM     19  N   UNL     1      44.529   3.659  13.021  0.00  0.00    +0.000 NA
ATOM     20  C   UNL     1      43.626   3.004  12.274  0.00  0.00    +0.000 A 
ATOM     21  N   UNL     1      43.404   3.183  10.965  0.00  0.00    +0.000 NA
BRANCH  16  23
ATOM     22  C   UNL     1      45.155   3.747   8.318  0.00  0.00    +0.000 C 
ATOM     23  O   UNL     1      44.070   4.345   9.020  0.00  0.00    +0.000 OA
ENDBRANCH  16  23
ENDBRANCH  14  18
ENDBRANCH   1  14
TORSDOF 5
ENDMDL
