MODEL 1
REMARK VINA RESULT:    -7.816      0.000      0.000
REMARK INTER + INTRA:         -10.994
REMARK INTER:                 -10.101
REMARK INTRA:                  -0.893
REMARK UNBOUND:                -0.893
REMARK  Name = 
REMARK  7 active torsions:
REMARK  status: ('A' for Active; 'I' for Inactive)
REMARK    1  A    between atoms: C_1  and  O_2
REMARK    2  A    between atoms: O_2  and  C_3
REMARK    3  A    between atoms: C_7  and  N_8
REMARK    4  A    between atoms: N_8  and  C_9
REMARK    5  A    between atoms: C_9  and  C_10
REMARK    6  A    between atoms: C_14  and  C_15
REMARK    7  A    between atoms: C_19  and  C_20
REMARK                            x       y       z     vdW  Elec       q    Type
REMARK                         _______ _______ _______ _____ _____    ______ ____
ROOT
ATOM      1  C   UNL     1      44.074   5.607  11.348  0.00  0.00    +0.000 A 
ATOM      2  C   UNL     1      43.236   4.770  12.090  0.00  0.00    +0.000 A 
ATOM      3  C   UNL     1      43.142   3.417  11.774  0.00  0.00    +0.000 A 
ATOM      4  C   UNL     1      43.892   2.892  10.718  0.00  0.00    +0.000 A 
ATOM      5  C   UNL     1      44.751   3.698   9.950  0.00  0.00    +0.000 A 
ATOM      6  C   UNL     1      44.836   5.059  10.299  0.00  0.00    +0.000 A 
ENDROOT
BRANCH   5   7
ATOM      7  C   UNL     1      45.510   3.146   8.801  0.00  0.00    +0.000 A 
ATOM      8  C   UNL     1      45.977   3.965   7.758  0.00  0.00    +0.000 A 
ATOM      9  C   UNL     1      46.674   3.434   6.669  0.00  0.00    +0.000 A 
ATOM     10  C   UNL     1      46.945   2.069   6.608  0.00  0.00    +0.000 A 
ATOM     11  C   UNL     1      46.514   1.225   7.632  0.00  0.00    +0.000 A 
ATOM     12  C   UNL     1      46.821  -0.243   7.610  0.00  0.00    +0.000 C 
ATOM     13  C   UNL     1      45.787   1.767   8.705  0.00  0.00    +0.000 A 
ENDBRANCH   5   7
BRANCH   1  14
ATOM     14  C   UNL     1      44.130   7.086  11.637  0.00  0.00    +0.000 C 
BRANCH  14  15
ATOM     15  N   UNL     1      44.937   7.354  12.816  0.00  0.00    +0.000 N 
ATOM     16  H   UNL     1      44.525   7.007  13.680  0.00  0.00    +0.000 HD
BRANCH  15  21
ATOM     17  C   UNL     1      48.580   7.912  12.229  0.00  0.00    +0.000 A 
ATOM     18  C   UNL     1      49.053   6.792  12.902  0.00  0.00    +0.000 A 
ATOM     19  N   UNL     1      48.260   5.880  13.506  0.00  0.00    +0.000 NA
ATOM     20  C   UNL     1      46.925   6.104  13.429  0.00  0.00    +0.000 A 
ATOM     21  C   UNL     1      46.324   7.177  12.761  0.00  0.00    +0.000 A 
ATOM     22  C   UNL     1      47.201   8.103  12.182  0.00  0.00    +0.000 A 
BRANCH  17  24
ATOM     23  C   UNL     1      50.734   8.109  11.244  0.00  0.00    +0.000 C 
ATOM     24  O   UNL     1      49.530   8.731  11.683  0.00  0.00    +0.000 OA
ENDBRANCH  17  24
ENDBRANCH  15  21
ENDBRANCH  14  15
ENDBRANCH   1  14
TORSDOF 5
ENDMDL
MODEL 2
REMARK VINA RESULT:    -7.793      2.710      6.523
REMARK INTER + INTRA:         -10.964
REMARK INTER:                 -10.050
REMARK INTRA:                  -0.914
REMARK UNBOUND:                -0.893
REMARK  Name = 
REMARK  7 active torsions:
REMARK  status: ('A' for Active; 'I' for Inactive)
REMARK    1  A    between atoms: C_1  and  O_2
REMARK    2  A    between atoms: O_2  and  C_3
REMARK    3  A    between atoms: C_7  and  N_8
REMARK    4  A    between atoms: N_8  and  C_9
REMARK    5  A    between atoms: C_9  and  C_10
REMARK    6  A    between atoms: C_14  and  C_15
REMARK    7  A    between atoms: C_19  and  C_20
REMARK                            x       y       z     vdW  Elec       q    Type
REMARK                         _______ _______ _______ _____ _____    ______ ____
ROOT
ATOM      1  C   UNL     1      44.820   4.985  11.549  0.00  0.00    +0.000 A 
ATOM      2  C   UNL     1      45.112   4.084  12.579  0.00  0.00    +0.000 A 
ATOM      3  C   UNL     1      46.188   4.321  13.429  0.00  0.00    +0.000 A 
ATOM      4  C   UNL     1      46.976   5.463  13.259  0.00  0.00    +0.000 A 
ATOM      5  C   UNL     1      46.714   6.397  12.241  0.00  0.00    +0.000 A 
ATOM      6  C   UNL     1      45.612   6.139  11.403  0.00  0.00    +0.000 A 
ENDROOT
BRANCH   5   7
ATOM      7  C   UNL     1      47.580   7.584  12.036  0.00  0.00    +0.000 A 
ATOM      8  C   UNL     1      47.085   8.893  12.163  0.00  0.00    +0.000 A 
ATOM      9  C   UNL     1      47.903  10.007  11.948  0.00  0.00    +0.000 A 
ATOM     10  C   UNL     1      49.247   9.838  11.623  0.00  0.00    +0.000 A 
ATOM     11  C   UNL     1      49.780   8.554  11.504  0.00  0.00    +0.000 A 
ATOM     12  C   UNL     1      51.231   8.342  11.190  0.00  0.00    +0.000 C 
ATOM     13  C   UNL     1      48.939   7.444  11.692  0.00  0.00    +0.000 A 
ENDBRANCH   5   7
BRANCH   1  14
ATOM     14  C   UNL     1      43.700   4.702  10.580  0.00  0.00    +0.000 C 
BRANCH  14  15
ATOM     15  N   UNL     1      44.180   4.737   9.208  0.00  0.00    +0.000 N 
ATOM     16  H   UNL     1      44.553   5.642   8.929  0.00  0.00    +0.000 HD
BRANCH  15  21
ATOM     17  C   UNL     1      46.799   2.707   7.492  0.00  0.00    +0.000 A 
ATOM     18  C   UNL     1      46.401   1.458   7.952  0.00  0.00    +0.000 A 
ATOM     19  N   UNL     1      45.338   1.251   8.760  0.00  0.00    +0.000 NA
ATOM     20  C   UNL     1      44.639   2.356   9.121  0.00  0.00    +0.000 A 
ATOM     21  C   UNL     1      44.921   3.662   8.706  0.00  0.00    +0.000 A 
ATOM     22  C   UNL     1      46.054   3.812   7.895  0.00  0.00    +0.000 A 
BRANCH  17  24
ATOM     23  C   UNL     1      47.698   2.437   5.308  0.00  0.00    +0.000 C 
ATOM     24  O   UNL     1      47.906   2.726   6.687  0.00  0.00    +0.000 OA
ENDBRANCH  17  24
ENDBRANCH  15  21
ENDBRANCH  14  15
ENDBRANCH   1  14
TORSDOF 5
ENDMDL
MODEL 3
REMARK VINA RESULT:    -7.687      2.357      3.091
REMARK INTER + INTRA:         -10.827
REMARK INTER:                  -9.994
REMARK INTRA:                  -0.834
REMARK UNBOUND:                -0.893
REMARK  Name = 
REMARK  7 active torsions:
REMARK  status: ('A' for Active; 'I' for Inactive)
REMARK    1  A    between atoms: C_1  and  O_2
REMARK    2  A    between atoms: O_2  and  C_3
REMARK    3  A    between atoms: C_7  and  N_8
REMARK    4  A    between atoms: N_8  and  C_9
REMARK    5  A    between atoms: C_9  and  C_10
REMARK    6  A    between atoms: C_14  and  C_15
REMARK    7  A    between atoms: C_19  and  C_20
REMARK                            x       y       z     vdW  Elec       q    Type
REMARK                         _______ _______ _______ _____ _____    ______ ____
ROOT
ATOM      1  C   UNL     1      44.908   5.609  11.816  0.00  0.00    +0.000 A 
ATOM      2  C   UNL     1      43.638   5.167  12.200  0.00  0.00    +0.000 A 
ATOM      3  C   UNL     1      43.018   4.135  11.501  0.00  0.00    +0.000 A 
ATOM      4  C   UNL     1      43.666   3.534  10.419  0.00  0.00    +0.000 A 
ATOM      5  C   UNL     1      44.946   3.944  10.004  0.00  0.00    +0.000 A 
ATOM      6  C   UNL     1      45.556   4.981  10.736  0.00  0.00    +0.000 A 
ENDROOT
BRANCH   5   7
ATOM      7  C   UNL     1      45.611   3.334   8.827  0.00  0.00    +0.000 A 
ATOM      8  C   UNL     1      46.051   4.109   7.740  0.00  0.00    +0.000 A 
ATOM      9  C   UNL     1      46.660   3.524   6.625  0.00  0.00    +0.000 A 
ATOM     10  C   UNL     1      46.866   2.148   6.580  0.00  0.00    +0.000 A 
ATOM     11  C   UNL     1      46.459   1.346   7.647  0.00  0.00    +0.000 A 
ATOM     12  C   UNL     1      46.700  -0.134   7.642  0.00  0.00    +0.000 C 
ATOM     13  C   UNL     1      45.821   1.943   8.747  0.00  0.00    +0.000 A 
ENDBRANCH   5   7
BRANCH   1  14
ATOM     14  C   UNL     1      45.559   6.772  12.522  0.00  0.00    +0.000 C 
BRANCH  14  15
ATOM     15  N   UNL     1      46.971   6.515  12.751  0.00  0.00    +0.000 N 
ATOM     16  H   UNL     1      47.584   7.234  12.372  0.00  0.00    +0.000 HD
BRANCH  15  21
ATOM     17  C   UNL     1      47.457   4.369  15.765  0.00  0.00    +0.000 A 
ATOM     18  C   UNL     1      48.468   5.111  16.364  0.00  0.00    +0.000 A 
ATOM     19  N   UNL     1      48.973   6.255  15.853  0.00  0.00    +0.000 NA
ATOM     20  C   UNL     1      48.432   6.676  14.682  0.00  0.00    +0.000 A 
ATOM     21  C   UNL     1      47.395   6.035  13.995  0.00  0.00    +0.000 A 
ATOM     22  C   UNL     1      46.938   4.838  14.561  0.00  0.00    +0.000 A 
BRANCH  17  24
ATOM     23  C   UNL     1      47.576   3.060  17.746  0.00  0.00    +0.000 C 
ATOM     24  O   UNL     1      47.076   3.231  16.423  0.00  0.00    +0.000 OA
ENDBRANCH  17  24
ENDBRANCH  15  21
ENDBRANCH  14  15
ENDBRANCH   1  14
TORSDOF 5
ENDMDL
MODEL 4
REMARK VINA RESULT:    -7.450      1.486      2.094
REMARK INTER + INTRA:         -10.521
REMARK INTER:                  -9.584
REMARK INTRA:                  -0.937
REMARK UNBOUND:                -0.893
REMARK  Name = 
REMARK  7 active torsions:
REMARK  status: ('A' for Active; 'I' for Inactive)
REMARK    1  A    between atoms: C_1  and  O_2
REMARK    2  A    between atoms: O_2  and  C_3
REMARK    3  A    between atoms: C_7  and  N_8
REMARK    4  A    between atoms: N_8  and  C_9
REMARK    5  A    between atoms: C_9  and  C_10
REMARK    6  A    between atoms: C_14  and  C_15
REMARK    7  A    between atoms: C_19  and  C_20
REMARK                            x       y       z     vdW  Elec       q    Type
REMARK                         _______ _______ _______ _____ _____    ______ ____
ROOT
ATOM      1  C   UNL     1      43.776   5.359  10.970  0.00  0.00    +0.000 A 
ATOM      2  C   UNL     1      43.057   4.483  11.789  0.00  0.00    +0.000 A 
ATOM      3  C   UNL     1      43.152   3.108  11.595  0.00  0.00    +0.000 A 
ATOM      4  C   UNL     1      43.971   2.599  10.584  0.00  0.00    +0.000 A 
ATOM      5  C   UNL     1      44.716   3.444   9.741  0.00  0.00    +0.000 A 
ATOM      6  C   UNL     1      44.611   4.830   9.968  0.00  0.00    +0.000 A 
ENDROOT
BRANCH   5   7
ATOM      7  C   UNL     1      45.549   2.902   8.640  0.00  0.00    +0.000 A 
ATOM      8  C   UNL     1      46.145   3.738   7.680  0.00  0.00    +0.000 A 
ATOM      9  C   UNL     1      46.912   3.217   6.634  0.00  0.00    +0.000 A 
ATOM     10  C   UNL     1      47.124   1.844   6.536  0.00  0.00    +0.000 A 
ATOM     11  C   UNL     1      46.564   0.982   7.479  0.00  0.00    +0.000 A 
ATOM     12  C   UNL     1      46.804  -0.498   7.418  0.00  0.00    +0.000 C 
ATOM     13  C   UNL     1      45.769   1.516   8.507  0.00  0.00    +0.000 A 
ENDBRANCH   5   7
BRANCH   1  14
ATOM     14  C   UNL     1      43.626   6.851  11.126  0.00  0.00    +0.000 C 
BRANCH  14  15
ATOM     15  N   UNL     1      44.242   7.307  12.362  0.00  0.00    +0.000 N 
ATOM     16  H   UNL     1      43.647   7.194  13.180  0.00  0.00    +0.000 HD
BRANCH  15  21
ATOM     17  C   UNL     1      47.355   5.682  13.622  0.00  0.00    +0.000 A 
ATOM     18  C   UNL     1      48.267   6.411  12.869  0.00  0.00    +0.000 A 
ATOM     19  N   UNL     1      47.925   7.392  12.006  0.00  0.00    +0.000 NA
ATOM     20  C   UNL     1      46.598   7.654  11.896  0.00  0.00    +0.000 A 
ATOM     21  C   UNL     1      45.586   7.011  12.616  0.00  0.00    +0.000 A 
ATOM     22  C   UNL     1      46.004   5.983  13.471  0.00  0.00    +0.000 A 
BRANCH  17  24
ATOM     23  C   UNL     1      47.187   3.479  14.502  0.00  0.00    +0.000 C 
ATOM     24  O   UNL     1      47.884   4.720  14.440  0.00  0.00    +0.000 OA
ENDBRANCH  17  24
ENDBRANCH  15  21
ENDBRANCH  14  15
ENDBRANCH   1  14
TORSDOF 5
ENDMDL
MODEL 5
REMARK VINA RESULT:    -7.418      2.944      6.786
REMARK INTER + INTRA:         -10.479
REMARK INTER:                  -9.908
REMARK INTRA:                  -0.571
REMARK UNBOUND:                -0.893
REMARK  Name = 
REMARK  7 active torsions:
REMARK  status: ('A' for Active; 'I' for Inactive)
REMARK    1  A    between atoms: C_1  and  O_2
REMARK    2  A    between atoms: O_2  and  C_3
REMARK    3  A    between atoms: C_7  and  N_8
REMARK    4  A    between atoms: N_8  and  C_9
REMARK    5  A    between atoms: C_9  and  C_10
REMARK    6  A    between atoms: C_14  and  C_15
REMARK    7  A    between atoms: C_19  and  C_20
REMARK                            x       y       z     vdW  Elec       q    Type
REMARK                         _______ _______ _______ _____ _____    ______ ____
ROOT
ATOM      1  C   UNL     1      44.785   4.040  12.116  0.00  0.00    +0.000 A 
ATOM      2  C   UNL     1      45.666   3.277  12.889  0.00  0.00    +0.000 A 
ATOM      3  C   UNL     1      46.772   3.876  13.483  0.00  0.00    +0.000 A 
ATOM      4  C   UNL     1      47.002   5.244  13.315  0.00  0.00    +0.000 A 
ATOM      5  C   UNL     1      46.139   6.050  12.551  0.00  0.00    +0.000 A 
ATOM      6  C   UNL     1      45.020   5.420  11.971  0.00  0.00    +0.000 A 
ENDROOT
BRANCH   5   7
ATOM      7  C   UNL     1      46.410   7.492  12.337  0.00  0.00    +0.000 A 
ATOM      8  C   UNL     1      47.719   8.006  12.317  0.00  0.00    +0.000 A 
ATOM      9  C   UNL     1      47.965   9.370  12.135  0.00  0.00    +0.000 A 
ATOM     10  C   UNL     1      46.907  10.254  11.943  0.00  0.00    +0.000 A 
ATOM     11  C   UNL     1      45.594   9.781  11.938  0.00  0.00    +0.000 A 
ATOM     12  C   UNL     1      44.437  10.705  11.699  0.00  0.00    +0.000 C 
ATOM     13  C   UNL     1      45.359   8.413  12.154  0.00  0.00    +0.000 A 
ENDBRANCH   5   7
BRANCH   1  14
ATOM     14  C   UNL     1      43.623   3.388  11.410  0.00  0.00    +0.000 C 
BRANCH  14  15
ATOM     15  N   UNL     1      44.086   2.367  10.485  0.00  0.00    +0.000 N 
ATOM     16  H   UNL     1      43.366   1.697  10.222  0.00  0.00    +0.000 HD
BRANCH  15  21
ATOM     17  C   UNL     1      46.504   2.218   7.646  0.00  0.00    +0.000 A 
ATOM     18  C   UNL     1      46.349   3.524   7.198  0.00  0.00    +0.000 A 
ATOM     19  N   UNL     1      45.529   4.431   7.773  0.00  0.00    +0.000 NA
ATOM     20  C   UNL     1      44.830   4.003   8.854  0.00  0.00    +0.000 A 
ATOM     21  C   UNL     1      44.917   2.725   9.417  0.00  0.00    +0.000 A 
ATOM     22  C   UNL     1      45.761   1.823   8.755  0.00  0.00    +0.000 A 
BRANCH  17  24
ATOM     23  C   UNL     1      48.008   2.047   5.813  0.00  0.00    +0.000 C 
ATOM     24  O   UNL     1      47.374   1.438   6.934  0.00  0.00    +0.000 OA
ENDBRANCH  17  24
ENDBRANCH  15  21
ENDBRANCH  14  15
ENDBRANCH   1  14
TORSDOF 5
ENDMDL
MODEL 6
REMARK VINA RESULT:    -7.236      1.586      1.804
REMARK INTER + INTRA:         -10.245
REMARK INTER:                  -9.463
REMARK INTRA:                  -0.782
REMARK UNBOUND:                -0.893
REMARK  Name = 
REMARK  7 active torsions:
REMARK  status: ('A' for Active; 'I' for Inactive)
REMARK    1  A    between atoms: C_1  and  O_2
REMARK    2  A    between atoms: O_2  and  C_3
REMARK    3  A    between atoms: C_7  and  N_8
REMARK    4  A    between atoms: N_8  and  C_9
REMARK    5  A    between atoms: C_9  and  C_10
REMARK    6  A    between atoms: C_14  and  C_15
REMARK    7  A    between atoms: C_19  and  C_20
REMARK                            x       y       z     vdW  Elec       q    Type
REMARK                         _______ _______ _______ _____ _____    ______ ____
ROOT
ATOM      1  C   UNL     1      44.466   5.767  11.534  0.00  0.00    +0.000 A 
ATOM      2  C   UNL     1      43.411   5.059  12.118  0.00  0.00    +0.000 A 
ATOM      3  C   UNL     1      43.074   3.794  11.646  0.00  0.00    +0.000 A 
ATOM      4  C   UNL     1      43.793   3.225  10.592  0.00  0.00    +0.000 A 
ATOM      5  C   UNL     1      44.865   3.900   9.980  0.00  0.00    +0.000 A 
ATOM      6  C   UNL     1      45.193   5.173  10.485  0.00  0.00    +0.000 A 
ENDROOT
BRANCH   5   7
ATOM      7  C   UNL     1      45.596   3.312   8.831  0.00  0.00    +0.000 A 
ATOM      8  C   UNL     1      46.097   4.107   7.786  0.00  0.00    +0.000 A 
ATOM      9  C   UNL     1      46.768   3.543   6.696  0.00  0.00    +0.000 A 
ATOM     10  C   UNL     1      46.977   2.168   6.638  0.00  0.00    +0.000 A 
ATOM     11  C   UNL     1      46.511   1.346   7.665  0.00  0.00    +0.000 A 
ATOM     12  C   UNL     1      46.753  -0.134   7.646  0.00  0.00    +0.000 C 
ATOM     13  C   UNL     1      45.811   1.923   8.738  0.00  0.00    +0.000 A 
ENDBRANCH   5   7
BRANCH   1  14
ATOM     14  C   UNL     1      44.796   7.166  11.991  0.00  0.00    +0.000 C 
BRANCH  14  15
ATOM     15  N   UNL     1      46.181   7.494  11.699  0.00  0.00    +0.000 N 
ATOM     16  H   UNL     1      46.289   8.294  11.079  0.00  0.00    +0.000 HD
BRANCH  15  21
ATOM     17  C   UNL     1      48.284   8.432  14.635  0.00  0.00    +0.000 A 
ATOM     18  C   UNL     1      48.891   7.198  14.834  0.00  0.00    +0.000 A 
ATOM     19  N   UNL     1      48.666   6.110  14.066  0.00  0.00    +0.000 NA
ATOM     20  C   UNL     1      47.787   6.271  13.046  0.00  0.00    +0.000 A 
ATOM     21  C   UNL     1      47.132   7.465  12.725  0.00  0.00    +0.000 A 
ATOM     22  C   UNL     1      47.384   8.547  13.579  0.00  0.00    +0.000 A 
BRANCH  17  24
ATOM     23  C   UNL     1      47.981   9.397  16.787  0.00  0.00    +0.000 C 
ATOM     24  O   UNL     1      48.628   9.420  15.518  0.00  0.00    +0.000 OA
ENDBRANCH  17  24
ENDBRANCH  15  21
ENDBRANCH  14  15
ENDBRANCH   1  14
TORSDOF 5
ENDMDL
MODEL 7
REMARK VINA RESULT:    -7.190      3.334      7.249
REMARK INTER + INTRA:         -10.185
REMARK INTER:                  -9.360
REMARK INTRA:                  -0.825
REMARK UNBOUND:                -0.893
REMARK  Name = 
REMARK  7 active torsions:
REMARK  status: ('A' for Active; 'I' for Inactive)
REMARK    1  A    between atoms: C_1  and  O_2
REMARK    2  A    between atoms: O_2  and  C_3
REMARK    3  A    between atoms: C_7  and  N_8
REMARK    4  A    between atoms: N_8  and  C_9
REMARK    5  A    between atoms: C_9  and  C_10
REMARK    6  A    between atoms: C_14  and  C_15
REMARK    7  A    between atoms: C_19  and  C_20
REMARK                            x       y       z     vdW  Elec       q    Type
REMARK                         _______ _______ _______ _____ _____    ______ ____
ROOT
ATOM      1  C   UNL     1      45.505   5.505  12.133  0.00  0.00    +0.000 A 
ATOM      2  C   UNL     1      46.279   6.454  11.458  0.00  0.00    +0.000 A 
ATOM      3  C   UNL     1      47.470   6.909  12.016  0.00  0.00    +0.000 A 
ATOM      4  C   UNL     1      47.898   6.413  13.251  0.00  0.00    +0.000 A 
ATOM      5  C   UNL     1      47.154   5.454  13.960  0.00  0.00    +0.000 A 
ATOM      6  C   UNL     1      45.960   5.002  13.367  0.00  0.00    +0.000 A 
ENDROOT
BRANCH   5   7
ATOM      7  C   UNL     1      47.589   4.964  15.291  0.00  0.00    +0.000 A 
ATOM      8  C   UNL     1      47.153   3.731  15.806  0.00  0.00    +0.000 A 
ATOM      9  C   UNL     1      47.552   3.286  17.070  0.00  0.00    +0.000 A 
ATOM     10  C   UNL     1      48.419   4.054  17.843  0.00  0.00    +0.000 A 
ATOM     11  C   UNL     1      48.888   5.277  17.360  0.00  0.00    +0.000 A 
ATOM     12  C   UNL     1      49.850   6.109  18.155  0.00  0.00    +0.000 C 
ATOM     13  C   UNL     1      48.454   5.727  16.101  0.00  0.00    +0.000 A 
ENDBRANCH   5   7
BRANCH   1  14
ATOM     14  C   UNL     1      44.180   5.058  11.571  0.00  0.00    +0.000 C 
BRANCH  14  15
ATOM     15  N   UNL     1      44.176   5.147  10.120  0.00  0.00    +0.000 N 
ATOM     16  H   UNL     1      44.404   6.073   9.767  0.00  0.00    +0.000 HD
BRANCH  15  21
ATOM     17  C   UNL     1      46.280   3.260   7.684  0.00  0.00    +0.000 A 
ATOM     18  C   UNL     1      45.926   1.977   8.082  0.00  0.00    +0.000 A 
ATOM     19  N   UNL     1      45.045   1.706   9.070  0.00  0.00    +0.000 NA
ATOM     20  C   UNL     1      44.490   2.780   9.686  0.00  0.00    +0.000 A 
ATOM     21  C   UNL     1      44.743   4.117   9.361  0.00  0.00    +0.000 A 
ATOM     22  C   UNL     1      45.689   4.330   8.350  0.00  0.00    +0.000 A 
BRANCH  17  24
ATOM     23  C   UNL     1      47.954   2.168   6.395  0.00  0.00    +0.000 C 
ATOM     24  O   UNL     1      47.196   3.343   6.669  0.00  0.00    +0.000 OA
ENDBRANCH  17  24
ENDBRANCH  15  21
ENDBRANCH  14  15
ENDBRANCH   1  14
TORSDOF 5
ENDMDL
MODEL 8
REMARK VINA RESULT:    -6.745      2.019      2.869
REMARK INTER + INTRA:          -9.610
REMARK INTER:                  -8.880
REMARK INTRA:                  -0.729
REMARK UNBOUND:                -0.893
REMARK  Name = 
REMARK  7 active torsions:
REMARK  status: ('A' for Active; 'I' for Inactive)
REMARK    1  A    between atoms: C_1  and  O_2
REMARK    2  A    between atoms: O_2  and  C_3
REMARK    3  A    between atoms: C_7  and  N_8
REMARK    4  A    between atoms: N_8  and  C_9
REMARK    5  A    between atoms: C_9  and  C_10
REMARK    6  A    between atoms: C_14  and  C_15
REMARK    7  A    between atoms: C_19  and  C_20
REMARK                            x       y       z     vdW  Elec       q    Type
REMARK                         _______ _______ _______ _____ _____    ______ ____
ROOT
ATOM      1  C   UNL     1      45.264   6.522  11.415  0.00  0.00    +0.000 A 
ATOM      2  C   UNL     1      43.899   6.571  11.713  0.00  0.00    +0.000 A 
ATOM      3  C   UNL     1      43.028   5.642  11.151  0.00  0.00    +0.000 A 
ATOM      4  C   UNL     1      43.517   4.654  10.293  0.00  0.00    +0.000 A 
ATOM      5  C   UNL     1      44.883   4.564   9.972  0.00  0.00    +0.000 A 
ATOM      6  C   UNL     1      45.744   5.508  10.564  0.00  0.00    +0.000 A 
ENDROOT
BRANCH   5   7
ATOM      7  C   UNL     1      45.392   3.542   9.025  0.00  0.00    +0.000 A 
ATOM      8  C   UNL     1      45.281   2.166   9.289  0.00  0.00    +0.000 A 
ATOM      9  C   UNL     1      45.781   1.209   8.401  0.00  0.00    +0.000 A 
ATOM     10  C   UNL     1      46.385   1.606   7.210  0.00  0.00    +0.000 A 
ATOM     11  C   UNL     1      46.498   2.962   6.903  0.00  0.00    +0.000 A 
ATOM     12  C   UNL     1      47.111   3.417   5.612  0.00  0.00    +0.000 C 
ATOM     13  C   UNL     1      46.019   3.914   7.819  0.00  0.00    +0.000 A 
ENDBRANCH   5   7
BRANCH   1  14
ATOM     14  C   UNL     1      46.206   7.565  11.963  0.00  0.00    +0.000 C 
BRANCH  14  15
ATOM     15  N   UNL     1      47.526   7.001  12.194  0.00  0.00    +0.000 N 
ATOM     16  H   UNL     1      48.277   7.526  11.751  0.00  0.00    +0.000 HD
BRANCH  15  21
ATOM     17  C   UNL     1      48.775   6.804  15.705  0.00  0.00    +0.000 A 
ATOM     18  C   UNL     1      48.290   5.538  16.007  0.00  0.00    +0.000 A 
ATOM     19  N   UNL     1      47.608   4.760  15.138  0.00  0.00    +0.000 NA
ATOM     20  C   UNL     1      47.405   5.282  13.902  0.00  0.00    +0.000 A 
ATOM     21  C   UNL     1      47.865   6.530  13.467  0.00  0.00    +0.000 A 
ATOM     22  C   UNL     1      48.538   7.299  14.425  0.00  0.00    +0.000 A 
BRANCH  17  24
ATOM     23  C   UNL     1      48.924   7.276  18.030  0.00  0.00    +0.000 C 
ATOM     24  O   UNL     1      49.438   7.450  16.713  0.00  0.00    +0.000 OA
ENDBRANCH  17  24
ENDBRANCH  15  21
ENDBRANCH  14  15
ENDBRANCH   1  14
TORSDOF 5
ENDMDL
MODEL 9
REMARK VINA RESULT:    -6.629      3.252      4.784
REMARK INTER + INTRA:          -9.461
REMARK INTER:                  -8.775
REMARK INTRA:                  -0.685
REMARK UNBOUND:                -0.893
REMARK  Name = 
REMARK  7 active torsions:
REMARK  status: ('A' for Active; 'I' for Inactive)
REMARK    1  A    between atoms: C_1  and  O_2
REMARK    2  A    between atoms: O_2  and  C_3
REMARK    3  A    between atoms: C_7  and  N_8
REMARK    4  A    between atoms: N_8  and  C_9
REMARK    5  A    between atoms: C_9  and  C_10
REMARK    6  A    between atoms: C_14  and  C_15
REMARK    7  A    between atoms: C_19  and  C_20
REMARK                            x       y       z     vdW  Elec       q    Type
REMARK                         _______ _______ _______ _____ _____    ______ ____
ROOT
ATOM      1  C   UNL     1      47.100   7.098  13.012  0.00  0.00    +0.000 A 
ATOM      2  C   UNL     1      46.337   8.268  12.946  0.00  0.00    +0.000 A 
ATOM      3  C   UNL     1      45.234   8.335  12.099  0.00  0.00    +0.000 A 
ATOM      4  C   UNL     1      44.883   7.231  11.318  0.00  0.00    +0.000 A 
ATOM      5  C   UNL     1      45.620   6.033  11.359  0.00  0.00    +0.000 A 
ATOM      6  C   UNL     1      46.722   5.988  12.233  0.00  0.00    +0.000 A 
ENDROOT
BRANCH   5   7
ATOM      7  C   UNL     1      45.271   4.879  10.495  0.00  0.00    +0.000 A 
ATOM      8  C   UNL     1      44.401   3.864  10.929  0.00  0.00    +0.000 A 
ATOM      9  C   UNL     1      44.094   2.769  10.115  0.00  0.00    +0.000 A 
ATOM     10  C   UNL     1      44.631   2.674   8.834  0.00  0.00    +0.000 A 
ATOM     11  C   UNL     1      45.485   3.671   8.360  0.00  0.00    +0.000 A 
ATOM     12  C   UNL     1      46.051   3.613   6.972  0.00  0.00    +0.000 C 
ATOM     13  C   UNL     1      45.811   4.750   9.200  0.00  0.00    +0.000 A 
ENDBRANCH   5   7
BRANCH   1  14
ATOM     14  C   UNL     1      48.337   7.039  13.873  0.00  0.00    +0.000 C 
BRANCH  14  15
ATOM     15  N   UNL     1      47.984   6.927  15.279  0.00  0.00    +0.000 N 
ATOM     16  H   UNL     1      47.115   7.397  15.521  0.00  0.00    +0.000 HD
BRANCH  15  21
ATOM     17  C   UNL     1      49.011   4.310  17.734  0.00  0.00    +0.000 A 
ATOM     18  C   UNL     1      48.214   3.278  17.255  0.00  0.00    +0.000 A 
ATOM     19  N   UNL     1      47.392   3.388  16.188  0.00  0.00    +0.000 NA
ATOM     20  C   UNL     1      47.374   4.596  15.571  0.00  0.00    +0.000 A 
ATOM     21  C   UNL     1      48.146   5.703  15.939  0.00  0.00    +0.000 A 
ATOM     22  C   UNL     1      48.954   5.533  17.071  0.00  0.00    +0.000 A 
BRANCH  17  24
ATOM     23  C   UNL     1      49.719   4.943  19.914  0.00  0.00    +0.000 C 
ATOM     24  O   UNL     1      49.776   4.019  18.831  0.00  0.00    +0.000 OA
ENDBRANCH  17  24
ENDBRANCH  15  21
ENDBRANCH  14  15
ENDBRANCH   1  14
TORSDOF 5
ENDMDL
