MODEL 1
REMARK VINA RESULT:    -7.739      0.000      0.000
REMARK INTER + INTRA:         -11.225
REMARK INTER:                 -10.454
REMARK INTRA:                  -0.771
REMARK UNBOUND:                -0.771
REMARK  Name = 
REMARK  7 active torsions:
REMARK  status: ('A' for Active; 'I' for Inactive)
REMARK    1  A    between atoms: C_1  and  O_2
REMARK    2  A    between atoms: O_2  and  C_3
REMARK    3  A    between atoms: C_6  and  C_7
REMARK    4  A    between atoms: N_13  and  C_14
REMARK    5  A    between atoms: C_14  and  C_15
REMARK    6  A    between atoms: C_18  and  C_19
REMARK    7  A    between atoms: C_19  and  N_20
REMARK                            x       y       z     vdW  Elec       q    Type
REMARK                         _______ _______ _______ _____ _____    ______ ____
ROOT
ATOM      1  C   UNL     1      47.345   5.826  13.157  0.00  0.00    +0.000 A 
ATOM      2  N   UNL     1      48.678   6.035  13.277  0.00  0.00    +0.000 NA
ATOM      3  C   UNL     1      49.198   7.244  12.998  0.00  0.00    +0.000 A 
ATOM      4  C   UNL     1      48.460   8.328  12.553  0.00  0.00    +0.000 A 
ATOM      5  C   UNL     1      47.078   8.118  12.351  0.00  0.00    +0.000 A 
ATOM      6  C   UNL     1      45.992   8.945  11.942  0.00  0.00    +0.000 A 
ATOM      7  C   UNL     1      44.848   8.188  11.954  0.00  0.00    +0.000 A 
ATOM      8  N   UNL     1      45.162   6.920  12.396  0.00  0.00    +0.000 N 
ATOM      9  C   UNL     1      46.528   6.848  12.652  0.00  0.00    +0.000 A 
ENDROOT
BRANCH   4  10
ATOM     10  C   UNL     1      49.182   9.602  12.391  0.00  0.00    +0.000 C 
ATOM     11  N   UNL     1      49.349  10.104  11.133  0.00  0.00    +0.000 N 
ATOM     12  O   UNL     1      49.672  10.180  13.354  0.00  0.00    +0.000 OA
ATOM     13  H   UNL     1      49.182   9.546  10.306  0.00  0.00    +0.000 HD
ATOM     14  H   UNL     1      49.935  10.922  11.050  0.00  0.00    +0.000 HD
ENDBRANCH   4  10
BRANCH   1  16
ATOM     15  C   UNL     1      47.062   4.429  14.976  0.00  0.00    +0.000 C 
ATOM     16  O   UNL     1      46.843   4.608  13.571  0.00  0.00    +0.000 OA
ENDBRANCH   1  16
BRANCH   8  17
ATOM     17  C   UNL     1      44.128   5.908  12.649  0.00  0.00    +0.000 C 
BRANCH  17  18
ATOM     18  C   UNL     1      44.075   4.857  11.562  0.00  0.00    +0.000 A 
ATOM     19  C   UNL     1      43.505   3.609  11.806  0.00  0.00    +0.000 A 
ATOM     20  C   UNL     1      43.675   2.590  10.868  0.00  0.00    +0.000 A 
ATOM     21  C   UNL     1      44.434   2.827   9.720  0.00  0.00    +0.000 A 
ATOM     22  C   UNL     1      44.823   4.139   9.483  0.00  0.00    +0.000 A 
ATOM     23  N   UNL     1      44.659   5.150  10.371  0.00  0.00    +0.000 NA
BRANCH  21  24
ATOM     24  C   UNL     1      45.037   1.702   8.925  0.00  0.00    +0.000 C 
BRANCH  24  25
ATOM     25  N   UNL     1      46.118   2.073   8.039  0.00  0.00    +0.000 N 
ATOM     26  C   UNL     1      46.989   1.139   7.586  0.00  0.00    +0.000 C 
ATOM     27  N   UNL     1      46.934  -0.137   7.692  0.00  0.00    +0.000 NA
ATOM     28  N   UNL     1      48.027   1.679   6.925  0.00  0.00    +0.000 N 
ATOM     29  H   UNL     1      46.590   2.931   8.310  0.00  0.00    +0.000 HD
ATOM     30  H   UNL     1      46.106  -0.429   8.211  0.00  0.00    +0.000 HD
ATOM     31  H   UNL     1      47.740   2.387   6.257  0.00  0.00    +0.000 HD
ATOM     32  H   UNL     1      48.540   0.937   6.454  0.00  0.00    +0.000 HD
ENDBRANCH  24  25
ENDBRANCH  21  24
ENDBRANCH  17  18
ENDBRANCH   8  17
TORSDOF 6
ENDMDL
MODEL 2
REMARK VINA RESULT:    -7.696      1.554      2.538
REMARK INTER + INTRA:         -11.167
REMARK INTER:                 -10.342
REMARK INTRA:                  -0.825
REMARK UNBOUND:                -0.771
REMARK  Name = 
REMARK  7 active torsions:
REMARK  status: ('A' for Active; 'I' for Inactive)
REMARK    1  A    between atoms: C_1  and  O_2
REMARK    2  A    between atoms: O_2  and  C_3
REMARK    3  A    between atoms: C_6  and  C_7
REMARK    4  A    between atoms: N_13  and  C_14
REMARK    5  A    between atoms: C_14  and  C_15
REMARK    6  A    between atoms: C_18  and  C_19
REMARK    7  A    between atoms: C_19  and  N_20
REMARK                            x       y       z     vdW  Elec       q    Type
REMARK                         _______ _______ _______ _____ _____    ______ ____
ROOT
ATOM      1  C   UNL     1      46.074   8.452  12.311  0.00  0.00    +0.000 A 
ATOM      2  N   UNL     1      47.051   9.391  12.307  0.00  0.00    +0.000 NA
ATOM      3  C   UNL     1      48.269   9.097  12.796  0.00  0.00    +0.000 A 
ATOM      4  C   UNL     1      48.615   7.876  13.351  0.00  0.00    +0.000 A 
ATOM      5  C   UNL     1      47.596   6.902  13.432  0.00  0.00    +0.000 A 
ATOM      6  C   UNL     1      47.538   5.554  13.891  0.00  0.00    +0.000 A 
ATOM      7  C   UNL     1      46.263   5.088  13.694  0.00  0.00    +0.000 A 
ATOM      8  N   UNL     1      45.519   6.079  13.088  0.00  0.00    +0.000 N 
ATOM      9  C   UNL     1      46.315   7.206  12.910  0.00  0.00    +0.000 A 
ENDROOT
BRANCH   4  10
ATOM     10  C   UNL     1      50.024   7.702  13.747  0.00  0.00    +0.000 C 
ATOM     11  N   UNL     1      50.986   7.745  12.781  0.00  0.00    +0.000 N 
ATOM     12  O   UNL     1      50.330   7.471  14.911  0.00  0.00    +0.000 OA
ATOM     13  H   UNL     1      50.760   7.685  11.796  0.00  0.00    +0.000 HD
ATOM     14  H   UNL     1      51.926   7.520  13.072  0.00  0.00    +0.000 HD
ENDBRANCH   4  10
BRANCH   1  16
ATOM     15  C   UNL     1      44.654  10.175  11.717  0.00  0.00    +0.000 C 
ATOM     16  O   UNL     1      44.881   8.760  11.688  0.00  0.00    +0.000 OA
ENDBRANCH   1  16
BRANCH   8  17
ATOM     17  C   UNL     1      44.146   5.844  12.622  0.00  0.00    +0.000 C 
BRANCH  17  18
ATOM     18  C   UNL     1      44.082   4.798  11.531  0.00  0.00    +0.000 A 
ATOM     19  C   UNL     1      43.526   3.544  11.779  0.00  0.00    +0.000 A 
ATOM     20  C   UNL     1      43.687   2.532  10.833  0.00  0.00    +0.000 A 
ATOM     21  C   UNL     1      44.424   2.780   9.672  0.00  0.00    +0.000 A 
ATOM     22  C   UNL     1      44.798   4.097   9.435  0.00  0.00    +0.000 A 
ATOM     23  N   UNL     1      44.642   5.101  10.330  0.00  0.00    +0.000 NA
BRANCH  21  24
ATOM     24  C   UNL     1      45.020   1.663   8.860  0.00  0.00    +0.000 C 
BRANCH  24  25
ATOM     25  N   UNL     1      46.131   2.033   8.012  0.00  0.00    +0.000 N 
ATOM     26  C   UNL     1      47.003   1.095   7.570  0.00  0.00    +0.000 C 
ATOM     27  N   UNL     1      46.929  -0.181   7.655  0.00  0.00    +0.000 NA
ATOM     28  N   UNL     1      48.067   1.631   6.948  0.00  0.00    +0.000 N 
ATOM     29  H   UNL     1      46.606   2.881   8.310  0.00  0.00    +0.000 HD
ATOM     30  H   UNL     1      46.083  -0.471   8.145  0.00  0.00    +0.000 HD
ATOM     31  H   UNL     1      47.808   2.353   6.282  0.00  0.00    +0.000 HD
ATOM     32  H   UNL     1      48.583   0.890   6.480  0.00  0.00    +0.000 HD
ENDBRANCH  24  25
ENDBRANCH  21  24
ENDBRANCH  17  18
ENDBRANCH   8  17
TORSDOF 6
ENDMDL
MODEL 3
REMARK VINA RESULT:    -6.638      4.228      6.710
REMARK INTER + INTRA:          -9.738
REMARK INTER:                  -9.165
REMARK INTRA:                  -0.574
REMARK UNBOUND:                -0.771
REMARK  Name = 
REMARK  7 active torsions:
REMARK  status: ('A' for Active; 'I' for Inactive)
REMARK    1  A    between atoms: C_1  and  O_2
REMARK    2  A    between atoms: O_2  and  C_3
REMARK    3  A    between atoms: C_6  and  C_7
REMARK    4  A    between atoms: N_13  and  C_14
REMARK    5  A    between atoms: C_14  and  C_15
REMARK    6  A    between atoms: C_18  and  C_19
REMARK    7  A    between atoms: C_19  and  N_20
REMARK                            x       y       z     vdW  Elec       q    Type
REMARK                         _______ _______ _______ _____ _____    ______ ____
ROOT
ATOM      1  C   UNL     1      50.329   5.097  17.820  0.00  0.00    +0.000 A 
ATOM      2  N   UNL     1      51.574   4.986  18.343  0.00  0.00    +0.000 NA
ATOM      3  C   UNL     1      52.212   3.803  18.316  0.00  0.00    +0.000 A 
ATOM      4  C   UNL     1      51.672   2.635  17.805  0.00  0.00    +0.000 A 
ATOM      5  C   UNL     1      50.348   2.705  17.317  0.00  0.00    +0.000 A 
ATOM      6  C   UNL     1      49.460   1.775  16.705  0.00  0.00    +0.000 A 
ATOM      7  C   UNL     1      48.289   2.428  16.413  0.00  0.00    +0.000 A 
ATOM      8  N   UNL     1      48.418   3.751  16.781  0.00  0.00    +0.000 N 
ATOM      9  C   UNL     1      49.677   3.952  17.338  0.00  0.00    +0.000 A 
ENDROOT
BRANCH   4  10
ATOM     10  C   UNL     1      52.554   1.454  17.770  0.00  0.00    +0.000 C 
ATOM     11  N   UNL     1      52.065   0.259  18.211  0.00  0.00    +0.000 N 
ATOM     12  O   UNL     1      53.720   1.545  17.404  0.00  0.00    +0.000 OA
ATOM     13  H   UNL     1      51.207   0.194  18.744  0.00  0.00    +0.000 HD
ATOM     14  H   UNL     1      52.725  -0.502  18.270  0.00  0.00    +0.000 HD
ENDBRANCH   4  10
BRANCH   1  16
ATOM     15  C   UNL     1      50.328   7.105  16.676  0.00  0.00    +0.000 C 
ATOM     16  O   UNL     1      49.764   6.355  17.760  0.00  0.00    +0.000 OA
ENDBRANCH   1  16
BRANCH   8  17
ATOM     17  C   UNL     1      47.382   4.746  16.475  0.00  0.00    +0.000 C 
BRANCH  17  18
ATOM     18  C   UNL     1      47.157   4.902  14.987  0.00  0.00    +0.000 A 
ATOM     19  C   UNL     1      47.782   5.925  14.277  0.00  0.00    +0.000 A 
ATOM     20  C   UNL     1      47.381   6.184  12.966  0.00  0.00    +0.000 A 
ATOM     21  C   UNL     1      46.346   5.437  12.400  0.00  0.00    +0.000 A 
ATOM     22  C   UNL     1      45.897   4.337  13.119  0.00  0.00    +0.000 A 
ATOM     23  N   UNL     1      46.279   4.055  14.388  0.00  0.00    +0.000 NA
BRANCH  21  24
ATOM     24  C   UNL     1      45.565   5.938  11.215  0.00  0.00    +0.000 C 
BRANCH  24  25
ATOM     25  N   UNL     1      44.826   4.933  10.485  0.00  0.00    +0.000 N 
ATOM     26  C   UNL     1      45.077   4.711   9.172  0.00  0.00    +0.000 C 
ATOM     27  N   UNL     1      46.027   5.166   8.442  0.00  0.00    +0.000 NA
ATOM     28  N   UNL     1      44.185   3.877   8.609  0.00  0.00    +0.000 N 
ATOM     29  H   UNL     1      43.830   4.934  10.685  0.00  0.00    +0.000 HD
ATOM     30  H   UNL     1      46.638   5.785   8.974  0.00  0.00    +0.000 HD
ATOM     31  H   UNL     1      44.006   3.055   9.177  0.00  0.00    +0.000 HD
ATOM     32  H   UNL     1      44.525   3.603   7.690  0.00  0.00    +0.000 HD
ENDBRANCH  24  25
ENDBRANCH  21  24
ENDBRANCH  17  18
ENDBRANCH   8  17
TORSDOF 6
ENDMDL
MODEL 4
REMARK VINA RESULT:    -6.586      2.710      6.525
REMARK INTER + INTRA:          -9.668
REMARK INTER:                  -8.985
REMARK INTRA:                  -0.683
REMARK UNBOUND:                -0.771
REMARK  Name = 
REMARK  7 active torsions:
REMARK  status: ('A' for Active; 'I' for Inactive)
REMARK    1  A    between atoms: C_1  and  O_2
REMARK    2  A    between atoms: O_2  and  C_3
REMARK    3  A    between atoms: C_6  and  C_7
REMARK    4  A    between atoms: N_13  and  C_14
REMARK    5  A    between atoms: C_14  and  C_15
REMARK    6  A    between atoms: C_18  and  C_19
REMARK    7  A    between atoms: C_19  and  N_20
REMARK                            x       y       z     vdW  Elec       q    Type
REMARK                         _______ _______ _______ _____ _____    ______ ____
ROOT
ATOM      1  C   UNL     1      46.866   4.979  13.722  0.00  0.00    +0.000 A 
ATOM      2  N   UNL     1      46.570   3.660  13.627  0.00  0.00    +0.000 NA
ATOM      3  C   UNL     1      45.645   3.240  12.744  0.00  0.00    +0.000 A 
ATOM      4  C   UNL     1      44.922   4.078  11.912  0.00  0.00    +0.000 A 
ATOM      5  C   UNL     1      45.160   5.464  12.039  0.00  0.00    +0.000 A 
ATOM      6  C   UNL     1      44.667   6.626  11.379  0.00  0.00    +0.000 A 
ATOM      7  C   UNL     1      45.291   7.723  11.918  0.00  0.00    +0.000 A 
ATOM      8  N   UNL     1      46.194   7.295  12.868  0.00  0.00    +0.000 N 
ATOM      9  C   UNL     1      46.138   5.907  12.962  0.00  0.00    +0.000 A 
ENDROOT
BRANCH   4  10
ATOM     10  C   UNL     1      44.021   3.432  10.940  0.00  0.00    +0.000 C 
ATOM     11  N   UNL     1      44.308   3.538   9.611  0.00  0.00    +0.000 N 
ATOM     12  O   UNL     1      43.005   2.853  11.306  0.00  0.00    +0.000 OA
ATOM     13  H   UNL     1      44.985   4.203   9.259  0.00  0.00    +0.000 HD
ATOM     14  H   UNL     1      43.617   3.173   8.971  0.00  0.00    +0.000 HD
ENDBRANCH   4  10
BRANCH   1  16
ATOM     15  C   UNL     1      47.716   4.798  15.863  0.00  0.00    +0.000 C 
ATOM     16  O   UNL     1      47.905   5.348  14.553  0.00  0.00    +0.000 OA
ENDBRANCH   1  16
BRANCH   8  17
ATOM     17  C   UNL     1      47.119   8.222  13.534  0.00  0.00    +0.000 C 
BRANCH  17  18
ATOM     18  C   UNL     1      48.370   8.467  12.719  0.00  0.00    +0.000 A 
ATOM     19  C   UNL     1      48.763   7.566  11.731  0.00  0.00    +0.000 A 
ATOM     20  C   UNL     1      50.029   7.695  11.160  0.00  0.00    +0.000 A 
ATOM     21  C   UNL     1      50.889   8.702  11.606  0.00  0.00    +0.000 A 
ATOM     22  C   UNL     1      50.355   9.647  12.472  0.00  0.00    +0.000 A 
ATOM     23  N   UNL     1      49.124   9.553  13.030  0.00  0.00    +0.000 NA
BRANCH  21  24
ATOM     24  C   UNL     1      52.376   8.623  11.391  0.00  0.00    +0.000 C 
BRANCH  24  25
ATOM     25  N   UNL     1      52.928   7.288  11.331  0.00  0.00    +0.000 N 
ATOM     26  C   UNL     1      53.171   6.696  10.137  0.00  0.00    +0.000 C 
ATOM     27  N   UNL     1      53.134   7.204   8.961  0.00  0.00    +0.000 NA
ATOM     28  N   UNL     1      53.511   5.402  10.261  0.00  0.00    +0.000 N 
ATOM     29  H   UNL     1      52.507   6.644  11.994  0.00  0.00    +0.000 HD
ATOM     30  H   UNL     1      52.866   8.187   8.991  0.00  0.00    +0.000 HD
ATOM     31  H   UNL     1      54.203   5.248  10.988  0.00  0.00    +0.000 HD
ATOM     32  H   UNL     1      53.859   5.065   9.366  0.00  0.00    +0.000 HD
ENDBRANCH  24  25
ENDBRANCH  21  24
ENDBRANCH  17  18
ENDBRANCH   8  17
TORSDOF 6
ENDMDL
MODEL 5
REMARK VINA RESULT:    -6.408      3.063      7.184
REMARK INTER + INTRA:          -9.427
REMARK INTER:                  -9.030
REMARK INTRA:                  -0.397
REMARK UNBOUND:                -0.771
REMARK  Name = 
REMARK  7 active torsions:
REMARK  status: ('A' for Active; 'I' for Inactive)
REMARK    1  A    between atoms: C_1  and  O_2
REMARK    2  A    between atoms: O_2  and  C_3
REMARK    3  A    between atoms: C_6  and  C_7
REMARK    4  A    between atoms: N_13  and  C_14
REMARK    5  A    between atoms: C_14  and  C_15
REMARK    6  A    between atoms: C_18  and  C_19
REMARK    7  A    between atoms: C_19  and  N_20
REMARK                            x       y       z     vdW  Elec       q    Type
REMARK                         _______ _______ _______ _____ _____    ______ ____
ROOT
ATOM      1  C   UNL     1      44.161   2.918   9.875  0.00  0.00    +0.000 A 
ATOM      2  N   UNL     1      44.200   1.683   9.320  0.00  0.00    +0.000 NA
ATOM      3  C   UNL     1      45.137   1.387   8.401  0.00  0.00    +0.000 A 
ATOM      4  C   UNL     1      46.086   2.283   7.936  0.00  0.00    +0.000 A 
ATOM      5  C   UNL     1      46.024   3.598   8.446  0.00  0.00    +0.000 A 
ATOM      6  C   UNL     1      46.800   4.779   8.259  0.00  0.00    +0.000 A 
ATOM      7  C   UNL     1      46.275   5.767   9.053  0.00  0.00    +0.000 A 
ATOM      8  N   UNL     1      45.218   5.245   9.768  0.00  0.00    +0.000 N 
ATOM      9  C   UNL     1      45.043   3.909   9.419  0.00  0.00    +0.000 A 
ENDROOT
BRANCH   4  10
ATOM     10  C   UNL     1      47.095   1.755   7.001  0.00  0.00    +0.000 C 
ATOM     11  N   UNL     1      48.022   2.613   6.486  0.00  0.00    +0.000 N 
ATOM     12  O   UNL     1      47.079   0.582   6.647  0.00  0.00    +0.000 OA
ATOM     13  H   UNL     1      47.921   3.618   6.555  0.00  0.00    +0.000 HD
ATOM     14  H   UNL     1      48.632   2.241   5.773  0.00  0.00    +0.000 HD
ENDBRANCH   4  10
BRANCH   1  16
ATOM     15  C   UNL     1      43.458   2.181  11.949  0.00  0.00    +0.000 C 
ATOM     16  O   UNL     1      43.261   3.137  10.899  0.00  0.00    +0.000 OA
ENDBRANCH   1  16
BRANCH   8  17
ATOM     17  C   UNL     1      44.529   6.017  10.810  0.00  0.00    +0.000 C 
BRANCH  17  18
ATOM     18  C   UNL     1      45.240   5.945  12.143  0.00  0.00    +0.000 A 
ATOM     19  C   UNL     1      46.260   6.842  12.456  0.00  0.00    +0.000 A 
ATOM     20  C   UNL     1      47.046   6.609  13.584  0.00  0.00    +0.000 A 
ATOM     21  C   UNL     1      46.818   5.472  14.363  0.00  0.00    +0.000 A 
ATOM     22  C   UNL     1      45.683   4.727  14.072  0.00  0.00    +0.000 A 
ATOM     23  N   UNL     1      44.895   4.939  12.990  0.00  0.00    +0.000 NA
BRANCH  21  24
ATOM     24  C   UNL     1      47.873   4.920  15.282  0.00  0.00    +0.000 C 
BRANCH  24  25
ATOM     25  N   UNL     1      47.754   5.304  16.671  0.00  0.00    +0.000 N 
ATOM     26  C   UNL     1      47.119   4.499  17.557  0.00  0.00    +0.000 C 
ATOM     27  N   UNL     1      46.703   3.297  17.402  0.00  0.00    +0.000 NA
ATOM     28  N   UNL     1      46.944   5.085  18.754  0.00  0.00    +0.000 N 
ATOM     29  H   UNL     1      47.508   6.281  16.803  0.00  0.00    +0.000 HD
ATOM     30  H   UNL     1      46.890   2.959  16.459  0.00  0.00    +0.000 HD
ATOM     31  H   UNL     1      47.782   5.549  19.089  0.00  0.00    +0.000 HD
ATOM     32  H   UNL     1      46.638   4.383  19.423  0.00  0.00    +0.000 HD
ENDBRANCH  24  25
ENDBRANCH  21  24
ENDBRANCH  17  18
ENDBRANCH   8  17
TORSDOF 6
ENDMDL
MODEL 6
REMARK VINA RESULT:    -6.324      2.790      6.926
REMARK INTER + INTRA:          -9.314
REMARK INTER:                  -8.551
REMARK INTRA:                  -0.763
REMARK UNBOUND:                -0.771
REMARK  Name = 
REMARK  7 active torsions:
REMARK  status: ('A' for Active; 'I' for Inactive)
REMARK    1  A    between atoms: C_1  and  O_2
REMARK    2  A    between atoms: O_2  and  C_3
REMARK    3  A    between atoms: C_6  and  C_7
REMARK    4  A    between atoms: N_13  and  C_14
REMARK    5  A    between atoms: C_14  and  C_15
REMARK    6  A    between atoms: C_18  and  C_19
REMARK    7  A    between atoms: C_19  and  N_20
REMARK                            x       y       z     vdW  Elec       q    Type
REMARK                         _______ _______ _______ _____ _____    ______ ____
ROOT
ATOM      1  C   UNL     1      45.052   6.786  12.302  0.00  0.00    +0.000 A 
ATOM      2  N   UNL     1      44.023   6.565  11.448  0.00  0.00    +0.000 NA
ATOM      3  C   UNL     1      43.700   5.309  11.094  0.00  0.00    +0.000 A 
ATOM      4  C   UNL     1      44.373   4.178  11.524  0.00  0.00    +0.000 A 
ATOM      5  C   UNL     1      45.494   4.382  12.359  0.00  0.00    +0.000 A 
ATOM      6  C   UNL     1      46.415   3.521  13.021  0.00  0.00    +0.000 A 
ATOM      7  C   UNL     1      47.296   4.298  13.730  0.00  0.00    +0.000 A 
ATOM      8  N   UNL     1      46.941   5.621  13.575  0.00  0.00    +0.000 N 
ATOM      9  C   UNL     1      45.831   5.704  12.739  0.00  0.00    +0.000 A 
ENDROOT
BRANCH   4  10
ATOM     10  C   UNL     1      43.817   2.876  11.111  0.00  0.00    +0.000 C 
ATOM     11  N   UNL     1      44.243   2.326   9.938  0.00  0.00    +0.000 N 
ATOM     12  O   UNL     1      42.952   2.317  11.776  0.00  0.00    +0.000 OA
ATOM     13  H   UNL     1      44.758   2.859   9.250  0.00  0.00    +0.000 HD
ATOM     14  H   UNL     1      43.768   1.487   9.637  0.00  0.00    +0.000 HD
ENDBRANCH   4  10
BRANCH   1  16
ATOM     15  C   UNL     1      44.931   9.012  11.694  0.00  0.00    +0.000 C 
ATOM     16  O   UNL     1      45.269   8.080  12.730  0.00  0.00    +0.000 OA
ENDBRANCH   1  16
BRANCH   8  17
ATOM     17  C   UNL     1      47.608   6.697  14.320  0.00  0.00    +0.000 C 
BRANCH  17  18
ATOM     18  C   UNL     1      48.648   7.412  13.486  0.00  0.00    +0.000 A 
ATOM     19  C   UNL     1      48.647   7.298  12.097  0.00  0.00    +0.000 A 
ATOM     20  C   UNL     1      49.744   7.774  11.377  0.00  0.00    +0.000 A 
ATOM     21  C   UNL     1      50.830   8.328  12.058  0.00  0.00    +0.000 A 
ATOM     22  C   UNL     1      50.673   8.549  13.420  0.00  0.00    +0.000 A 
ATOM     23  N   UNL     1      49.614   8.109  14.141  0.00  0.00    +0.000 NA
BRANCH  21  24
ATOM     24  C   UNL     1      52.191   8.430  11.424  0.00  0.00    +0.000 C 
BRANCH  24  25
ATOM     25  N   UNL     1      52.912   7.183  11.293  0.00  0.00    +0.000 N 
ATOM     26  C   UNL     1      52.956   6.534  10.104  0.00  0.00    +0.000 C 
ATOM     27  N   UNL     1      52.566   6.933   8.951  0.00  0.00    +0.000 NA
ATOM     28  N   UNL     1      53.511   5.314  10.202  0.00  0.00    +0.000 N 
ATOM     29  H   UNL     1      52.764   6.544  12.068  0.00  0.00    +0.000 HD
ATOM     30  H   UNL     1      52.164   7.869   9.000  0.00  0.00    +0.000 HD
ATOM     31  H   UNL     1      54.369   5.317  10.744  0.00  0.00    +0.000 HD
ATOM     32  H   UNL     1      53.686   4.956   9.266  0.00  0.00    +0.000 HD
ENDBRANCH  24  25
ENDBRANCH  21  24
ENDBRANCH  17  18
ENDBRANCH   8  17
TORSDOF 6
ENDMDL
MODEL 7
REMARK VINA RESULT:    -6.220      2.758      7.537
REMARK INTER + INTRA:          -9.173
REMARK INTER:                  -8.721
REMARK INTRA:                  -0.452
REMARK UNBOUND:                -0.771
REMARK  Name = 
REMARK  7 active torsions:
REMARK  status: ('A' for Active; 'I' for Inactive)
REMARK    1  A    between atoms: C_1  and  O_2
REMARK    2  A    between atoms: O_2  and  C_3
REMARK    3  A    between atoms: C_6  and  C_7
REMARK    4  A    between atoms: N_13  and  C_14
REMARK    5  A    between atoms: C_14  and  C_15
REMARK    6  A    between atoms: C_18  and  C_19
REMARK    7  A    between atoms: C_19  and  N_20
REMARK                            x       y       z     vdW  Elec       q    Type
REMARK                         _______ _______ _______ _____ _____    ______ ____
ROOT
ATOM      1  C   UNL     1      44.124   2.836  10.033  0.00  0.00    +0.000 A 
ATOM      2  N   UNL     1      44.248   1.620   9.448  0.00  0.00    +0.000 NA
ATOM      3  C   UNL     1      45.192   1.417   8.512  0.00  0.00    +0.000 A 
ATOM      4  C   UNL     1      46.064   2.391   8.057  0.00  0.00    +0.000 A 
ATOM      5  C   UNL     1      45.912   3.686   8.598  0.00  0.00    +0.000 A 
ATOM      6  C   UNL     1      46.595   4.925   8.430  0.00  0.00    +0.000 A 
ATOM      7  C   UNL     1      46.009   5.854   9.253  0.00  0.00    +0.000 A 
ATOM      8  N   UNL     1      45.005   5.238   9.969  0.00  0.00    +0.000 N 
ATOM      9  C   UNL     1      44.924   3.901   9.590  0.00  0.00    +0.000 A 
ENDROOT
BRANCH   4  10
ATOM     10  C   UNL     1      47.097   1.962   7.097  0.00  0.00    +0.000 C 
ATOM     11  N   UNL     1      47.963   2.895   6.607  0.00  0.00    +0.000 N 
ATOM     12  O   UNL     1      47.152   0.803   6.701  0.00  0.00    +0.000 OA
ATOM     13  H   UNL     1      47.799   3.888   6.713  0.00  0.00    +0.000 HD
ATOM     14  H   UNL     1      48.589   2.587   5.877  0.00  0.00    +0.000 HD
ENDBRANCH   4  10
BRANCH   1  16
ATOM     15  C   UNL     1      43.836   2.577  12.311  0.00  0.00    +0.000 C 
ATOM     16  O   UNL     1      43.225   2.964  11.073  0.00  0.00    +0.000 OA
ENDBRANCH   1  16
BRANCH   8  17
ATOM     17  C   UNL     1      44.274   5.932  11.037  0.00  0.00    +0.000 C 
BRANCH  17  18
ATOM     18  C   UNL     1      45.201   6.517  12.080  0.00  0.00    +0.000 A 
ATOM     19  C   UNL     1      45.242   7.892  12.305  0.00  0.00    +0.000 A 
ATOM     20  C   UNL     1      46.261   8.419  13.100  0.00  0.00    +0.000 A 
ATOM     21  C   UNL     1      47.233   7.569  13.631  0.00  0.00    +0.000 A 
ATOM     22  C   UNL     1      47.020   6.203  13.491  0.00  0.00    +0.000 A 
ATOM     23  N   UNL     1      46.032   5.665  12.736  0.00  0.00    +0.000 NA
BRANCH  21  24
ATOM     24  C   UNL     1      48.571   8.085  14.085  0.00  0.00    +0.000 C 
BRANCH  24  25
ATOM     25  N   UNL     1      48.535   9.278  14.900  0.00  0.00    +0.000 N 
ATOM     26  C   UNL     1      48.266   9.200  16.226  0.00  0.00    +0.000 C 
ATOM     27  N   UNL     1      48.176   8.163  16.972  0.00  0.00    +0.000 NA
ATOM     28  N   UNL     1      48.096  10.408  16.791  0.00  0.00    +0.000 N 
ATOM     29  H   UNL     1      48.051  10.057  14.461  0.00  0.00    +0.000 HD
ATOM     30  H   UNL     1      48.323   7.308  16.436  0.00  0.00    +0.000 HD
ATOM     31  H   UNL     1      48.812  11.072  16.517  0.00  0.00    +0.000 HD
ATOM     32  H   UNL     1      48.084  10.299  17.802  0.00  0.00    +0.000 HD
ENDBRANCH  24  25
ENDBRANCH  21  24
ENDBRANCH  17  18
ENDBRANCH   8  17
TORSDOF 6
ENDMDL
MODEL 8
REMARK VINA RESULT:    -6.118      3.377      4.736
REMARK INTER + INTRA:          -9.036
REMARK INTER:                  -8.181
REMARK INTRA:                  -0.854
REMARK UNBOUND:                -0.771
REMARK  Name = 
REMARK  7 active torsions:
REMARK  status: ('A' for Active; 'I' for Inactive)
REMARK    1  A    between atoms: C_1  and  O_2
REMARK    2  A    between atoms: O_2  and  C_3
REMARK    3  A    between atoms: C_6  and  C_7
REMARK    4  A    between atoms: N_13  and  C_14
REMARK    5  A    between atoms: C_14  and  C_15
REMARK    6  A    between atoms: C_18  and  C_19
REMARK    7  A    between atoms: C_19  and  N_20
REMARK                            x       y       z     vdW  Elec       q    Type
REMARK                         _______ _______ _______ _____ _____    ______ ____
ROOT
ATOM      1  C   UNL     1      48.631   5.622  16.655  0.00  0.00    +0.000 A 
ATOM      2  N   UNL     1      48.737   5.512  18.001  0.00  0.00    +0.000 NA
ATOM      3  C   UNL     1      48.736   6.617  18.768  0.00  0.00    +0.000 A 
ATOM      4  C   UNL     1      48.660   7.910  18.277  0.00  0.00    +0.000 A 
ATOM      5  C   UNL     1      48.620   8.057  16.873  0.00  0.00    +0.000 A 
ATOM      6  C   UNL     1      48.516   9.168  15.988  0.00  0.00    +0.000 A 
ATOM      7  C   UNL     1      48.495   8.692  14.701  0.00  0.00    +0.000 A 
ATOM      8  N   UNL     1      48.540   7.315  14.739  0.00  0.00    +0.000 N 
ATOM      9  C   UNL     1      48.613   6.894  16.064  0.00  0.00    +0.000 A 
ENDROOT
BRANCH   4  10
ATOM     10  C   UNL     1      48.573   8.995  19.271  0.00  0.00    +0.000 C 
ATOM     11  N   UNL     1      49.684   9.305  19.999  0.00  0.00    +0.000 N 
ATOM     12  O   UNL     1      47.516   9.577  19.483  0.00  0.00    +0.000 OA
ATOM     13  H   UNL     1      50.492   8.697  20.033  0.00  0.00    +0.000 HD
ATOM     14  H   UNL     1      49.562   9.981  20.740  0.00  0.00    +0.000 HD
ENDBRANCH   4  10
BRANCH   1  16
ATOM     15  C   UNL     1      47.639   3.536  16.583  0.00  0.00    +0.000 C 
ATOM     16  O   UNL     1      48.514   4.458  15.921  0.00  0.00    +0.000 OA
ENDBRANCH   1  16
BRANCH   8  17
ATOM     17  C   UNL     1      48.396   6.499  13.526  0.00  0.00    +0.000 C 
BRANCH  17  18
ATOM     18  C   UNL     1      46.950   6.326  13.119  0.00  0.00    +0.000 A 
ATOM     19  C   UNL     1      46.239   5.184  13.487  0.00  0.00    +0.000 A 
ATOM     20  C   UNL     1      44.992   4.946  12.909  0.00  0.00    +0.000 A 
ATOM     21  C   UNL     1      44.491   5.835  11.956  0.00  0.00    +0.000 A 
ATOM     22  C   UNL     1      45.188   7.022  11.774  0.00  0.00    +0.000 A 
ATOM     23  N   UNL     1      46.395   7.284  12.333  0.00  0.00    +0.000 NA
BRANCH  21  24
ATOM     24  C   UNL     1      43.421   5.426  10.980  0.00  0.00    +0.000 C 
BRANCH  24  25
ATOM     25  N   UNL     1      43.617   4.146  10.339  0.00  0.00    +0.000 N 
ATOM     26  C   UNL     1      44.388   4.041   9.229  0.00  0.00    +0.000 C 
ATOM     27  N   UNL     1      45.151   4.918   8.690  0.00  0.00    +0.000 NA
ATOM     28  N   UNL     1      44.318   2.824   8.664  0.00  0.00    +0.000 N 
ATOM     29  H   UNL     1      42.768   3.594  10.263  0.00  0.00    +0.000 HD
ATOM     30  H   UNL     1      45.123   5.799   9.203  0.00  0.00    +0.000 HD
ATOM     31  H   UNL     1      44.403   2.073   9.342  0.00  0.00    +0.000 HD
ATOM     32  H   UNL     1      45.047   2.746   7.958  0.00  0.00    +0.000 HD
ENDBRANCH  24  25
ENDBRANCH  21  24
ENDBRANCH  17  18
ENDBRANCH   8  17
TORSDOF 6
ENDMDL
MODEL 9
REMARK VINA RESULT:    -5.565      4.423      6.885
REMARK INTER + INTRA:          -8.288
REMARK INTER:                  -7.454
REMARK INTRA:                  -0.834
REMARK UNBOUND:                -0.771
REMARK  Name = 
REMARK  7 active torsions:
REMARK  status: ('A' for Active; 'I' for Inactive)
REMARK    1  A    between atoms: C_1  and  O_2
REMARK    2  A    between atoms: O_2  and  C_3
REMARK    3  A    between atoms: C_6  and  C_7
REMARK    4  A    between atoms: N_13  and  C_14
REMARK    5  A    between atoms: C_14  and  C_15
REMARK    6  A    between atoms: C_18  and  C_19
REMARK    7  A    between atoms: C_19  and  N_20
REMARK                            x       y       z     vdW  Elec       q    Type
REMARK                         _______ _______ _______ _____ _____    ______ ____
ROOT
ATOM      1  C   UNL     1      50.297   6.528  17.687  0.00  0.00    +0.000 A 
ATOM      2  N   UNL     1      51.517   7.023  18.006  0.00  0.00    +0.000 NA
ATOM      3  C   UNL     1      52.567   6.192  18.134  0.00  0.00    +0.000 A 
ATOM      4  C   UNL     1      52.498   4.817  17.990  0.00  0.00    +0.000 A 
ATOM      5  C   UNL     1      51.224   4.267  17.727  0.00  0.00    +0.000 A 
ATOM      6  C   UNL     1      50.735   2.950  17.490  0.00  0.00    +0.000 A 
ATOM      7  C   UNL     1      49.385   3.028  17.261  0.00  0.00    +0.000 A 
ATOM      8  N   UNL     1      49.006   4.353  17.302  0.00  0.00    +0.000 N 
ATOM      9  C   UNL     1      50.119   5.140  17.583  0.00  0.00    +0.000 A 
ENDROOT
BRANCH   4  10
ATOM     10  C   UNL     1      53.770   4.076  18.070  0.00  0.00    +0.000 C 
ATOM     11  N   UNL     1      54.761   4.379  17.183  0.00  0.00    +0.000 N 
ATOM     12  O   UNL     1      53.924   3.169  18.880  0.00  0.00    +0.000 OA
ATOM     13  H   UNL     1      54.589   4.935  16.355  0.00  0.00    +0.000 HD
ATOM     14  H   UNL     1      55.576   3.784  17.200  0.00  0.00    +0.000 HD
ENDBRANCH   4  10
BRANCH   1  16
ATOM     15  C   UNL     1      48.750   7.927  18.682  0.00  0.00    +0.000 C 
ATOM     16  O   UNL     1      49.279   7.429  17.446  0.00  0.00    +0.000 OA
ENDBRANCH   1  16
BRANCH   8  17
ATOM     17  C   UNL     1      47.643   4.782  16.962  0.00  0.00    +0.000 C 
BRANCH  17  18
ATOM     18  C   UNL     1      47.438   4.908  15.468  0.00  0.00    +0.000 A 
ATOM     19  C   UNL     1      47.947   6.001  14.769  0.00  0.00    +0.000 A 
ATOM     20  C   UNL     1      47.549   6.206  13.448  0.00  0.00    +0.000 A 
ATOM     21  C   UNL     1      46.629   5.335  12.860  0.00  0.00    +0.000 A 
ATOM     22  C   UNL     1      46.304   4.188  13.572  0.00  0.00    +0.000 A 
ATOM     23  N   UNL     1      46.688   3.958  14.851  0.00  0.00    +0.000 NA
BRANCH  21  24
ATOM     24  C   UNL     1      45.822   5.734  11.654  0.00  0.00    +0.000 C 
BRANCH  24  25
ATOM     25  N   UNL     1      44.518   6.290  11.934  0.00  0.00    +0.000 N 
ATOM     26  C   UNL     1      43.399   5.713  11.432  0.00  0.00    +0.000 C 
ATOM     27  N   UNL     1      43.271   4.590  10.829  0.00  0.00    +0.000 NA
ATOM     28  N   UNL     1      42.297   6.454  11.639  0.00  0.00    +0.000 N 
ATOM     29  H   UNL     1      44.484   7.304  11.865  0.00  0.00    +0.000 HD
ATOM     30  H   UNL     1      44.170   4.118  10.730  0.00  0.00    +0.000 HD
ATOM     31  H   UNL     1      42.234   6.804  12.589  0.00  0.00    +0.000 HD
ATOM     32  H   UNL     1      41.477   5.896  11.413  0.00  0.00    +0.000 HD
ENDBRANCH  24  25
ENDBRANCH  21  24
ENDBRANCH  17  18
ENDBRANCH   8  17
TORSDOF 6
ENDMDL
