MODEL 1
REMARK VINA RESULT:    -8.700      0.000      0.000
REMARK INTER + INTRA:         -13.090
REMARK INTER:                 -11.751
REMARK INTRA:                  -1.338
REMARK UNBOUND:                -1.338
REMARK  Name = 
REMARK  7 active torsions:
REMARK  status: ('A' for Active; 'I' for Inactive)
REMARK    1  A    between atoms: C_1  and  C_2
REMARK    2  A    between atoms: C_2  and  N_3
REMARK    3  A    between atoms: C_2  and  C_13
REMARK    4  A    between atoms: C_4  and  C_6
REMARK    5  A    between atoms: C_16  and  C_17
REMARK    6  A    between atoms: C_17  and  N_18
REMARK    7  A    between atoms: C_19  and  C_21
REMARK                            x       y       z     vdW  Elec       q    Type
REMARK                         _______ _______ _______ _____ _____    ______ ____
ROOT
ATOM      1  C   UNL     1      45.013   5.302  11.996  0.00  0.00    +0.000 A 
ATOM      2  C   UNL     1      45.614   6.470  11.493  0.00  0.00    +0.000 A 
ATOM      3  C   UNL     1      46.731   7.031  12.120  0.00  0.00    +0.000 A 
ATOM      4  C   UNL     1      47.276   6.434  13.263  0.00  0.00    +0.000 A 
ATOM      5  C   UNL     1      46.656   5.296  13.791  0.00  0.00    +0.000 A 
ATOM      6  C   UNL     1      45.548   4.727  13.154  0.00  0.00    +0.000 A 
ENDROOT
BRANCH   1   8
ATOM      7  C   UNL     1      42.664   5.613  11.220  0.00  0.00    +0.000 C 
ATOM      8  C   UNL     1      43.865   4.664  11.225  0.00  0.00    +0.000 C 
BRANCH   8   9
ATOM      9  N   UNL     1      44.259   4.263   9.881  0.00  0.00    +0.000 N 
ATOM     10  C   UNL     1      44.835   3.035   9.641  0.00  0.00    +0.000 C 
ATOM     11  O   UNL     1      44.844   2.149  10.493  0.00  0.00    +0.000 OA
ATOM     12  H   UNL     1      44.479   5.005   9.216  0.00  0.00    +0.000 HD
BRANCH  10  13
ATOM     13  C   UNL     1      45.395   2.794   8.238  0.00  0.00    +0.000 C 
ATOM     14  C   UNL     1      45.994   1.377   8.202  0.00  0.00    +0.000 C 
ATOM     15  C   UNL     1      46.822   1.124   6.953  0.00  0.00    +0.000 C 
ATOM     16  C   UNL     1      47.929   2.155   6.886  0.00  0.00    +0.000 C 
ATOM     17  N   UNL     1      47.403   3.495   6.948  0.00  0.00    +0.000 N 
ATOM     18  C   UNL     1      46.363   3.868   7.753  0.00  0.00    +0.000 C 
ATOM     19  O   UNL     1      46.188   5.067   7.972  0.00  0.00    +0.000 OA
ATOM     20  H   UNL     1      48.012   4.264   6.692  0.00  0.00    +0.000 HD
ENDBRANCH  10  13
ENDBRANCH   8   9
ENDBRANCH   1   8
BRANCH   4  21
ATOM     21  C   UNL     1      48.499   7.010  13.928  0.00  0.00    +0.000 C 
BRANCH  21  22
ATOM     22  N   UNL     1      48.303   7.183  15.343  0.00  0.00    +0.000 N 
ATOM     23  C   UNL     1      49.259   6.778  16.240  0.00  0.00    +0.000 C 
ATOM     24  O   UNL     1      50.330   6.300  15.875  0.00  0.00    +0.000 OA
ATOM     25  H   UNL     1      47.353   7.350  15.661  0.00  0.00    +0.000 HD
BRANCH  23  26
ATOM     26  C   UNL     1      48.967   7.003  17.661  0.00  0.00    +0.000 A 
ATOM     27  C   UNL     1      48.842   8.302  18.137  0.00  0.00    +0.000 A 
ATOM     28  S   UNL     1      48.441   8.388  19.792  0.00  0.00    +0.000 S 
ATOM     29  C   UNL     1      48.474   6.694  19.944  0.00  0.00    +0.000 A 
ATOM     30  N   UNL     1      48.229   6.095  21.139  0.00  0.00    +0.000 NA
ATOM     31  C   UNL     1      48.322   4.807  21.120  0.00  0.00    +0.000 A 
ATOM     32  N   UNL     1      48.632   4.064  20.009  0.00  0.00    +0.000 N 
ATOM     33  C   UNL     1      48.858   4.623  18.773  0.00  0.00    +0.000 A 
ATOM     34  O   UNL     1      49.100   3.928  17.794  0.00  0.00    +0.000 OA
ATOM     35  C   UNL     1      48.774   6.070  18.745  0.00  0.00    +0.000 A 
ATOM     36  H   UNL     1      48.687   3.057  20.059  0.00  0.00    +0.000 HD
ENDBRANCH  23  26
ENDBRANCH  21  22
ENDBRANCH   4  21
TORSDOF 6
ENDMDL
MODEL 2
REMARK VINA RESULT:    -8.545      1.399      2.214
REMARK INTER + INTRA:         -12.881
REMARK INTER:                 -11.470
REMARK INTRA:                  -1.411
REMARK UNBOUND:                -1.338
REMARK  Name = 
REMARK  7 active torsions:
REMARK  status: ('A' for Active; 'I' for Inactive)
REMARK    1  A    between atoms: C_1  and  C_2
REMARK    2  A    between atoms: C_2  and  N_3
REMARK    3  A    between atoms: C_2  and  C_13
REMARK    4  A    between atoms: C_4  and  C_6
REMARK    5  A    between atoms: C_16  and  C_17
REMARK    6  A    between atoms: C_17  and  N_18
REMARK    7  A    between atoms: C_19  and  C_21
REMARK                            x       y       z     vdW  Elec       q    Type
REMARK                         _______ _______ _______ _____ _____    ______ ____
ROOT
ATOM      1  C   UNL     1      45.377   5.482  11.891  0.00  0.00    +0.000 A 
ATOM      2  C   UNL     1      45.695   4.897  13.130  0.00  0.00    +0.000 A 
ATOM      3  C   UNL     1      46.746   5.389  13.909  0.00  0.00    +0.000 A 
ATOM      4  C   UNL     1      47.503   6.481  13.469  0.00  0.00    +0.000 A 
ATOM      5  C   UNL     1      47.217   7.040  12.218  0.00  0.00    +0.000 A 
ATOM      6  C   UNL     1      46.155   6.557  11.447  0.00  0.00    +0.000 A 
ENDROOT
BRANCH   1   8
ATOM      7  C   UNL     1      43.105   6.095  11.069  0.00  0.00    +0.000 C 
ATOM      8  C   UNL     1      44.159   4.986  11.123  0.00  0.00    +0.000 C 
BRANCH   8   9
ATOM      9  N   UNL     1      44.507   4.487   9.799  0.00  0.00    +0.000 N 
ATOM     10  C   UNL     1      44.936   3.192   9.613  0.00  0.00    +0.000 C 
ATOM     11  O   UNL     1      44.840   2.346  10.500  0.00  0.00    +0.000 OA
ATOM     12  H   UNL     1      44.813   5.171   9.107  0.00  0.00    +0.000 HD
BRANCH  10  13
ATOM     13  C   UNL     1      45.468   2.830   8.225  0.00  0.00    +0.000 C 
ATOM     14  C   UNL     1      45.968   1.376   8.271  0.00  0.00    +0.000 C 
ATOM     15  C   UNL     1      46.767   0.994   7.036  0.00  0.00    +0.000 C 
ATOM     16  C   UNL     1      47.942   1.939   6.904  0.00  0.00    +0.000 C 
ATOM     17  N   UNL     1      47.510   3.314   6.888  0.00  0.00    +0.000 N 
ATOM     18  C   UNL     1      46.504   3.805   7.673  0.00  0.00    +0.000 C 
ATOM     19  O   UNL     1      46.413   5.024   7.821  0.00  0.00    +0.000 OA
ATOM     20  H   UNL     1      48.168   4.023   6.586  0.00  0.00    +0.000 HD
ENDBRANCH  10  13
ENDBRANCH   8   9
ENDBRANCH   1   8
BRANCH   4  21
ATOM     21  C   UNL     1      48.617   7.041  14.315  0.00  0.00    +0.000 C 
BRANCH  21  22
ATOM     22  N   UNL     1      48.278   7.032  15.713  0.00  0.00    +0.000 N 
ATOM     23  C   UNL     1      49.079   6.396  16.626  0.00  0.00    +0.000 C 
ATOM     24  O   UNL     1      50.132   5.854  16.300  0.00  0.00    +0.000 OA
ATOM     25  H   UNL     1      47.319   7.261  15.958  0.00  0.00    +0.000 HD
BRANCH  23  26
ATOM     26  C   UNL     1      48.651   6.448  18.029  0.00  0.00    +0.000 A 
ATOM     27  C   UNL     1      48.718   5.301  18.809  0.00  0.00    +0.000 A 
ATOM     28  S   UNL     1      48.244   5.545  20.429  0.00  0.00    +0.000 S 
ATOM     29  C   UNL     1      47.880   7.181  20.132  0.00  0.00    +0.000 A 
ATOM     30  N   UNL     1      47.399   7.980  21.121  0.00  0.00    +0.000 NA
ATOM     31  C   UNL     1      47.132   9.187  20.749  0.00  0.00    +0.000 A 
ATOM     32  N   UNL     1      47.310   9.669  19.477  0.00  0.00    +0.000 N 
ATOM     33  C   UNL     1      47.822   8.908  18.452  0.00  0.00    +0.000 A 
ATOM     34  O   UNL     1      48.000   9.379  17.336  0.00  0.00    +0.000 OA
ATOM     35  C   UNL     1      48.130   7.539  18.818  0.00  0.00    +0.000 A 
ATOM     36  H   UNL     1      47.085  10.627  19.251  0.00  0.00    +0.000 HD
ENDBRANCH  23  26
ENDBRANCH  21  22
ENDBRANCH   4  21
TORSDOF 6
ENDMDL
MODEL 3
REMARK VINA RESULT:    -7.836      2.034      2.351
REMARK INTER + INTRA:         -11.922
REMARK INTER:                 -10.820
REMARK INTRA:                  -1.103
REMARK UNBOUND:                -1.338
REMARK  Name = 
REMARK  7 active torsions:
REMARK  status: ('A' for Active; 'I' for Inactive)
REMARK    1  A    between atoms: C_1  and  C_2
REMARK    2  A    between atoms: C_2  and  N_3
REMARK    3  A    between atoms: C_2  and  C_13
REMARK    4  A    between atoms: C_4  and  C_6
REMARK    5  A    between atoms: C_16  and  C_17
REMARK    6  A    between atoms: C_17  and  N_18
REMARK    7  A    between atoms: C_19  and  C_21
REMARK                            x       y       z     vdW  Elec       q    Type
REMARK                         _______ _______ _______ _____ _____    ______ ____
ROOT
ATOM      1  C   UNL     1      45.174   5.682  12.132  0.00  0.00    +0.000 A 
ATOM      2  C   UNL     1      44.866   7.045  12.290  0.00  0.00    +0.000 A 
ATOM      3  C   UNL     1      45.798   7.934  12.833  0.00  0.00    +0.000 A 
ATOM      4  C   UNL     1      47.064   7.481  13.226  0.00  0.00    +0.000 A 
ATOM      5  C   UNL     1      47.359   6.118  13.108  0.00  0.00    +0.000 A 
ATOM      6  C   UNL     1      46.432   5.232  12.551  0.00  0.00    +0.000 A 
ENDROOT
BRANCH   1   8
ATOM      7  C   UNL     1      42.783   5.411  11.478  0.00  0.00    +0.000 C 
ATOM      8  C   UNL     1      44.172   4.767  11.439  0.00  0.00    +0.000 C 
BRANCH   8   9
ATOM      9  N   UNL     1      44.584   4.421  10.085  0.00  0.00    +0.000 N 
ATOM     10  C   UNL     1      44.638   3.110   9.667  0.00  0.00    +0.000 C 
ATOM     11  O   UNL     1      44.141   2.201  10.330  0.00  0.00    +0.000 OA
ATOM     12  H   UNL     1      45.195   5.078   9.600  0.00  0.00    +0.000 HD
BRANCH  10  13
ATOM     13  C   UNL     1      45.274   2.843   8.302  0.00  0.00    +0.000 C 
ATOM     14  C   UNL     1      45.863   1.421   8.322  0.00  0.00    +0.000 C 
ATOM     15  C   UNL     1      46.757   1.143   7.125  0.00  0.00    +0.000 C 
ATOM     16  C   UNL     1      47.875   2.164   7.105  0.00  0.00    +0.000 C 
ATOM     17  N   UNL     1      47.358   3.508   7.117  0.00  0.00    +0.000 N 
ATOM     18  C   UNL     1      46.277   3.902   7.856  0.00  0.00    +0.000 C 
ATOM     19  O   UNL     1      46.100   5.106   8.047  0.00  0.00    +0.000 OA
ATOM     20  H   UNL     1      47.986   4.270   6.885  0.00  0.00    +0.000 HD
ENDBRANCH  10  13
ENDBRANCH   8   9
ENDBRANCH   1   8
BRANCH   4  21
ATOM     21  C   UNL     1      48.089   8.436  13.781  0.00  0.00    +0.000 C 
BRANCH  21  22
ATOM     22  N   UNL     1      49.225   7.739  14.322  0.00  0.00    +0.000 N 
ATOM     23  C   UNL     1      49.536   7.830  15.655  0.00  0.00    +0.000 C 
ATOM     24  O   UNL     1      48.840   8.466  16.442  0.00  0.00    +0.000 OA
ATOM     25  H   UNL     1      49.926   7.415  13.663  0.00  0.00    +0.000 HD
BRANCH  23  26
ATOM     26  C   UNL     1      50.711   7.077  16.111  0.00  0.00    +0.000 A 
ATOM     27  C   UNL     1      51.983   7.557  15.832  0.00  0.00    +0.000 A 
ATOM     28  S   UNL     1      53.235   6.601  16.484  0.00  0.00    +0.000 S 
ATOM     29  C   UNL     1      52.122   5.481  17.117  0.00  0.00    +0.000 A 
ATOM     30  N   UNL     1      52.546   4.382  17.796  0.00  0.00    +0.000 NA
ATOM     31  C   UNL     1      51.598   3.599  18.190  0.00  0.00    +0.000 A 
ATOM     32  N   UNL     1      50.262   3.820  17.970  0.00  0.00    +0.000 N 
ATOM     33  C   UNL     1      49.784   4.931  17.316  0.00  0.00    +0.000 A 
ATOM     34  O   UNL     1      48.582   5.115  17.166  0.00  0.00    +0.000 OA
ATOM     35  C   UNL     1      50.812   5.839  16.846  0.00  0.00    +0.000 A 
ATOM     36  H   UNL     1      49.567   3.169  18.307  0.00  0.00    +0.000 HD
ENDBRANCH  23  26
ENDBRANCH  21  22
ENDBRANCH   4  21
TORSDOF 6
ENDMDL
MODEL 4
REMARK VINA RESULT:    -7.763      4.452      5.874
REMARK INTER + INTRA:         -11.824
REMARK INTER:                 -10.279
REMARK INTRA:                  -1.545
REMARK UNBOUND:                -1.338
REMARK  Name = 
REMARK  7 active torsions:
REMARK  status: ('A' for Active; 'I' for Inactive)
REMARK    1  A    between atoms: C_1  and  C_2
REMARK    2  A    between atoms: C_2  and  N_3
REMARK    3  A    between atoms: C_2  and  C_13
REMARK    4  A    between atoms: C_4  and  C_6
REMARK    5  A    between atoms: C_16  and  C_17
REMARK    6  A    between atoms: C_17  and  N_18
REMARK    7  A    between atoms: C_19  and  C_21
REMARK                            x       y       z     vdW  Elec       q    Type
REMARK                         _______ _______ _______ _____ _____    ______ ____
ROOT
ATOM      1  C   UNL     1      45.064   6.031  11.721  0.00  0.00    +0.000 A 
ATOM      2  C   UNL     1      46.226   5.770  12.468  0.00  0.00    +0.000 A 
ATOM      3  C   UNL     1      46.977   6.814  13.017  0.00  0.00    +0.000 A 
ATOM      4  C   UNL     1      46.581   8.144  12.835  0.00  0.00    +0.000 A 
ATOM      5  C   UNL     1      45.448   8.410  12.057  0.00  0.00    +0.000 A 
ATOM      6  C   UNL     1      44.689   7.365  11.522  0.00  0.00    +0.000 A 
ENDROOT
BRANCH   1   8
ATOM      7  C   UNL     1      42.733   5.231  11.342  0.00  0.00    +0.000 C 
ATOM      8  C   UNL     1      44.216   4.865  11.231  0.00  0.00    +0.000 C 
BRANCH   8   9
ATOM      9  N   UNL     1      44.582   4.443   9.886  0.00  0.00    +0.000 N 
ATOM     10  C   UNL     1      44.918   3.135   9.613  0.00  0.00    +0.000 C 
ATOM     11  O   UNL     1      44.717   2.234  10.426  0.00  0.00    +0.000 OA
ATOM     12  H   UNL     1      44.971   5.151   9.263  0.00  0.00    +0.000 HD
BRANCH  10  13
ATOM     13  C   UNL     1      45.481   2.839   8.222  0.00  0.00    +0.000 C 
ATOM     14  C   UNL     1      46.017   1.396   8.223  0.00  0.00    +0.000 C 
ATOM     15  C   UNL     1      46.845   1.081   6.988  0.00  0.00    +0.000 C 
ATOM     16  C   UNL     1      47.998   2.058   6.912  0.00  0.00    +0.000 C 
ATOM     17  N   UNL     1      47.532   3.422   6.940  0.00  0.00    +0.000 N 
ATOM     18  C   UNL     1      46.502   3.858   7.725  0.00  0.00    +0.000 C 
ATOM     19  O   UNL     1      46.379   5.069   7.918  0.00  0.00    +0.000 OA
ATOM     20  H   UNL     1      48.178   4.158   6.676  0.00  0.00    +0.000 HD
ENDBRANCH  10  13
ENDBRANCH   8   9
ENDBRANCH   1   8
BRANCH   4  21
ATOM     21  C   UNL     1      47.364   9.275  13.449  0.00  0.00    +0.000 C 
BRANCH  21  22
ATOM     22  N   UNL     1      48.662   9.414  12.843  0.00  0.00    +0.000 N 
ATOM     23  C   UNL     1      48.837  10.196  11.730  0.00  0.00    +0.000 C 
ATOM     24  O   UNL     1      47.915  10.841  11.237  0.00  0.00    +0.000 OA
ATOM     25  H   UNL     1      49.362   8.720  13.086  0.00  0.00    +0.000 HD
BRANCH  23  26
ATOM     26  C   UNL     1      50.200  10.278  11.190  0.00  0.00    +0.000 A 
ATOM     27  C   UNL     1      50.727  11.515  10.845  0.00  0.00    +0.000 A 
ATOM     28  S   UNL     1      52.339  11.443  10.294  0.00  0.00    +0.000 S 
ATOM     29  C   UNL     1      52.371   9.749  10.444  0.00  0.00    +0.000 A 
ATOM     30  N   UNL     1      53.481   9.039  10.110  0.00  0.00    +0.000 NA
ATOM     31  C   UNL     1      53.356   7.760  10.238  0.00  0.00    +0.000 A 
ATOM     32  N   UNL     1      52.221   7.128  10.678  0.00  0.00    +0.000 N 
ATOM     33  C   UNL     1      51.085   7.805  11.056  0.00  0.00    +0.000 A 
ATOM     34  O   UNL     1      50.100   7.211  11.476  0.00  0.00    +0.000 OA
ATOM     35  C   UNL     1      51.173   9.246  10.921  0.00  0.00    +0.000 A 
ATOM     36  H   UNL     1      52.188   6.122  10.760  0.00  0.00    +0.000 HD
ENDBRANCH  23  26
ENDBRANCH  21  22
ENDBRANCH   4  21
TORSDOF 6
ENDMDL
MODEL 5
REMARK VINA RESULT:    -7.570      4.763     10.055
REMARK INTER + INTRA:         -11.564
REMARK INTER:                 -10.196
REMARK INTRA:                  -1.367
REMARK UNBOUND:                -1.338
REMARK  Name = 
REMARK  7 active torsions:
REMARK  status: ('A' for Active; 'I' for Inactive)
REMARK    1  A    between atoms: C_1  and  C_2
REMARK    2  A    between atoms: C_2  and  N_3
REMARK    3  A    between atoms: C_2  and  C_13
REMARK    4  A    between atoms: C_4  and  C_6
REMARK    5  A    between atoms: C_16  and  C_17
REMARK    6  A    between atoms: C_17  and  N_18
REMARK    7  A    between atoms: C_19  and  C_21
REMARK                            x       y       z     vdW  Elec       q    Type
REMARK                         _______ _______ _______ _____ _____    ______ ____
ROOT
ATOM      1  C   UNL     1      51.453   3.980  17.679  0.00  0.00    +0.000 A 
ATOM      2  C   UNL     1      50.935   2.698  17.422  0.00  0.00    +0.000 A 
ATOM      3  C   UNL     1      49.577   2.514  17.145  0.00  0.00    +0.000 A 
ATOM      4  C   UNL     1      48.705   3.610  17.116  0.00  0.00    +0.000 A 
ATOM      5  C   UNL     1      49.209   4.881  17.413  0.00  0.00    +0.000 A 
ATOM      6  C   UNL     1      50.570   5.066  17.673  0.00  0.00    +0.000 A 
ENDROOT
BRANCH   1   8
ATOM      7  C   UNL     1      53.214   5.281  18.872  0.00  0.00    +0.000 C 
ATOM      8  C   UNL     1      52.954   4.152  17.871  0.00  0.00    +0.000 C 
BRANCH   8   9
ATOM      9  N   UNL     1      53.608   2.908  18.257  0.00  0.00    +0.000 N 
ATOM     10  C   UNL     1      54.768   2.489  17.645  0.00  0.00    +0.000 C 
ATOM     11  O   UNL     1      55.416   3.234  16.912  0.00  0.00    +0.000 OA
ATOM     12  H   UNL     1      53.022   2.180  18.668  0.00  0.00    +0.000 HD
BRANCH  10  13
ATOM     13  C   UNL     1      55.259   1.080  17.979  0.00  0.00    +0.000 C 
ATOM     14  C   UNL     1      54.732   0.123  16.895  0.00  0.00    +0.000 C 
ATOM     15  C   UNL     1      54.921  -1.339  17.265  0.00  0.00    +0.000 C 
ATOM     16  C   UNL     1      54.212  -1.605  18.576  0.00  0.00    +0.000 C 
ATOM     17  N   UNL     1      54.661  -0.704  19.607  0.00  0.00    +0.000 N 
ATOM     18  C   UNL     1      54.934   0.619  19.397  0.00  0.00    +0.000 C 
ATOM     19  O   UNL     1      55.006   1.368  20.371  0.00  0.00    +0.000 OA
ATOM     20  H   UNL     1      54.431  -0.920  20.571  0.00  0.00    +0.000 HD
ENDBRANCH  10  13
ENDBRANCH   8   9
ENDBRANCH   1   8
BRANCH   4  21
ATOM     21  C   UNL     1      47.246   3.428  16.786  0.00  0.00    +0.000 C 
BRANCH  21  22
ATOM     22  N   UNL     1      46.787   4.419  15.848  0.00  0.00    +0.000 N 
ATOM     23  C   UNL     1      46.829   4.180  14.498  0.00  0.00    +0.000 C 
ATOM     24  O   UNL     1      47.212   3.107  14.039  0.00  0.00    +0.000 OA
ATOM     25  H   UNL     1      46.695   5.371  16.189  0.00  0.00    +0.000 HD
BRANCH  23  26
ATOM     26  C   UNL     1      46.332   5.250  13.624  0.00  0.00    +0.000 A 
ATOM     27  C   UNL     1      47.118   6.373  13.401  0.00  0.00    +0.000 A 
ATOM     28  S   UNL     1      46.425   7.489  12.314  0.00  0.00    +0.000 S 
ATOM     29  C   UNL     1      45.024   6.538  12.146  0.00  0.00    +0.000 A 
ATOM     30  N   UNL     1      43.998   6.939  11.351  0.00  0.00    +0.000 NA
ATOM     31  C   UNL     1      42.984   6.140  11.343  0.00  0.00    +0.000 A 
ATOM     32  N   UNL     1      42.907   4.971  12.056  0.00  0.00    +0.000 N 
ATOM     33  C   UNL     1      43.930   4.509  12.850  0.00  0.00    +0.000 A 
ATOM     34  O   UNL     1      43.842   3.444  13.447  0.00  0.00    +0.000 OA
ATOM     35  C   UNL     1      45.091   5.377  12.898  0.00  0.00    +0.000 A 
ATOM     36  H   UNL     1      42.085   4.387  12.004  0.00  0.00    +0.000 HD
ENDBRANCH  23  26
ENDBRANCH  21  22
ENDBRANCH   4  21
TORSDOF 6
ENDMDL
MODEL 6
REMARK VINA RESULT:    -7.559      2.520      3.493
REMARK INTER + INTRA:         -11.549
REMARK INTER:                 -10.132
REMARK INTRA:                  -1.417
REMARK UNBOUND:                -1.338
REMARK  Name = 
REMARK  7 active torsions:
REMARK  status: ('A' for Active; 'I' for Inactive)
REMARK    1  A    between atoms: C_1  and  C_2
REMARK    2  A    between atoms: C_2  and  N_3
REMARK    3  A    between atoms: C_2  and  C_13
REMARK    4  A    between atoms: C_4  and  C_6
REMARK    5  A    between atoms: C_16  and  C_17
REMARK    6  A    between atoms: C_17  and  N_18
REMARK    7  A    between atoms: C_19  and  C_21
REMARK                            x       y       z     vdW  Elec       q    Type
REMARK                         _______ _______ _______ _____ _____    ______ ____
ROOT
ATOM      1  C   UNL     1      45.052   5.796  11.897  0.00  0.00    +0.000 A 
ATOM      2  C   UNL     1      45.977   5.276  12.820  0.00  0.00    +0.000 A 
ATOM      3  C   UNL     1      46.884   6.114  13.477  0.00  0.00    +0.000 A 
ATOM      4  C   UNL     1      46.883   7.492  13.231  0.00  0.00    +0.000 A 
ATOM      5  C   UNL     1      45.992   8.007  12.282  0.00  0.00    +0.000 A 
ATOM      6  C   UNL     1      45.075   7.171  11.637  0.00  0.00    +0.000 A 
ENDROOT
BRANCH   1   8
ATOM      7  C   UNL     1      42.639   5.545  11.323  0.00  0.00    +0.000 C 
ATOM      8  C   UNL     1      44.011   4.869  11.283  0.00  0.00    +0.000 C 
BRANCH   8   9
ATOM      9  N   UNL     1      44.378   4.440   9.940  0.00  0.00    +0.000 N 
ATOM     10  C   UNL     1      44.878   3.179   9.703  0.00  0.00    +0.000 C 
ATOM     11  O   UNL     1      44.833   2.296  10.557  0.00  0.00    +0.000 OA
ATOM     12  H   UNL     1      44.643   5.166   9.273  0.00  0.00    +0.000 HD
BRANCH  10  13
ATOM     13  C   UNL     1      45.421   2.900   8.300  0.00  0.00    +0.000 C 
ATOM     14  C   UNL     1      45.994   1.472   8.287  0.00  0.00    +0.000 C 
ATOM     15  C   UNL     1      46.805   1.180   7.036  0.00  0.00    +0.000 C 
ATOM     16  C   UNL     1      47.931   2.188   6.939  0.00  0.00    +0.000 C 
ATOM     17  N   UNL     1      47.430   3.538   6.979  0.00  0.00    +0.000 N 
ATOM     18  C   UNL     1      46.404   3.946   7.785  0.00  0.00    +0.000 C 
ATOM     19  O   UNL     1      46.253   5.153   7.982  0.00  0.00    +0.000 OA
ATOM     20  H   UNL     1      48.050   4.291   6.703  0.00  0.00    +0.000 HD
ENDBRANCH  10  13
ENDBRANCH   8   9
ENDBRANCH   1   8
BRANCH   4  21
ATOM     21  C   UNL     1      47.833   8.408  13.958  0.00  0.00    +0.000 C 
BRANCH  21  22
ATOM     22  N   UNL     1      48.911   7.677  14.570  0.00  0.00    +0.000 N 
ATOM     23  C   UNL     1      49.369   8.015  15.817  0.00  0.00    +0.000 C 
ATOM     24  O   UNL     1      48.854   8.915  16.477  0.00  0.00    +0.000 OA
ATOM     25  H   UNL     1      49.487   7.106  13.960  0.00  0.00    +0.000 HD
BRANCH  23  26
ATOM     26  C   UNL     1      50.468   7.206  16.358  0.00  0.00    +0.000 A 
ATOM     27  C   UNL     1      50.260   6.441  17.498  0.00  0.00    +0.000 A 
ATOM     28  S   UNL     1      51.614   5.513  17.957  0.00  0.00    +0.000 S 
ATOM     29  C   UNL     1      52.546   6.142  16.680  0.00  0.00    +0.000 A 
ATOM     30  N   UNL     1      53.840   5.765  16.508  0.00  0.00    +0.000 NA
ATOM     31  C   UNL     1      54.439   6.346  15.523  0.00  0.00    +0.000 A 
ATOM     32  N   UNL     1      53.857   7.267  14.690  0.00  0.00    +0.000 N 
ATOM     33  C   UNL     1      52.543   7.658  14.807  0.00  0.00    +0.000 A 
ATOM     34  O   UNL     1      52.045   8.458  14.025  0.00  0.00    +0.000 OA
ATOM     35  C   UNL     1      51.829   7.038  15.906  0.00  0.00    +0.000 A 
ATOM     36  H   UNL     1      54.380   7.685  13.934  0.00  0.00    +0.000 HD
ENDBRANCH  23  26
ENDBRANCH  21  22
ENDBRANCH   4  21
TORSDOF 6
ENDMDL
MODEL 7
REMARK VINA RESULT:    -7.454      2.456      3.024
REMARK INTER + INTRA:         -11.408
REMARK INTER:                 -11.339
REMARK INTRA:                  -0.068
REMARK UNBOUND:                -1.338
REMARK  Name = 
REMARK  7 active torsions:
REMARK  status: ('A' for Active; 'I' for Inactive)
REMARK    1  A    between atoms: C_1  and  C_2
REMARK    2  A    between atoms: C_2  and  N_3
REMARK    3  A    between atoms: C_2  and  C_13
REMARK    4  A    between atoms: C_4  and  C_6
REMARK    5  A    between atoms: C_16  and  C_17
REMARK    6  A    between atoms: C_17  and  N_18
REMARK    7  A    between atoms: C_19  and  C_21
REMARK                            x       y       z     vdW  Elec       q    Type
REMARK                         _______ _______ _______ _____ _____    ______ ____
ROOT
ATOM      1  C   UNL     1      45.765   4.240  12.849  0.00  0.00    +0.000 A 
ATOM      2  C   UNL     1      46.348   3.757  14.034  0.00  0.00    +0.000 A 
ATOM      3  C   UNL     1      47.184   4.570  14.806  0.00  0.00    +0.000 A 
ATOM      4  C   UNL     1      47.453   5.886  14.413  0.00  0.00    +0.000 A 
ATOM      5  C   UNL     1      46.908   6.356  13.212  0.00  0.00    +0.000 A 
ATOM      6  C   UNL     1      46.059   5.548  12.449  0.00  0.00    +0.000 A 
ENDROOT
BRANCH   1   8
ATOM      7  C   UNL     1      43.441   4.097  11.956  0.00  0.00    +0.000 C 
ATOM      8  C   UNL     1      44.776   3.360  12.093  0.00  0.00    +0.000 C 
BRANCH   8   9
ATOM      9  N   UNL     1      45.301   2.920  10.807  0.00  0.00    +0.000 N 
ATOM     10  C   UNL     1      44.895   3.509   9.630  0.00  0.00    +0.000 C 
ATOM     11  O   UNL     1      44.253   4.558   9.622  0.00  0.00    +0.000 OA
ATOM     12  H   UNL     1      45.633   1.958  10.742  0.00  0.00    +0.000 HD
BRANCH  10  13
ATOM     13  C   UNL     1      45.347   2.843   8.330  0.00  0.00    +0.000 C 
ATOM     14  C   UNL     1      45.684   1.374   8.640  0.00  0.00    +0.000 C 
ATOM     15  C   UNL     1      46.402   0.685   7.492  0.00  0.00    +0.000 C 
ATOM     16  C   UNL     1      47.671   1.450   7.182  0.00  0.00    +0.000 C 
ATOM     17  N   UNL     1      47.393   2.839   6.916  0.00  0.00    +0.000 N 
ATOM     18  C   UNL     1      46.469   3.576   7.602  0.00  0.00    +0.000 C 
ATOM     19  O   UNL     1      46.518   4.804   7.524  0.00  0.00    +0.000 OA
ATOM     20  H   UNL     1      48.118   3.402   6.484  0.00  0.00    +0.000 HD
ENDBRANCH  10  13
ENDBRANCH   8   9
ENDBRANCH   1   8
BRANCH   4  21
ATOM     21  C   UNL     1      48.325   6.782  15.254  0.00  0.00    +0.000 C 
BRANCH  21  22
ATOM     22  N   UNL     1      49.463   6.074  15.779  0.00  0.00    +0.000 N 
ATOM     23  C   UNL     1      49.493   5.665  17.088  0.00  0.00    +0.000 C 
ATOM     24  O   UNL     1      48.544   5.843  17.846  0.00  0.00    +0.000 OA
ATOM     25  H   UNL     1      50.327   6.129  15.248  0.00  0.00    +0.000 HD
BRANCH  23  26
ATOM     26  C   UNL     1      50.695   4.945  17.526  0.00  0.00    +0.000 A 
ATOM     27  C   UNL     1      51.763   5.655  18.058  0.00  0.00    +0.000 A 
ATOM     28  S   UNL     1      53.053   4.666  18.576  0.00  0.00    +0.000 S 
ATOM     29  C   UNL     1      52.252   3.258  18.055  0.00  0.00    +0.000 A 
ATOM     30  N   UNL     1      52.830   2.035  18.192  0.00  0.00    +0.000 NA
ATOM     31  C   UNL     1      52.129   1.057  17.723  0.00  0.00    +0.000 A 
ATOM     32  N   UNL     1      50.897   1.193  17.135  0.00  0.00    +0.000 N 
ATOM     33  C   UNL     1      50.259   2.405  17.002  0.00  0.00    +0.000 A 
ATOM     34  O   UNL     1      49.145   2.486  16.503  0.00  0.00    +0.000 OA
ATOM     35  C   UNL     1      51.012   3.537  17.507  0.00  0.00    +0.000 A 
ATOM     36  H   UNL     1      50.396   0.387  16.791  0.00  0.00    +0.000 HD
ENDBRANCH  23  26
ENDBRANCH  21  22
ENDBRANCH   4  21
TORSDOF 6
ENDMDL
MODEL 8
REMARK VINA RESULT:    -7.305      3.298      9.474
REMARK INTER + INTRA:         -11.206
REMARK INTER:                  -9.729
REMARK INTRA:                  -1.477
REMARK UNBOUND:                -1.338
REMARK  Name = 
REMARK  7 active torsions:
REMARK  status: ('A' for Active; 'I' for Inactive)
REMARK    1  A    between atoms: C_1  and  C_2
REMARK    2  A    between atoms: C_2  and  N_3
REMARK    3  A    between atoms: C_2  and  C_13
REMARK    4  A    between atoms: C_4  and  C_6
REMARK    5  A    between atoms: C_16  and  C_17
REMARK    6  A    between atoms: C_17  and  N_18
REMARK    7  A    between atoms: C_19  and  C_21
REMARK                            x       y       z     vdW  Elec       q    Type
REMARK                         _______ _______ _______ _____ _____    ______ ____
ROOT
ATOM      1  C   UNL     1      50.169   7.285  15.348  0.00  0.00    +0.000 A 
ATOM      2  C   UNL     1      50.521   7.982  14.178  0.00  0.00    +0.000 A 
ATOM      3  C   UNL     1      49.623   8.097  13.113  0.00  0.00    +0.000 A 
ATOM      4  C   UNL     1      48.349   7.522  13.194  0.00  0.00    +0.000 A 
ATOM      5  C   UNL     1      48.011   6.793  14.340  0.00  0.00    +0.000 A 
ATOM      6  C   UNL     1      48.903   6.691  15.411  0.00  0.00    +0.000 A 
ENDROOT
BRANCH   1   8
ATOM      7  C   UNL     1      50.878   8.497  17.408  0.00  0.00    +0.000 C 
ATOM      8  C   UNL     1      51.135   7.272  16.526  0.00  0.00    +0.000 C 
BRANCH   8   9
ATOM      9  N   UNL     1      51.071   6.026  17.278  0.00  0.00    +0.000 N 
ATOM     10  C   UNL     1      52.165   5.195  17.378  0.00  0.00    +0.000 C 
ATOM     11  O   UNL     1      53.287   5.560  17.032  0.00  0.00    +0.000 OA
ATOM     12  H   UNL     1      50.156   5.586  17.379  0.00  0.00    +0.000 HD
BRANCH  10  13
ATOM     13  C   UNL     1      51.937   3.822  18.014  0.00  0.00    +0.000 C 
ATOM     14  C   UNL     1      53.274   3.060  17.992  0.00  0.00    +0.000 C 
ATOM     15  C   UNL     1      53.114   1.590  18.343  0.00  0.00    +0.000 C 
ATOM     16  C   UNL     1      52.145   0.959  17.365  0.00  0.00    +0.000 C 
ATOM     17  N   UNL     1      50.891   1.668  17.338  0.00  0.00    +0.000 N 
ATOM     18  C   UNL     1      50.784   3.029  17.405  0.00  0.00    +0.000 C 
ATOM     19  O   UNL     1      49.723   3.555  17.067  0.00  0.00    +0.000 OA
ATOM     20  H   UNL     1      50.094   1.222  16.897  0.00  0.00    +0.000 HD
ENDBRANCH  10  13
ENDBRANCH   8   9
ENDBRANCH   1   8
BRANCH   4  21
ATOM     21  C   UNL     1      47.361   7.669  12.067  0.00  0.00    +0.000 C 
BRANCH  21  22
ATOM     22  N   UNL     1      46.727   6.416  11.750  0.00  0.00    +0.000 N 
ATOM     23  C   UNL     1      45.363   6.287  11.797  0.00  0.00    +0.000 C 
ATOM     24  O   UNL     1      44.630   7.236  12.064  0.00  0.00    +0.000 OA
ATOM     25  H   UNL     1      47.312   5.586  11.762  0.00  0.00    +0.000 HD
BRANCH  23  26
ATOM     26  C   UNL     1      44.812   4.971  11.451  0.00  0.00    +0.000 A 
ATOM     27  C   UNL     1      44.095   4.257  12.402  0.00  0.00    +0.000 A 
ATOM     28  S   UNL     1      43.472   2.780  11.822  0.00  0.00    +0.000 S 
ATOM     29  C   UNL     1      44.184   3.016  10.295  0.00  0.00    +0.000 A 
ATOM     30  N   UNL     1      44.049   2.090   9.310  0.00  0.00    +0.000 NA
ATOM     31  C   UNL     1      44.669   2.380   8.215  0.00  0.00    +0.000 A 
ATOM     32  N   UNL     1      45.409   3.517   8.016  0.00  0.00    +0.000 N 
ATOM     33  C   UNL     1      45.550   4.496   8.972  0.00  0.00    +0.000 A 
ATOM     34  O   UNL     1      46.190   5.516   8.749  0.00  0.00    +0.000 OA
ATOM     35  C   UNL     1      44.877   4.213  10.225  0.00  0.00    +0.000 A 
ATOM     36  H   UNL     1      45.869   3.687   7.133  0.00  0.00    +0.000 HD
ENDBRANCH  23  26
ENDBRANCH  21  22
ENDBRANCH   4  21
TORSDOF 6
ENDMDL
MODEL 9
REMARK VINA RESULT:    -7.200      3.173      4.902
REMARK INTER + INTRA:         -11.064
REMARK INTER:                  -9.798
REMARK INTRA:                  -1.267
REMARK UNBOUND:                -1.338
REMARK  Name = 
REMARK  7 active torsions:
REMARK  status: ('A' for Active; 'I' for Inactive)
REMARK    1  A    between atoms: C_1  and  C_2
REMARK    2  A    between atoms: C_2  and  N_3
REMARK    3  A    between atoms: C_2  and  C_13
REMARK    4  A    between atoms: C_4  and  C_6
REMARK    5  A    between atoms: C_16  and  C_17
REMARK    6  A    between atoms: C_17  and  N_18
REMARK    7  A    between atoms: C_19  and  C_21
REMARK                            x       y       z     vdW  Elec       q    Type
REMARK                         _______ _______ _______ _____ _____    ______ ____
ROOT
ATOM      1  C   UNL     1      48.022   7.901  13.871  0.00  0.00    +0.000 A 
ATOM      2  C   UNL     1      47.945   9.039  14.694  0.00  0.00    +0.000 A 
ATOM      3  C   UNL     1      48.394   9.000  16.017  0.00  0.00    +0.000 A 
ATOM      4  C   UNL     1      48.936   7.823  16.548  0.00  0.00    +0.000 A 
ATOM      5  C   UNL     1      48.976   6.678  15.745  0.00  0.00    +0.000 A 
ATOM      6  C   UNL     1      48.541   6.721  14.417  0.00  0.00    +0.000 A 
ENDROOT
BRANCH   1   8
ATOM      7  C   UNL     1      48.771   8.637  11.609  0.00  0.00    +0.000 C 
ATOM      8  C   UNL     1      47.621   8.013  12.406  0.00  0.00    +0.000 C 
BRANCH   8   9
ATOM      9  N   UNL     1      47.194   6.736  11.851  0.00  0.00    +0.000 N 
ATOM     10  C   UNL     1      45.891   6.306  11.968  0.00  0.00    +0.000 C 
ATOM     11  O   UNL     1      44.994   7.059  12.343  0.00  0.00    +0.000 OA
ATOM     12  H   UNL     1      47.903   6.010  11.745  0.00  0.00    +0.000 HD
BRANCH  10  13
ATOM     13  C   UNL     1      45.593   4.869  11.535  0.00  0.00    +0.000 C 
ATOM     14  C   UNL     1      44.325   4.889  10.663  0.00  0.00    +0.000 C 
ATOM     15  C   UNL     1      43.775   3.497  10.401  0.00  0.00    +0.000 C 
ATOM     16  C   UNL     1      43.477   2.834  11.729  0.00  0.00    +0.000 C 
ATOM     17  N   UNL     1      44.637   2.826  12.583  0.00  0.00    +0.000 N 
ATOM     18  C   UNL     1      45.517   3.868  12.682  0.00  0.00    +0.000 C 
ATOM     19  O   UNL     1      46.284   3.902  13.645  0.00  0.00    +0.000 OA
ATOM     20  H   UNL     1      44.632   2.223  13.399  0.00  0.00    +0.000 HD
ENDBRANCH  10  13
ENDBRANCH   8   9
ENDBRANCH   1   8
BRANCH   4  21
ATOM     21  C   UNL     1      49.454   7.779  17.962  0.00  0.00    +0.000 C 
BRANCH  21  22
ATOM     22  N   UNL     1      50.480   6.782  18.120  0.00  0.00    +0.000 N 
ATOM     23  C   UNL     1      50.218   5.601  18.765  0.00  0.00    +0.000 C 
ATOM     24  O   UNL     1      49.098   5.327  19.189  0.00  0.00    +0.000 OA
ATOM     25  H   UNL     1      51.442   7.084  17.992  0.00  0.00    +0.000 HD
BRANCH  23  26
ATOM     26  C   UNL     1      51.329   4.646  18.870  0.00  0.00    +0.000 A 
ATOM     27  C   UNL     1      52.443   4.972  19.632  0.00  0.00    +0.000 A 
ATOM     28  S   UNL     1      53.611   3.733  19.702  0.00  0.00    +0.000 S 
ATOM     29  C   UNL     1      52.695   2.737  18.670  0.00  0.00    +0.000 A 
ATOM     30  N   UNL     1      53.146   1.509  18.304  0.00  0.00    +0.000 NA
ATOM     31  C   UNL     1      52.368   0.875  17.490  0.00  0.00    +0.000 A 
ATOM     32  N   UNL     1      51.176   1.359  17.016  0.00  0.00    +0.000 N 
ATOM     33  C   UNL     1      50.664   2.582  17.382  0.00  0.00    +0.000 A 
ATOM     34  O   UNL     1      49.580   2.970  16.965  0.00  0.00    +0.000 OA
ATOM     35  C   UNL     1      51.507   3.337  18.289  0.00  0.00    +0.000 A 
ATOM     36  H   UNL     1      50.611   0.812  16.382  0.00  0.00    +0.000 HD
ENDBRANCH  23  26
ENDBRANCH  21  22
ENDBRANCH   4  21
TORSDOF 6
ENDMDL
