MODEL 1
REMARK VINA RESULT:    -7.338      0.000      0.000
REMARK INTER + INTRA:         -11.437
REMARK INTER:                 -10.340
REMARK INTRA:                  -1.097
REMARK UNBOUND:                -1.097
REMARK  Name = 
REMARK  8 active torsions:
REMARK  status: ('A' for Active; 'I' for Inactive)
REMARK    1  A    between atoms: C_1  and  O_2
REMARK    2  A    between atoms: O_2  and  C_3
REMARK    3  A    between atoms: C_8  and  N_9
REMARK    4  A    between atoms: N_9  and  C_10
REMARK    5  A    between atoms: C_10  and  C_11
REMARK    6  A    between atoms: C_14  and  C_15
REMARK    7  A    between atoms: C_15  and  N_16
REMARK    8  A    between atoms: C_17  and  C_19
REMARK                            x       y       z     vdW  Elec       q    Type
REMARK                         _______ _______ _______ _____ _____    ______ ____
ROOT
ATOM      1  C   UNL     1      45.204   6.050  12.154  0.00  0.00    +0.000 A 
ATOM      2  C   UNL     1      45.886   7.195  11.719  0.00  0.00    +0.000 A 
ATOM      3  C   UNL     1      47.135   7.525  12.250  0.00  0.00    +0.000 A 
ATOM      4  C   UNL     1      47.741   6.702  13.207  0.00  0.00    +0.000 A 
ATOM      5  C   UNL     1      47.063   5.551  13.634  0.00  0.00    +0.000 A 
ATOM      6  C   UNL     1      45.811   5.221  13.106  0.00  0.00    +0.000 A 
ENDROOT
BRANCH   1   7
ATOM      7  C   UNL     1      43.793   5.782  11.680  0.00  0.00    +0.000 C 
BRANCH   7   8
ATOM      8  N   UNL     1      43.725   5.511  10.252  0.00  0.00    +0.000 N 
ATOM      9  H   UNL     1      43.871   6.341   9.683  0.00  0.00    +0.000 HD
BRANCH   8  15
ATOM     10  C   UNL     1      44.141   3.028  10.040  0.00  0.00    +0.000 A 
ATOM     11  C   UNL     1      44.839   1.999   9.387  0.00  0.00    +0.000 A 
ATOM     12  C   UNL     1      45.788   2.289   8.411  0.00  0.00    +0.000 A 
ATOM     13  C   UNL     1      46.036   3.611   8.065  0.00  0.00    +0.000 A 
ATOM     14  C   UNL     1      45.347   4.642   8.711  0.00  0.00    +0.000 A 
ATOM     15  C   UNL     1      44.403   4.387   9.727  0.00  0.00    +0.000 A 
BRANCH  10  17
ATOM     16  C   UNL     1      43.582   2.469  12.296  0.00  0.00    +0.000 C 
ATOM     17  O   UNL     1      43.167   2.750  10.968  0.00  0.00    +0.000 OA
ENDBRANCH  10  17
ENDBRANCH   8  15
ENDBRANCH   7   8
ENDBRANCH   1   7
BRANCH   4  18
ATOM     18  C   UNL     1      49.080   7.056  13.799  0.00  0.00    +0.000 C 
BRANCH  18  19
ATOM     19  N   UNL     1      49.075   6.935  15.234  0.00  0.00    +0.000 N 
ATOM     20  C   UNL     1      50.245   6.968  15.950  0.00  0.00    +0.000 C 
ATOM     21  O   UNL     1      51.334   7.139  15.410  0.00  0.00    +0.000 OA
ATOM     22  H   UNL     1      48.236   6.559  15.666  0.00  0.00    +0.000 HD
BRANCH  20  23
ATOM     23  C   UNL     1      50.129   6.847  17.410  0.00  0.00    +0.000 A 
ATOM     24  C   UNL     1      50.677   7.827  18.227  0.00  0.00    +0.000 A 
ATOM     25  S   UNL     1      50.424   7.553  19.890  0.00  0.00    +0.000 S 
ATOM     26  C   UNL     1      49.613   6.090  19.581  0.00  0.00    +0.000 A 
ATOM     27  N   UNL     1      49.151   5.318  20.601  0.00  0.00    +0.000 NA
ATOM     28  C   UNL     1      48.581   4.222  20.224  0.00  0.00    +0.000 A 
ATOM     29  N   UNL     1      48.425   3.832  18.918  0.00  0.00    +0.000 N 
ATOM     30  C   UNL     1      48.849   4.590  17.853  0.00  0.00    +0.000 A 
ATOM     31  O   UNL     1      48.655   4.234  16.700  0.00  0.00    +0.000 OA
ATOM     32  C   UNL     1      49.515   5.828  18.225  0.00  0.00    +0.000 A 
ATOM     33  H   UNL     1      47.958   2.967  18.690  0.00  0.00    +0.000 HD
ENDBRANCH  20  23
ENDBRANCH  18  19
ENDBRANCH   4  18
TORSDOF 7
ENDMDL
MODEL 2
REMARK VINA RESULT:    -7.332      4.902      9.598
REMARK INTER + INTRA:         -11.430
REMARK INTER:                 -10.501
REMARK INTRA:                  -0.929
REMARK UNBOUND:                -1.097
REMARK  Name = 
REMARK  8 active torsions:
REMARK  status: ('A' for Active; 'I' for Inactive)
REMARK    1  A    between atoms: C_1  and  O_2
REMARK    2  A    between atoms: O_2  and  C_3
REMARK    3  A    between atoms: C_8  and  N_9
REMARK    4  A    between atoms: N_9  and  C_10
REMARK    5  A    between atoms: C_10  and  C_11
REMARK    6  A    between atoms: C_14  and  C_15
REMARK    7  A    between atoms: C_15  and  N_16
REMARK    8  A    between atoms: C_17  and  C_19
REMARK                            x       y       z     vdW  Elec       q    Type
REMARK                         _______ _______ _______ _____ _____    ______ ____
ROOT
ATOM      1  C   UNL     1      51.609   2.895  17.772  0.00  0.00    +0.000 A 
ATOM      2  C   UNL     1      50.821   1.903  17.170  0.00  0.00    +0.000 A 
ATOM      3  C   UNL     1      49.456   2.108  16.958  0.00  0.00    +0.000 A 
ATOM      4  C   UNL     1      48.855   3.322  17.318  0.00  0.00    +0.000 A 
ATOM      5  C   UNL     1      49.646   4.317  17.909  0.00  0.00    +0.000 A 
ATOM      6  C   UNL     1      51.012   4.112  18.125  0.00  0.00    +0.000 A 
ENDROOT
BRANCH   1   7
ATOM      7  C   UNL     1      53.050   2.607  18.127  0.00  0.00    +0.000 C 
BRANCH   7   8
ATOM      8  N   UNL     1      53.231   1.283  18.702  0.00  0.00    +0.000 N 
ATOM      9  H   UNL     1      52.360   0.866  19.019  0.00  0.00    +0.000 HD
BRANCH   8  15
ATOM     10  C   UNL     1      54.283  -0.999  18.431  0.00  0.00    +0.000 A 
ATOM     11  C   UNL     1      55.062  -1.853  17.633  0.00  0.00    +0.000 A 
ATOM     12  C   UNL     1      55.609  -1.406  16.434  0.00  0.00    +0.000 A 
ATOM     13  C   UNL     1      55.368  -0.106  16.011  0.00  0.00    +0.000 A 
ATOM     14  C   UNL     1      54.595   0.752  16.799  0.00  0.00    +0.000 A 
ATOM     15  C   UNL     1      54.052   0.344  18.035  0.00  0.00    +0.000 A 
BRANCH  10  17
ATOM     16  C   UNL     1      53.092  -2.729  19.572  0.00  0.00    +0.000 C 
ATOM     17  O   UNL     1      53.698  -1.445  19.591  0.00  0.00    +0.000 OA
ENDBRANCH  10  17
ENDBRANCH   8  15
ENDBRANCH   7   8
ENDBRANCH   1   7
BRANCH   4  18
ATOM     18  C   UNL     1      47.380   3.548  17.109  0.00  0.00    +0.000 C 
BRANCH  18  19
ATOM     19  N   UNL     1      47.135   4.550  16.104  0.00  0.00    +0.000 N 
ATOM     20  C   UNL     1      47.156   4.233  14.769  0.00  0.00    +0.000 C 
ATOM     21  O   UNL     1      47.345   3.086  14.376  0.00  0.00    +0.000 OA
ATOM     22  H   UNL     1      47.217   5.522  16.387  0.00  0.00    +0.000 HD
BRANCH  20  23
ATOM     23  C   UNL     1      46.882   5.327  13.827  0.00  0.00    +0.000 A 
ATOM     24  C   UNL     1      47.825   6.328  13.642  0.00  0.00    +0.000 A 
ATOM     25  S   UNL     1      47.366   7.498  12.491  0.00  0.00    +0.000 S 
ATOM     26  C   UNL     1      45.868   6.735  12.234  0.00  0.00    +0.000 A 
ATOM     27  N   UNL     1      44.957   7.257  11.368  0.00  0.00    +0.000 NA
ATOM     28  C   UNL     1      43.853   6.592  11.291  0.00  0.00    +0.000 A 
ATOM     29  N   UNL     1      43.580   5.448  11.996  0.00  0.00    +0.000 N 
ATOM     30  C   UNL     1      44.477   4.867  12.860  0.00  0.00    +0.000 A 
ATOM     31  O   UNL     1      44.219   3.822  13.440  0.00  0.00    +0.000 OA
ATOM     32  C   UNL     1      45.732   5.588  12.997  0.00  0.00    +0.000 A 
ATOM     33  H   UNL     1      42.700   4.968  11.881  0.00  0.00    +0.000 HD
ENDBRANCH  20  23
ENDBRANCH  18  19
ENDBRANCH   4  18
TORSDOF 7
ENDMDL
MODEL 3
REMARK VINA RESULT:    -7.278      3.390      8.278
REMARK INTER + INTRA:         -11.354
REMARK INTER:                 -10.147
REMARK INTRA:                  -1.207
REMARK UNBOUND:                -1.097
REMARK  Name = 
REMARK  8 active torsions:
REMARK  status: ('A' for Active; 'I' for Inactive)
REMARK    1  A    between atoms: C_1  and  O_2
REMARK    2  A    between atoms: O_2  and  C_3
REMARK    3  A    between atoms: C_8  and  N_9
REMARK    4  A    between atoms: N_9  and  C_10
REMARK    5  A    between atoms: C_10  and  C_11
REMARK    6  A    between atoms: C_14  and  C_15
REMARK    7  A    between atoms: C_15  and  N_16
REMARK    8  A    between atoms: C_17  and  C_19
REMARK                            x       y       z     vdW  Elec       q    Type
REMARK                         _______ _______ _______ _____ _____    ______ ____
ROOT
ATOM      1  C   UNL     1      50.247   6.960  15.809  0.00  0.00    +0.000 A 
ATOM      2  C   UNL     1      50.924   7.711  14.837  0.00  0.00    +0.000 A 
ATOM      3  C   UNL     1      50.291   8.067  13.644  0.00  0.00    +0.000 A 
ATOM      4  C   UNL     1      48.958   7.704  13.410  0.00  0.00    +0.000 A 
ATOM      5  C   UNL     1      48.279   6.963  14.387  0.00  0.00    +0.000 A 
ATOM      6  C   UNL     1      48.912   6.603  15.581  0.00  0.00    +0.000 A 
ENDROOT
BRANCH   1   7
ATOM      7  C   UNL     1      50.986   6.457  17.029  0.00  0.00    +0.000 C 
BRANCH   7   8
ATOM      8  N   UNL     1      50.241   5.439  17.755  0.00  0.00    +0.000 N 
ATOM      9  H   UNL     1      49.235   5.529  17.643  0.00  0.00    +0.000 HD
BRANCH   8  15
ATOM     10  C   UNL     1      49.938   3.017  17.100  0.00  0.00    +0.000 A 
ATOM     11  C   UNL     1      50.505   1.734  17.025  0.00  0.00    +0.000 A 
ATOM     12  C   UNL     1      51.789   1.494  17.504  0.00  0.00    +0.000 A 
ATOM     13  C   UNL     1      52.527   2.537  18.047  0.00  0.00    +0.000 A 
ATOM     14  C   UNL     1      51.970   3.817  18.127  0.00  0.00    +0.000 A 
ATOM     15  C   UNL     1      50.661   4.091  17.682  0.00  0.00    +0.000 A 
BRANCH  10  17
ATOM     16  C   UNL     1      47.571   3.074  17.434  0.00  0.00    +0.000 C 
ATOM     17  O   UNL     1      48.691   3.276  16.585  0.00  0.00    +0.000 OA
ENDBRANCH  10  17
ENDBRANCH   8  15
ENDBRANCH   7   8
ENDBRANCH   1   7
BRANCH   4  18
ATOM     18  C   UNL     1      48.270   8.069  12.120  0.00  0.00    +0.000 C 
BRANCH  18  19
ATOM     19  N   UNL     1      47.590   6.939  11.543  0.00  0.00    +0.000 N 
ATOM     20  C   UNL     1      46.222   6.917  11.434  0.00  0.00    +0.000 C 
ATOM     21  O   UNL     1      45.527   7.867  11.782  0.00  0.00    +0.000 OA
ATOM     22  H   UNL     1      48.109   6.068  11.475  0.00  0.00    +0.000 HD
BRANCH  20  23
ATOM     23  C   UNL     1      45.628   5.722  10.820  0.00  0.00    +0.000 A 
ATOM     24  C   UNL     1      45.788   5.495   9.461  0.00  0.00    +0.000 A 
ATOM     25  S   UNL     1      45.067   4.049   8.917  0.00  0.00    +0.000 S 
ATOM     26  C   UNL     1      44.474   3.697  10.472  0.00  0.00    +0.000 A 
ATOM     27  N   UNL     1      43.724   2.586  10.699  0.00  0.00    +0.000 NA
ATOM     28  C   UNL     1      43.316   2.457  11.917  0.00  0.00    +0.000 A 
ATOM     29  N   UNL     1      43.597   3.337  12.931  0.00  0.00    +0.000 N 
ATOM     30  C   UNL     1      44.373   4.458  12.758  0.00  0.00    +0.000 A 
ATOM     31  O   UNL     1      44.641   5.198  13.694  0.00  0.00    +0.000 OA
ATOM     32  C   UNL     1      44.844   4.658  11.398  0.00  0.00    +0.000 A 
ATOM     33  H   UNL     1      43.257   3.172  13.867  0.00  0.00    +0.000 HD
ENDBRANCH  20  23
ENDBRANCH  18  19
ENDBRANCH   4  18
TORSDOF 7
ENDMDL
MODEL 4
REMARK VINA RESULT:    -7.082      1.616      2.381
REMARK INTER + INTRA:         -11.077
REMARK INTER:                 -10.601
REMARK INTRA:                  -0.475
REMARK UNBOUND:                -1.097
REMARK  Name = 
REMARK  8 active torsions:
REMARK  status: ('A' for Active; 'I' for Inactive)
REMARK    1  A    between atoms: C_1  and  O_2
REMARK    2  A    between atoms: O_2  and  C_3
REMARK    3  A    between atoms: C_8  and  N_9
REMARK    4  A    between atoms: N_9  and  C_10
REMARK    5  A    between atoms: C_10  and  C_11
REMARK    6  A    between atoms: C_14  and  C_15
REMARK    7  A    between atoms: C_15  and  N_16
REMARK    8  A    between atoms: C_17  and  C_19
REMARK                            x       y       z     vdW  Elec       q    Type
REMARK                         _______ _______ _______ _____ _____    ______ ____
ROOT
ATOM      1  C   UNL     1      44.952   4.518  11.355  0.00  0.00    +0.000 A 
ATOM      2  C   UNL     1      45.563   4.099  12.545  0.00  0.00    +0.000 A 
ATOM      3  C   UNL     1      46.483   4.919  13.201  0.00  0.00    +0.000 A 
ATOM      4  C   UNL     1      46.791   6.189  12.695  0.00  0.00    +0.000 A 
ATOM      5  C   UNL     1      46.171   6.612  11.510  0.00  0.00    +0.000 A 
ATOM      6  C   UNL     1      45.252   5.790  10.851  0.00  0.00    +0.000 A 
ENDROOT
BRANCH   1   7
ATOM      7  C   UNL     1      44.070   3.565  10.579  0.00  0.00    +0.000 C 
BRANCH   7   8
ATOM      8  N   UNL     1      44.817   2.462   9.993  0.00  0.00    +0.000 N 
ATOM      9  H   UNL     1      44.269   1.609   9.915  0.00  0.00    +0.000 HD
BRANCH   8  15
ATOM     10  C   UNL     1      46.204   1.700   8.023  0.00  0.00    +0.000 A 
ATOM     11  C   UNL     1      46.895   2.061   6.855  0.00  0.00    +0.000 A 
ATOM     12  C   UNL     1      46.988   3.394   6.466  0.00  0.00    +0.000 A 
ATOM     13  C   UNL     1      46.377   4.378   7.231  0.00  0.00    +0.000 A 
ATOM     14  C   UNL     1      45.688   4.028   8.396  0.00  0.00    +0.000 A 
ATOM     15  C   UNL     1      45.600   2.692   8.839  0.00  0.00    +0.000 A 
BRANCH  10  17
ATOM     16  C   UNL     1      46.775  -0.590   7.638  0.00  0.00    +0.000 C 
ATOM     17  O   UNL     1      46.063   0.383   8.389  0.00  0.00    +0.000 OA
ENDBRANCH  10  17
ENDBRANCH   8  15
ENDBRANCH   7   8
ENDBRANCH   1   7
BRANCH   4  18
ATOM     18  C   UNL     1      47.794   7.076  13.385  0.00  0.00    +0.000 C 
BRANCH  18  19
ATOM     19  N   UNL     1      47.903   6.762  14.787  0.00  0.00    +0.000 N 
ATOM     20  C   UNL     1      49.115   6.808  15.429  0.00  0.00    +0.000 C 
ATOM     21  O   UNL     1      50.143   7.153  14.854  0.00  0.00    +0.000 OA
ATOM     22  H   UNL     1      47.133   6.254  15.211  0.00  0.00    +0.000 HD
BRANCH  20  23
ATOM     23  C   UNL     1      49.116   6.481  16.861  0.00  0.00    +0.000 A 
ATOM     24  C   UNL     1      49.517   7.436  17.784  0.00  0.00    +0.000 A 
ATOM     25  S   UNL     1      49.426   6.907  19.402  0.00  0.00    +0.000 S 
ATOM     26  C   UNL     1      48.891   5.365  18.924  0.00  0.00    +0.000 A 
ATOM     27  N   UNL     1      48.649   4.393  19.844  0.00  0.00    +0.000 NA
ATOM     28  C   UNL     1      48.277   3.264  19.341  0.00  0.00    +0.000 A 
ATOM     29  N   UNL     1      48.116   3.021  18.001  0.00  0.00    +0.000 N 
ATOM     30  C   UNL     1      48.321   3.978  17.036  0.00  0.00    +0.000 A 
ATOM     31  O   UNL     1      48.126   3.741  15.852  0.00  0.00    +0.000 OA
ATOM     32  C   UNL     1      48.760   5.265  17.550  0.00  0.00    +0.000 A 
ATOM     33  H   UNL     1      47.810   2.117  17.672  0.00  0.00    +0.000 HD
ENDBRANCH  20  23
ENDBRANCH  18  19
ENDBRANCH   4  18
TORSDOF 7
ENDMDL
MODEL 5
REMARK VINA RESULT:    -7.066      4.957      9.405
REMARK INTER + INTRA:         -11.054
REMARK INTER:                  -9.810
REMARK INTRA:                  -1.245
REMARK UNBOUND:                -1.097
REMARK  Name = 
REMARK  8 active torsions:
REMARK  status: ('A' for Active; 'I' for Inactive)
REMARK    1  A    between atoms: C_1  and  O_2
REMARK    2  A    between atoms: O_2  and  C_3
REMARK    3  A    between atoms: C_8  and  N_9
REMARK    4  A    between atoms: N_9  and  C_10
REMARK    5  A    between atoms: C_10  and  C_11
REMARK    6  A    between atoms: C_14  and  C_15
REMARK    7  A    between atoms: C_15  and  N_16
REMARK    8  A    between atoms: C_17  and  C_19
REMARK                            x       y       z     vdW  Elec       q    Type
REMARK                         _______ _______ _______ _____ _____    ______ ____
ROOT
ATOM      1  C   UNL     1      51.517   3.028  17.761  0.00  0.00    +0.000 A 
ATOM      2  C   UNL     1      50.749   1.986  17.224  0.00  0.00    +0.000 A 
ATOM      3  C   UNL     1      49.390   2.166  16.956  0.00  0.00    +0.000 A 
ATOM      4  C   UNL     1      48.777   3.404  17.194  0.00  0.00    +0.000 A 
ATOM      5  C   UNL     1      49.549   4.449  17.721  0.00  0.00    +0.000 A 
ATOM      6  C   UNL     1      50.908   4.268  17.993  0.00  0.00    +0.000 A 
ENDROOT
BRANCH   1   7
ATOM      7  C   UNL     1      52.948   2.777  18.181  0.00  0.00    +0.000 C 
BRANCH   7   8
ATOM      8  N   UNL     1      53.154   1.430  18.690  0.00  0.00    +0.000 N 
ATOM      9  H   UNL     1      52.288   0.971  18.961  0.00  0.00    +0.000 HD
BRANCH   8  15
ATOM     10  C   UNL     1      54.198  -0.831  18.260  0.00  0.00    +0.000 A 
ATOM     11  C   UNL     1      55.036  -1.609  17.444  0.00  0.00    +0.000 A 
ATOM     12  C   UNL     1      55.694  -1.044  16.355  0.00  0.00    +0.000 A 
ATOM     13  C   UNL     1      55.508   0.299  16.060  0.00  0.00    +0.000 A 
ATOM     14  C   UNL     1      54.677   1.082  16.868  0.00  0.00    +0.000 A 
ATOM     15  C   UNL     1      54.020   0.553  17.997  0.00  0.00    +0.000 A 
BRANCH  10  17
ATOM     16  C   UNL     1      53.548  -2.801  19.447  0.00  0.00    +0.000 C 
ATOM     17  O   UNL     1      53.505  -1.389  19.306  0.00  0.00    +0.000 OA
ENDBRANCH  10  17
ENDBRANCH   8  15
ENDBRANCH   7   8
ENDBRANCH   1   7
BRANCH   4  18
ATOM     18  C   UNL     1      47.309   3.605  16.924  0.00  0.00    +0.000 C 
BRANCH  18  19
ATOM     19  N   UNL     1      47.088   4.612  15.918  0.00  0.00    +0.000 N 
ATOM     20  C   UNL     1      47.064   4.287  14.586  0.00  0.00    +0.000 C 
ATOM     21  O   UNL     1      47.189   3.129  14.196  0.00  0.00    +0.000 OA
ATOM     22  H   UNL     1      47.222   5.581  16.193  0.00  0.00    +0.000 HD
BRANCH  20  23
ATOM     23  C   UNL     1      46.820   5.386  13.642  0.00  0.00    +0.000 A 
ATOM     24  C   UNL     1      45.713   5.342  12.806  0.00  0.00    +0.000 A 
ATOM     25  S   UNL     1      45.559   6.709  11.800  0.00  0.00    +0.000 S 
ATOM     26  C   UNL     1      46.993   7.388  12.412  0.00  0.00    +0.000 A 
ATOM     27  N   UNL     1      47.462   8.575  11.939  0.00  0.00    +0.000 NA
ATOM     28  C   UNL     1      48.573   8.958  12.472  0.00  0.00    +0.000 A 
ATOM     29  N   UNL     1      49.255   8.266  13.440  0.00  0.00    +0.000 N 
ATOM     30  C   UNL     1      48.808   7.079  13.969  0.00  0.00    +0.000 A 
ATOM     31  O   UNL     1      49.418   6.510  14.863  0.00  0.00    +0.000 OA
ATOM     32  C   UNL     1      47.567   6.594  13.390  0.00  0.00    +0.000 A 
ATOM     33  H   UNL     1      50.115   8.628  13.824  0.00  0.00    +0.000 HD
ENDBRANCH  20  23
ENDBRANCH  18  19
ENDBRANCH   4  18
TORSDOF 7
ENDMDL
MODEL 6
REMARK VINA RESULT:    -6.950      3.081      4.128
REMARK INTER + INTRA:         -10.891
REMARK INTER:                  -9.969
REMARK INTRA:                  -0.922
REMARK UNBOUND:                -1.097
REMARK  Name = 
REMARK  8 active torsions:
REMARK  status: ('A' for Active; 'I' for Inactive)
REMARK    1  A    between atoms: C_1  and  O_2
REMARK    2  A    between atoms: O_2  and  C_3
REMARK    3  A    between atoms: C_8  and  N_9
REMARK    4  A    between atoms: N_9  and  C_10
REMARK    5  A    between atoms: C_10  and  C_11
REMARK    6  A    between atoms: C_14  and  C_15
REMARK    7  A    between atoms: C_15  and  N_16
REMARK    8  A    between atoms: C_17  and  C_19
REMARK                            x       y       z     vdW  Elec       q    Type
REMARK                         _______ _______ _______ _____ _____    ______ ____
ROOT
ATOM      1  C   UNL     1      47.406   5.921  13.508  0.00  0.00    +0.000 A 
ATOM      2  C   UNL     1      46.733   4.694  13.588  0.00  0.00    +0.000 A 
ATOM      3  C   UNL     1      46.791   3.923  14.751  0.00  0.00    +0.000 A 
ATOM      4  C   UNL     1      47.501   4.378  15.871  0.00  0.00    +0.000 A 
ATOM      5  C   UNL     1      48.164   5.611  15.794  0.00  0.00    +0.000 A 
ATOM      6  C   UNL     1      48.110   6.382  14.629  0.00  0.00    +0.000 A 
ENDROOT
BRANCH   1   7
ATOM      7  C   UNL     1      47.456   6.676  12.199  0.00  0.00    +0.000 C 
BRANCH   7   8
ATOM      8  N   UNL     1      46.132   6.941  11.655  0.00  0.00    +0.000 N 
ATOM      9  H   UNL     1      46.053   7.863  11.235  0.00  0.00    +0.000 HD
BRANCH   8  15
ATOM     10  C   UNL     1      44.214   5.384  11.124  0.00  0.00    +0.000 A 
ATOM     11  C   UNL     1      43.657   4.460  10.225  0.00  0.00    +0.000 A 
ATOM     12  C   UNL     1      44.339   4.093   9.067  0.00  0.00    +0.000 A 
ATOM     13  C   UNL     1      45.575   4.660   8.788  0.00  0.00    +0.000 A 
ATOM     14  C   UNL     1      46.137   5.580   9.679  0.00  0.00    +0.000 A 
ATOM     15  C   UNL     1      45.492   5.951  10.876  0.00  0.00    +0.000 A 
BRANCH  10  17
ATOM     16  C   UNL     1      43.025   4.785  13.110  0.00  0.00    +0.000 C 
ATOM     17  O   UNL     1      43.528   5.790  12.243  0.00  0.00    +0.000 OA
ENDBRANCH  10  17
ENDBRANCH   8  15
ENDBRANCH   7   8
ENDBRANCH   1   7
BRANCH   4  18
ATOM     18  C   UNL     1      47.583   3.548  17.125  0.00  0.00    +0.000 C 
BRANCH  18  19
ATOM     19  N   UNL     1      48.949   3.336  17.532  0.00  0.00    +0.000 N 
ATOM     20  C   UNL     1      49.734   2.397  16.911  0.00  0.00    +0.000 C 
ATOM     21  O   UNL     1      49.325   1.729  15.965  0.00  0.00    +0.000 OA
ATOM     22  H   UNL     1      49.224   3.692  18.442  0.00  0.00    +0.000 HD
BRANCH  20  23
ATOM     23  C   UNL     1      51.115   2.267  17.394  0.00  0.00    +0.000 A 
ATOM     24  C   UNL     1      51.665   1.006  17.576  0.00  0.00    +0.000 A 
ATOM     25  S   UNL     1      53.284   1.034  18.108  0.00  0.00    +0.000 S 
ATOM     26  C   UNL     1      53.294   2.734  18.159  0.00  0.00    +0.000 A 
ATOM     27  N   UNL     1      54.398   3.414  18.572  0.00  0.00    +0.000 NA
ATOM     28  C   UNL     1      54.258   4.697  18.589  0.00  0.00    +0.000 A 
ATOM     29  N   UNL     1      53.115   5.363  18.223  0.00  0.00    +0.000 N 
ATOM     30  C   UNL     1      51.986   4.722  17.773  0.00  0.00    +0.000 A 
ATOM     31  O   UNL     1      50.999   5.348  17.412  0.00  0.00    +0.000 OA
ATOM     32  C   UNL     1      52.086   3.273  17.751  0.00  0.00    +0.000 A 
ATOM     33  H   UNL     1      53.075   6.371  18.248  0.00  0.00    +0.000 HD
ENDBRANCH  20  23
ENDBRANCH  18  19
ENDBRANCH   4  18
TORSDOF 7
ENDMDL
MODEL 7
REMARK VINA RESULT:    -6.943      3.007      8.537
REMARK INTER + INTRA:         -10.881
REMARK INTER:                  -9.253
REMARK INTRA:                  -1.628
REMARK UNBOUND:                -1.097
REMARK  Name = 
REMARK  8 active torsions:
REMARK  status: ('A' for Active; 'I' for Inactive)
REMARK    1  A    between atoms: C_1  and  O_2
REMARK    2  A    between atoms: O_2  and  C_3
REMARK    3  A    between atoms: C_8  and  N_9
REMARK    4  A    between atoms: N_9  and  C_10
REMARK    5  A    between atoms: C_10  and  C_11
REMARK    6  A    between atoms: C_14  and  C_15
REMARK    7  A    between atoms: C_15  and  N_16
REMARK    8  A    between atoms: C_17  and  C_19
REMARK                            x       y       z     vdW  Elec       q    Type
REMARK                         _______ _______ _______ _____ _____    ______ ____
ROOT
ATOM      1  C   UNL     1      49.615   7.949  15.906  0.00  0.00    +0.000 A 
ATOM      2  C   UNL     1      50.268   7.386  14.801  0.00  0.00    +0.000 A 
ATOM      3  C   UNL     1      49.653   7.356  13.548  0.00  0.00    +0.000 A 
ATOM      4  C   UNL     1      48.381   7.916  13.367  0.00  0.00    +0.000 A 
ATOM      5  C   UNL     1      47.732   8.488  14.470  0.00  0.00    +0.000 A 
ATOM      6  C   UNL     1      48.346   8.515  15.726  0.00  0.00    +0.000 A 
ENDROOT
BRANCH   1   7
ATOM      7  C   UNL     1      50.229   7.845  17.284  0.00  0.00    +0.000 C 
BRANCH   7   8
ATOM      8  N   UNL     1      49.587   6.832  18.108  0.00  0.00    +0.000 N 
ATOM      9  H   UNL     1      48.580   6.951  18.170  0.00  0.00    +0.000 HD
BRANCH   8  15
ATOM     10  C   UNL     1      49.118   4.442  17.435  0.00  0.00    +0.000 A 
ATOM     11  C   UNL     1      49.626   3.146  17.249  0.00  0.00    +0.000 A 
ATOM     12  C   UNL     1      50.954   2.852  17.544  0.00  0.00    +0.000 A 
ATOM     13  C   UNL     1      51.793   3.855  18.011  0.00  0.00    +0.000 A 
ATOM     14  C   UNL     1      51.295   5.148  18.200  0.00  0.00    +0.000 A 
ATOM     15  C   UNL     1      49.948   5.475  17.944  0.00  0.00    +0.000 A 
BRANCH  10  17
ATOM     16  C   UNL     1      47.486   4.782  15.721  0.00  0.00    +0.000 C 
ATOM     17  O   UNL     1      47.822   4.754  17.100  0.00  0.00    +0.000 OA
ENDBRANCH  10  17
ENDBRANCH   8  15
ENDBRANCH   7   8
ENDBRANCH   1   7
BRANCH   4  18
ATOM     18  C   UNL     1      47.700   7.875  12.024  0.00  0.00    +0.000 C 
BRANCH  18  19
ATOM     19  N   UNL     1      46.983   6.641  11.829  0.00  0.00    +0.000 N 
ATOM     20  C   UNL     1      45.612   6.613  11.832  0.00  0.00    +0.000 C 
ATOM     21  O   UNL     1      44.940   7.632  11.960  0.00  0.00    +0.000 OA
ATOM     22  H   UNL     1      47.500   5.777  11.962  0.00  0.00    +0.000 HD
BRANCH  20  23
ATOM     23  C   UNL     1      44.978   5.305  11.613  0.00  0.00    +0.000 A 
ATOM     24  C   UNL     1      44.289   4.693  12.651  0.00  0.00    +0.000 A 
ATOM     25  S   UNL     1      43.587   3.200  12.221  0.00  0.00    +0.000 S 
ATOM     26  C   UNL     1      44.220   3.295  10.645  0.00  0.00    +0.000 A 
ATOM     27  N   UNL     1      44.011   2.296   9.746  0.00  0.00    +0.000 NA
ATOM     28  C   UNL     1      44.571   2.485   8.599  0.00  0.00    +0.000 A 
ATOM     29  N   UNL     1      45.316   3.588   8.265  0.00  0.00    +0.000 N 
ATOM     30  C   UNL     1      45.531   4.636   9.128  0.00  0.00    +0.000 A 
ATOM     31  O   UNL     1      46.163   5.624   8.785  0.00  0.00    +0.000 OA
ATOM     32  C   UNL     1      44.935   4.463  10.443  0.00  0.00    +0.000 A 
ATOM     33  H   UNL     1      45.718   3.681   7.345  0.00  0.00    +0.000 HD
ENDBRANCH  20  23
ENDBRANCH  18  19
ENDBRANCH   4  18
TORSDOF 7
ENDMDL
MODEL 8
REMARK VINA RESULT:    -6.942      2.647      3.273
REMARK INTER + INTRA:         -10.880
REMARK INTER:                 -10.134
REMARK INTRA:                  -0.746
REMARK UNBOUND:                -1.097
REMARK  Name = 
REMARK  8 active torsions:
REMARK  status: ('A' for Active; 'I' for Inactive)
REMARK    1  A    between atoms: C_1  and  O_2
REMARK    2  A    between atoms: O_2  and  C_3
REMARK    3  A    between atoms: C_8  and  N_9
REMARK    4  A    between atoms: N_9  and  C_10
REMARK    5  A    between atoms: C_10  and  C_11
REMARK    6  A    between atoms: C_14  and  C_15
REMARK    7  A    between atoms: C_15  and  N_16
REMARK    8  A    between atoms: C_17  and  C_19
REMARK                            x       y       z     vdW  Elec       q    Type
REMARK                         _______ _______ _______ _____ _____    ______ ____
ROOT
ATOM      1  C   UNL     1      46.500   6.043  12.319  0.00  0.00    +0.000 A 
ATOM      2  C   UNL     1      45.690   5.012  12.818  0.00  0.00    +0.000 A 
ATOM      3  C   UNL     1      45.955   4.438  14.064  0.00  0.00    +0.000 A 
ATOM      4  C   UNL     1      47.018   4.903  14.849  0.00  0.00    +0.000 A 
ATOM      5  C   UNL     1      47.820   5.941  14.354  0.00  0.00    +0.000 A 
ATOM      6  C   UNL     1      47.558   6.514  13.106  0.00  0.00    +0.000 A 
ENDROOT
BRANCH   1   7
ATOM      7  C   UNL     1      46.292   6.556  10.912  0.00  0.00    +0.000 C 
BRANCH   7   8
ATOM      8  N   UNL     1      45.094   6.012  10.289  0.00  0.00    +0.000 N 
ATOM      9  H   UNL     1      44.552   6.715   9.793  0.00  0.00    +0.000 HD
BRANCH   8  15
ATOM     10  C   UNL     1      44.365   3.654   9.746  0.00  0.00    +0.000 A 
ATOM     11  C   UNL     1      44.503   2.541   8.901  0.00  0.00    +0.000 A 
ATOM     12  C   UNL     1      45.426   2.547   7.859  0.00  0.00    +0.000 A 
ATOM     13  C   UNL     1      46.209   3.672   7.640  0.00  0.00    +0.000 A 
ATOM     14  C   UNL     1      46.080   4.785   8.477  0.00  0.00    +0.000 A 
ATOM     15  C   UNL     1      45.179   4.803   9.562  0.00  0.00    +0.000 A 
BRANCH  10  17
ATOM     16  C   UNL     1      43.296   2.523  11.560  0.00  0.00    +0.000 C 
ATOM     17  O   UNL     1      43.423   3.678  10.745  0.00  0.00    +0.000 OA
ENDBRANCH  10  17
ENDBRANCH   8  15
ENDBRANCH   7   8
ENDBRANCH   1   7
BRANCH   4  18
ATOM     18  C   UNL     1      47.323   4.280  16.187  0.00  0.00    +0.000 C 
BRANCH  18  19
ATOM     19  N   UNL     1      48.721   4.391  16.518  0.00  0.00    +0.000 N 
ATOM     20  C   UNL     1      49.214   3.870  17.687  0.00  0.00    +0.000 C 
ATOM     21  O   UNL     1      48.501   3.259  18.479  0.00  0.00    +0.000 OA
ATOM     22  H   UNL     1      49.265   5.083  16.011  0.00  0.00    +0.000 HD
BRANCH  20  23
ATOM     23  C   UNL     1      50.655   4.026  17.923  0.00  0.00    +0.000 A 
ATOM     24  C   UNL     1      51.162   5.267  18.284  0.00  0.00    +0.000 A 
ATOM     25  S   UNL     1      52.845   5.268  18.553  0.00  0.00    +0.000 S 
ATOM     26  C   UNL     1      52.965   3.619  18.151  0.00  0.00    +0.000 A 
ATOM     27  N   UNL     1      54.169   2.985  18.149  0.00  0.00    +0.000 NA
ATOM     28  C   UNL     1      54.117   1.745  17.798  0.00  0.00    +0.000 A 
ATOM     29  N   UNL     1      52.968   1.077  17.454  0.00  0.00    +0.000 N 
ATOM     30  C   UNL     1      51.727   1.666  17.468  0.00  0.00    +0.000 A 
ATOM     31  O   UNL     1      50.717   1.031  17.199  0.00  0.00    +0.000 OA
ATOM     32  C   UNL     1      51.732   3.071  17.841  0.00  0.00    +0.000 A 
ATOM     33  H   UNL     1      52.995   0.101  17.200  0.00  0.00    +0.000 HD
ENDBRANCH  20  23
ENDBRANCH  18  19
ENDBRANCH   4  18
TORSDOF 7
ENDMDL
MODEL 9
REMARK VINA RESULT:    -6.464      1.244      2.158
REMARK INTER + INTRA:         -10.206
REMARK INTER:                  -9.015
REMARK INTRA:                  -1.191
REMARK UNBOUND:                -1.097
REMARK  Name = 
REMARK  8 active torsions:
REMARK  status: ('A' for Active; 'I' for Inactive)
REMARK    1  A    between atoms: C_1  and  O_2
REMARK    2  A    between atoms: O_2  and  C_3
REMARK    3  A    between atoms: C_8  and  N_9
REMARK    4  A    between atoms: N_9  and  C_10
REMARK    5  A    between atoms: C_10  and  C_11
REMARK    6  A    between atoms: C_14  and  C_15
REMARK    7  A    between atoms: C_15  and  N_16
REMARK    8  A    between atoms: C_17  and  C_19
REMARK                            x       y       z     vdW  Elec       q    Type
REMARK                         _______ _______ _______ _____ _____    ______ ____
ROOT
ATOM      1  C   UNL     1      46.260   7.042  12.270  0.00  0.00    +0.000 A 
ATOM      2  C   UNL     1      46.755   6.042  13.120  0.00  0.00    +0.000 A 
ATOM      3  C   UNL     1      47.975   6.208  13.779  0.00  0.00    +0.000 A 
ATOM      4  C   UNL     1      48.712   7.389  13.626  0.00  0.00    +0.000 A 
ATOM      5  C   UNL     1      48.211   8.393  12.785  0.00  0.00    +0.000 A 
ATOM      6  C   UNL     1      46.992   8.227  12.121  0.00  0.00    +0.000 A 
ENDROOT
BRANCH   1   7
ATOM      7  C   UNL     1      45.014   6.792  11.451  0.00  0.00    +0.000 C 
BRANCH   7   8
ATOM      8  N   UNL     1      45.302   6.166  10.169  0.00  0.00    +0.000 N 
ATOM      9  H   UNL     1      46.244   6.356   9.838  0.00  0.00    +0.000 HD
BRANCH   8  15
ATOM     10  C   UNL     1      45.298   4.011   8.849  0.00  0.00    +0.000 A 
ATOM     11  C   UNL     1      44.927   2.657   8.799  0.00  0.00    +0.000 A 
ATOM     12  C   UNL     1      44.210   2.076   9.841  0.00  0.00    +0.000 A 
ATOM     13  C   UNL     1      43.872   2.838  10.952  0.00  0.00    +0.000 A 
ATOM     14  C   UNL     1      44.235   4.187  11.009  0.00  0.00    +0.000 A 
ATOM     15  C   UNL     1      44.933   4.818   9.959  0.00  0.00    +0.000 A 
BRANCH  10  17
ATOM     16  C   UNL     1      46.777   3.712   6.994  0.00  0.00    +0.000 C 
ATOM     17  O   UNL     1      46.048   4.581   7.849  0.00  0.00    +0.000 OA
ENDBRANCH  10  17
ENDBRANCH   8  15
ENDBRANCH   7   8
ENDBRANCH   1   7
BRANCH   4  18
ATOM     18  C   UNL     1      50.036   7.572  14.320  0.00  0.00    +0.000 C 
BRANCH  18  19
ATOM     19  N   UNL     1      49.939   7.293  15.730  0.00  0.00    +0.000 N 
ATOM     20  C   UNL     1      51.022   6.834  16.436  0.00  0.00    +0.000 C 
ATOM     21  O   UNL     1      52.122   6.678  15.912  0.00  0.00    +0.000 OA
ATOM     22  H   UNL     1      49.008   7.184  16.119  0.00  0.00    +0.000 HD
BRANCH  20  23
ATOM     23  C   UNL     1      50.820   6.591  17.871  0.00  0.00    +0.000 A 
ATOM     24  C   UNL     1      51.546   7.322  18.801  0.00  0.00    +0.000 A 
ATOM     25  S   UNL     1      51.166   6.942  20.418  0.00  0.00    +0.000 S 
ATOM     26  C   UNL     1      50.051   5.752  19.934  0.00  0.00    +0.000 A 
ATOM     27  N   UNL     1      49.380   5.008  20.854  0.00  0.00    +0.000 NA
ATOM     28  C   UNL     1      48.588   4.123  20.347  0.00  0.00    +0.000 A 
ATOM     29  N   UNL     1      48.400   3.920  19.003  0.00  0.00    +0.000 N 
ATOM     30  C   UNL     1      49.033   4.665  18.037  0.00  0.00    +0.000 A 
ATOM     31  O   UNL     1      48.811   4.488  16.848  0.00  0.00    +0.000 OA
ATOM     32  C   UNL     1      49.952   5.665  18.556  0.00  0.00    +0.000 A 
ATOM     33  H   UNL     1      47.756   3.218  18.672  0.00  0.00    +0.000 HD
ENDBRANCH  20  23
ENDBRANCH  18  19
ENDBRANCH   4  18
TORSDOF 7
ENDMDL
