MODEL 1
REMARK VINA RESULT:    -8.792      0.000      0.000
REMARK INTER + INTRA:         -14.034
REMARK INTER:                 -12.904
REMARK INTRA:                  -1.130
REMARK UNBOUND:                -1.130
REMARK  Name = 
REMARK  9 active torsions:
REMARK  status: ('A' for Active; 'I' for Inactive)
REMARK    1  A    between atoms: C_1  and  C_2
REMARK    2  A    between atoms: C_2  and  C_3
REMARK    3  A    between atoms: C_2  and  C_17
REMARK    4  A    between atoms: C_3  and  N_4
REMARK    5  A    between atoms: C_5  and  C_7
REMARK    6  A    between atoms: C_20  and  C_21
REMARK    7  A    between atoms: C_21  and  N_22
REMARK    8  A    between atoms: N_22  and  C_23
REMARK    9  A    between atoms: C_23  and  C_24
REMARK                            x       y       z     vdW  Elec       q    Type
REMARK                         _______ _______ _______ _____ _____    ______ ____
ROOT
ATOM      1  C   UNL     1      48.789   7.840  12.770  0.00  0.00    +0.000 C 
ATOM      2  C   UNL     1      48.337   6.506  13.401  0.00  0.00    +0.000 C 
ENDROOT
BRANCH   2   3
ATOM      3  C   UNL     1      47.048   5.950  12.779  0.00  0.00    +0.000 A 
ATOM      4  C   UNL     1      46.610   6.351  11.507  0.00  0.00    +0.000 A 
ATOM      5  C   UNL     1      45.459   5.807  10.927  0.00  0.00    +0.000 A 
ATOM      6  C   UNL     1      44.718   4.824  11.591  0.00  0.00    +0.000 A 
ATOM      7  C   UNL     1      45.149   4.403  12.848  0.00  0.00    +0.000 A 
ATOM      8  C   UNL     1      46.298   4.948  13.423  0.00  0.00    +0.000 A 
BRANCH   6   9
ATOM      9  C   UNL     1      43.491   4.217  10.955  0.00  0.00    +0.000 C 
BRANCH   9  10
ATOM     10  N   UNL     1      43.807   3.720   9.621  0.00  0.00    +0.000 NA
ATOM     11  H   UNL     1      44.360   4.422   9.128  0.00  0.00    +0.000 HD
BRANCH  10  12
ATOM     12  C   UNL     1      44.594   2.482   9.693  0.00  0.00    +0.000 C 
BRANCH  12  13
ATOM     13  C   UNL     1      45.582   2.376   8.547  0.00  0.00    +0.000 A 
ATOM     14  C   UNL     1      45.862   3.494   7.760  0.00  0.00    +0.000 A 
ATOM     15  C   UNL     1      46.789   3.377   6.731  0.00  0.00    +0.000 A 
ATOM     16  C   UNL     1      47.408   2.152   6.511  0.00  0.00    +0.000 A 
ATOM     17  C   UNL     1      47.070   1.091   7.335  0.00  0.00    +0.000 A 
ATOM     18  N   UNL     1      46.176   1.176   8.345  0.00  0.00    +0.000 NA
ENDBRANCH  12  13
ENDBRANCH  10  12
ENDBRANCH   9  10
ENDBRANCH   6   9
ENDBRANCH   2   3
BRANCH   2  19
ATOM     19  C   UNL     1      48.224   6.690  14.937  0.00  0.00    +0.000 C 
BRANCH  19  20
ATOM     20  N   UNL     1      49.308   6.093  15.684  0.00  0.00    +0.000 N 
ATOM     21  C   UNL     1      49.086   5.160  16.666  0.00  0.00    +0.000 C 
ATOM     22  O   UNL     1      47.964   4.735  16.927  0.00  0.00    +0.000 OA
ATOM     23  H   UNL     1      50.214   6.544  15.619  0.00  0.00    +0.000 HD
BRANCH  21  24
ATOM     24  C   UNL     1      50.274   4.650  17.351  0.00  0.00    +0.000 A 
ATOM     25  C   UNL     1      51.075   5.520  18.076  0.00  0.00    +0.000 A 
ATOM     26  S   UNL     1      52.385   4.753  18.853  0.00  0.00    +0.000 S 
ATOM     27  C   UNL     1      51.957   3.240  18.200  0.00  0.00    +0.000 A 
ATOM     28  N   UNL     1      52.699   2.132  18.461  0.00  0.00    +0.000 NA
ATOM     29  C   UNL     1      52.285   1.061  17.869  0.00  0.00    +0.000 A 
ATOM     30  N   UNL     1      51.191   0.997  17.047  0.00  0.00    +0.000 N 
ATOM     31  C   UNL     1      50.381   2.080  16.793  0.00  0.00    +0.000 A 
ATOM     32  O   UNL     1      49.361   1.967  16.122  0.00  0.00    +0.000 OA
ATOM     33  C   UNL     1      50.820   3.314  17.417  0.00  0.00    +0.000 A 
ATOM     34  H   UNL     1      50.910   0.123  16.627  0.00  0.00    +0.000 HD
ENDBRANCH  21  24
ENDBRANCH  19  20
ENDBRANCH   2  19
TORSDOF 8
ENDMDL
MODEL 2
REMARK VINA RESULT:    -8.380      2.125      2.641
REMARK INTER + INTRA:         -13.428
REMARK INTER:                 -11.987
REMARK INTRA:                  -1.441
REMARK UNBOUND:                -1.130
REMARK  Name = 
REMARK  9 active torsions:
REMARK  status: ('A' for Active; 'I' for Inactive)
REMARK    1  A    between atoms: C_1  and  C_2
REMARK    2  A    between atoms: C_2  and  C_3
REMARK    3  A    between atoms: C_2  and  C_17
REMARK    4  A    between atoms: C_3  and  N_4
REMARK    5  A    between atoms: C_5  and  C_7
REMARK    6  A    between atoms: C_20  and  C_21
REMARK    7  A    between atoms: C_21  and  N_22
REMARK    8  A    between atoms: N_22  and  C_23
REMARK    9  A    between atoms: C_23  and  C_24
REMARK                            x       y       z     vdW  Elec       q    Type
REMARK                         _______ _______ _______ _____ _____    ______ ____
ROOT
ATOM      1  C   UNL     1      48.777   7.973  11.597  0.00  0.00    +0.000 C 
ATOM      2  C   UNL     1      48.104   7.195  12.748  0.00  0.00    +0.000 C 
ENDROOT
BRANCH   2   3
ATOM      3  C   UNL     1      46.968   6.277  12.274  0.00  0.00    +0.000 A 
ATOM      4  C   UNL     1      46.423   5.288  13.108  0.00  0.00    +0.000 A 
ATOM      5  C   UNL     1      45.359   4.484  12.687  0.00  0.00    +0.000 A 
ATOM      6  C   UNL     1      44.786   4.658  11.423  0.00  0.00    +0.000 A 
ATOM      7  C   UNL     1      45.305   5.647  10.588  0.00  0.00    +0.000 A 
ATOM      8  C   UNL     1      46.367   6.447  11.012  0.00  0.00    +0.000 A 
BRANCH   6   9
ATOM      9  C   UNL     1      43.620   3.810  10.976  0.00  0.00    +0.000 C 
BRANCH   9  10
ATOM     10  N   UNL     1      43.810   3.376   9.597  0.00  0.00    +0.000 NA
ATOM     11  H   UNL     1      44.324   4.098   9.090  0.00  0.00    +0.000 HD
BRANCH  10  12
ATOM     12  C   UNL     1      44.586   2.132   9.539  0.00  0.00    +0.000 C 
BRANCH  12  13
ATOM     13  C   UNL     1      45.620   2.165   8.429  0.00  0.00    +0.000 A 
ATOM     14  C   UNL     1      45.830   3.339   7.705  0.00  0.00    +0.000 A 
ATOM     15  C   UNL     1      46.801   3.350   6.710  0.00  0.00    +0.000 A 
ATOM     16  C   UNL     1      47.530   2.194   6.460  0.00  0.00    +0.000 A 
ATOM     17  C   UNL     1      47.256   1.070   7.221  0.00  0.00    +0.000 A 
ATOM     18  N   UNL     1      46.322   1.030   8.198  0.00  0.00    +0.000 NA
ENDBRANCH  12  13
ENDBRANCH  10  12
ENDBRANCH   9  10
ENDBRANCH   6   9
ENDBRANCH   2   3
BRANCH   2  19
ATOM     19  C   UNL     1      47.638   8.205  13.831  0.00  0.00    +0.000 C 
BRANCH  19  20
ATOM     20  N   UNL     1      47.869   7.763  15.187  0.00  0.00    +0.000 N 
ATOM     21  C   UNL     1      49.050   8.011  15.841  0.00  0.00    +0.000 C 
ATOM     22  O   UNL     1      49.954   8.671  15.336  0.00  0.00    +0.000 OA
ATOM     23  H   UNL     1      47.225   7.074  15.562  0.00  0.00    +0.000 HD
BRANCH  21  24
ATOM     24  C   UNL     1      49.152   7.494  17.206  0.00  0.00    +0.000 A 
ATOM     25  C   UNL     1      49.526   8.345  18.237  0.00  0.00    +0.000 A 
ATOM     26  S   UNL     1      49.543   7.594  19.767  0.00  0.00    +0.000 S 
ATOM     27  C   UNL     1      49.105   6.092  19.097  0.00  0.00    +0.000 A 
ATOM     28  N   UNL     1      48.967   4.991  19.881  0.00  0.00    +0.000 NA
ATOM     29  C   UNL     1      48.672   3.911  19.237  0.00  0.00    +0.000 A 
ATOM     30  N   UNL     1      48.495   3.835  17.880  0.00  0.00    +0.000 N 
ATOM     31  C   UNL     1      48.574   4.931  17.052  0.00  0.00    +0.000 A 
ATOM     32  O   UNL     1      48.324   4.843  15.855  0.00  0.00    +0.000 OA
ATOM     33  C   UNL     1      48.928   6.165  17.727  0.00  0.00    +0.000 A 
ATOM     34  H   UNL     1      48.248   2.961  17.439  0.00  0.00    +0.000 HD
ENDBRANCH  21  24
ENDBRANCH  19  20
ENDBRANCH   2  19
TORSDOF 8
ENDMDL
MODEL 3
REMARK VINA RESULT:    -7.590      2.247      2.842
REMARK INTER + INTRA:         -12.269
REMARK INTER:                 -10.813
REMARK INTRA:                  -1.456
REMARK UNBOUND:                -1.130
REMARK  Name = 
REMARK  9 active torsions:
REMARK  status: ('A' for Active; 'I' for Inactive)
REMARK    1  A    between atoms: C_1  and  C_2
REMARK    2  A    between atoms: C_2  and  C_3
REMARK    3  A    between atoms: C_2  and  C_17
REMARK    4  A    between atoms: C_3  and  N_4
REMARK    5  A    between atoms: C_5  and  C_7
REMARK    6  A    between atoms: C_20  and  C_21
REMARK    7  A    between atoms: C_21  and  N_22
REMARK    8  A    between atoms: N_22  and  C_23
REMARK    9  A    between atoms: C_23  and  C_24
REMARK                            x       y       z     vdW  Elec       q    Type
REMARK                         _______ _______ _______ _____ _____    ______ ____
ROOT
ATOM      1  C   UNL     1      49.816   9.933  12.482  0.00  0.00    +0.000 C 
ATOM      2  C   UNL     1      49.324   8.740  13.329  0.00  0.00    +0.000 C 
ENDROOT
BRANCH   2   3
ATOM      3  C   UNL     1      48.006   8.141  12.820  0.00  0.00    +0.000 A 
ATOM      4  C   UNL     1      47.984   7.066  11.917  0.00  0.00    +0.000 A 
ATOM      5  C   UNL     1      46.780   6.495  11.492  0.00  0.00    +0.000 A 
ATOM      6  C   UNL     1      45.554   6.964  11.974  0.00  0.00    +0.000 A 
ATOM      7  C   UNL     1      45.559   8.021  12.885  0.00  0.00    +0.000 A 
ATOM      8  C   UNL     1      46.762   8.588  13.306  0.00  0.00    +0.000 A 
BRANCH   6   9
ATOM      9  C   UNL     1      44.255   6.332  11.538  0.00  0.00    +0.000 C 
BRANCH   9  10
ATOM     10  N   UNL     1      44.428   4.895  11.359  0.00  0.00    +0.000 NA
ATOM     11  H   UNL     1      44.001   4.409  12.148  0.00  0.00    +0.000 HD
BRANCH  10  12
ATOM     12  C   UNL     1      43.773   4.435  10.128  0.00  0.00    +0.000 C 
BRANCH  12  13
ATOM     13  C   UNL     1      44.732   3.678   9.229  0.00  0.00    +0.000 A 
ATOM     14  C   UNL     1      45.530   4.372   8.318  0.00  0.00    +0.000 A 
ATOM     15  C   UNL     1      46.419   3.657   7.523  0.00  0.00    +0.000 A 
ATOM     16  C   UNL     1      46.485   2.274   7.653  0.00  0.00    +0.000 A 
ATOM     17  C   UNL     1      45.655   1.663   8.578  0.00  0.00    +0.000 A 
ATOM     18  N   UNL     1      44.784   2.332   9.367  0.00  0.00    +0.000 NA
ENDBRANCH  12  13
ENDBRANCH  10  12
ENDBRANCH   9  10
ENDBRANCH   6   9
ENDBRANCH   2   3
BRANCH   2  19
ATOM     19  C   UNL     1      49.243   9.178  14.815  0.00  0.00    +0.000 C 
BRANCH  19  20
ATOM     20  N   UNL     1      49.123   8.081  15.748  0.00  0.00    +0.000 N 
ATOM     21  C   UNL     1      50.165   7.223  15.998  0.00  0.00    +0.000 C 
ATOM     22  O   UNL     1      51.274   7.371  15.490  0.00  0.00    +0.000 OA
ATOM     23  H   UNL     1      48.186   7.828  16.043  0.00  0.00    +0.000 HD
BRANCH  21  24
ATOM     24  C   UNL     1      49.900   6.149  16.955  0.00  0.00    +0.000 A 
ATOM     25  C   UNL     1      50.680   6.039  18.098  0.00  0.00    +0.000 A 
ATOM     26  S   UNL     1      50.203   4.768  19.129  0.00  0.00    +0.000 S 
ATOM     27  C   UNL     1      48.972   4.286  18.056  0.00  0.00    +0.000 A 
ATOM     28  N   UNL     1      48.182   3.217  18.335  0.00  0.00    +0.000 NA
ATOM     29  C   UNL     1      47.318   2.938  17.416  0.00  0.00    +0.000 A 
ATOM     30  N   UNL     1      47.167   3.638  16.247  0.00  0.00    +0.000 N 
ATOM     31  C   UNL     1      47.909   4.756  15.944  0.00  0.00    +0.000 A 
ATOM     32  O   UNL     1      47.689   5.408  14.930  0.00  0.00    +0.000 OA
ATOM     33  C   UNL     1      48.912   5.095  16.935  0.00  0.00    +0.000 A 
ATOM     34  H   UNL     1      46.460   3.377  15.576  0.00  0.00    +0.000 HD
ENDBRANCH  21  24
ENDBRANCH  19  20
ENDBRANCH   2  19
TORSDOF 8
ENDMDL
MODEL 4
REMARK VINA RESULT:    -7.537      3.009      4.571
REMARK INTER + INTRA:         -12.191
REMARK INTER:                 -11.131
REMARK INTRA:                  -1.060
REMARK UNBOUND:                -1.130
REMARK  Name = 
REMARK  9 active torsions:
REMARK  status: ('A' for Active; 'I' for Inactive)
REMARK    1  A    between atoms: C_1  and  C_2
REMARK    2  A    between atoms: C_2  and  C_3
REMARK    3  A    between atoms: C_2  and  C_17
REMARK    4  A    between atoms: C_3  and  N_4
REMARK    5  A    between atoms: C_5  and  C_7
REMARK    6  A    between atoms: C_20  and  C_21
REMARK    7  A    between atoms: C_21  and  N_22
REMARK    8  A    between atoms: N_22  and  C_23
REMARK    9  A    between atoms: C_23  and  C_24
REMARK                            x       y       z     vdW  Elec       q    Type
REMARK                         _______ _______ _______ _____ _____    ______ ____
ROOT
ATOM      1  C   UNL     1      47.684   8.333  14.171  0.00  0.00    +0.000 C 
ATOM      2  C   UNL     1      48.053   6.933  13.636  0.00  0.00    +0.000 C 
ENDROOT
BRANCH   2   3
ATOM      3  C   UNL     1      46.908   6.259  12.868  0.00  0.00    +0.000 A 
ATOM      4  C   UNL     1      46.163   5.208  13.426  0.00  0.00    +0.000 A 
ATOM      5  C   UNL     1      45.092   4.628  12.739  0.00  0.00    +0.000 A 
ATOM      6  C   UNL     1      44.713   5.094  11.476  0.00  0.00    +0.000 A 
ATOM      7  C   UNL     1      45.433   6.148  10.914  0.00  0.00    +0.000 A 
ATOM      8  C   UNL     1      46.501   6.724  11.603  0.00  0.00    +0.000 A 
BRANCH   6   9
ATOM      9  C   UNL     1      43.541   4.487  10.744  0.00  0.00    +0.000 C 
BRANCH   9  10
ATOM     10  N   UNL     1      43.968   3.966   9.451  0.00  0.00    +0.000 NA
ATOM     11  H   UNL     1      44.640   4.614   9.038  0.00  0.00    +0.000 HD
BRANCH  10  12
ATOM     12  C   UNL     1      44.621   2.659   9.600  0.00  0.00    +0.000 C 
BRANCH  12  13
ATOM     13  C   UNL     1      45.587   2.381   8.464  0.00  0.00    +0.000 A 
ATOM     14  C   UNL     1      45.923   3.396   7.568  0.00  0.00    +0.000 A 
ATOM     15  C   UNL     1      46.830   3.121   6.550  0.00  0.00    +0.000 A 
ATOM     16  C   UNL     1      47.371   1.844   6.450  0.00  0.00    +0.000 A 
ATOM     17  C   UNL     1      46.981   0.893   7.378  0.00  0.00    +0.000 A 
ATOM     18  N   UNL     1      46.106   1.132   8.380  0.00  0.00    +0.000 NA
ENDBRANCH  12  13
ENDBRANCH  10  12
ENDBRANCH   9  10
ENDBRANCH   6   9
ENDBRANCH   2   3
BRANCH   2  19
ATOM     19  C   UNL     1      48.569   6.065  14.814  0.00  0.00    +0.000 C 
BRANCH  19  20
ATOM     20  N   UNL     1      48.131   6.516  16.116  0.00  0.00    +0.000 N 
ATOM     21  C   UNL     1      49.016   6.753  17.138  0.00  0.00    +0.000 C 
ATOM     22  O   UNL     1      50.231   6.653  16.992  0.00  0.00    +0.000 OA
ATOM     23  H   UNL     1      47.141   6.437  16.320  0.00  0.00    +0.000 HD
BRANCH  21  24
ATOM     24  C   UNL     1      48.433   7.193  18.406  0.00  0.00    +0.000 A 
ATOM     25  C   UNL     1      48.254   6.277  19.434  0.00  0.00    +0.000 A 
ATOM     26  S   UNL     1      47.614   6.966  20.856  0.00  0.00    +0.000 S 
ATOM     27  C   UNL     1      47.503   8.501  20.128  0.00  0.00    +0.000 A 
ATOM     28  N   UNL     1      47.002   9.563  20.812  0.00  0.00    +0.000 NA
ATOM     29  C   UNL     1      46.937  10.656  20.126  0.00  0.00    +0.000 A 
ATOM     30  N   UNL     1      47.335  10.784  18.821  0.00  0.00    +0.000 N 
ATOM     31  C   UNL     1      47.894   9.751  18.104  0.00  0.00    +0.000 A 
ATOM     32  O   UNL     1      48.318   9.923  16.967  0.00  0.00    +0.000 OA
ATOM     33  C   UNL     1      47.966   8.494  18.825  0.00  0.00    +0.000 A 
ATOM     34  H   UNL     1      47.272  11.672  18.346  0.00  0.00    +0.000 HD
ENDBRANCH  21  24
ENDBRANCH  19  20
ENDBRANCH   2  19
TORSDOF 8
ENDMDL
MODEL 5
REMARK VINA RESULT:    -7.378      4.280      5.210
REMARK INTER + INTRA:         -11.958
REMARK INTER:                 -10.568
REMARK INTRA:                  -1.390
REMARK UNBOUND:                -1.130
REMARK  Name = 
REMARK  9 active torsions:
REMARK  status: ('A' for Active; 'I' for Inactive)
REMARK    1  A    between atoms: C_1  and  C_2
REMARK    2  A    between atoms: C_2  and  C_3
REMARK    3  A    between atoms: C_2  and  C_17
REMARK    4  A    between atoms: C_3  and  N_4
REMARK    5  A    between atoms: C_5  and  C_7
REMARK    6  A    between atoms: C_20  and  C_21
REMARK    7  A    between atoms: C_21  and  N_22
REMARK    8  A    between atoms: N_22  and  C_23
REMARK    9  A    between atoms: C_23  and  C_24
REMARK                            x       y       z     vdW  Elec       q    Type
REMARK                         _______ _______ _______ _____ _____    ______ ____
ROOT
ATOM      1  C   UNL     1      48.786   6.757  14.017  0.00  0.00    +0.000 C 
ATOM      2  C   UNL     1      47.859   7.264  12.892  0.00  0.00    +0.000 C 
ENDROOT
BRANCH   2   3
ATOM      3  C   UNL     1      46.838   6.216  12.431  0.00  0.00    +0.000 A 
ATOM      4  C   UNL     1      46.375   5.208  13.292  0.00  0.00    +0.000 A 
ATOM      5  C   UNL     1      45.411   4.283  12.880  0.00  0.00    +0.000 A 
ATOM      6  C   UNL     1      44.857   4.347  11.597  0.00  0.00    +0.000 A 
ATOM      7  C   UNL     1      45.293   5.353  10.735  0.00  0.00    +0.000 A 
ATOM      8  C   UNL     1      46.256   6.274  11.150  0.00  0.00    +0.000 A 
BRANCH   6   9
ATOM      9  C   UNL     1      43.796   3.367  11.160  0.00  0.00    +0.000 C 
BRANCH   9  10
ATOM     10  N   UNL     1      43.832   3.197   9.712  0.00  0.00    +0.000 NA
ATOM     11  H   UNL     1      44.385   3.952   9.303  0.00  0.00    +0.000 HD
BRANCH  10  12
ATOM     12  C   UNL     1      44.458   1.920   9.347  0.00  0.00    +0.000 C 
BRANCH  12  13
ATOM     13  C   UNL     1      45.596   2.112   8.363  0.00  0.00    +0.000 A 
ATOM     14  C   UNL     1      45.794   3.353   7.757  0.00  0.00    +0.000 A 
ATOM     15  C   UNL     1      46.860   3.509   6.878  0.00  0.00    +0.000 A 
ATOM     16  C   UNL     1      47.694   2.427   6.623  0.00  0.00    +0.000 A 
ATOM     17  C   UNL     1      47.425   1.228   7.263  0.00  0.00    +0.000 A 
ATOM     18  N   UNL     1      46.400   1.047   8.125  0.00  0.00    +0.000 NA
ENDBRANCH  12  13
ENDBRANCH  10  12
ENDBRANCH   9  10
ENDBRANCH   6   9
ENDBRANCH   2   3
BRANCH   2  19
ATOM     19  C   UNL     1      48.732   7.796  11.725  0.00  0.00    +0.000 C 
BRANCH  19  20
ATOM     20  N   UNL     1      50.155   7.665  11.945  0.00  0.00    +0.000 N 
ATOM     21  C   UNL     1      50.989   8.756  11.972  0.00  0.00    +0.000 C 
ATOM     22  O   UNL     1      50.570   9.906  11.870  0.00  0.00    +0.000 OA
ATOM     23  H   UNL     1      50.551   6.736  11.856  0.00  0.00    +0.000 HD
BRANCH  21  24
ATOM     24  C   UNL     1      52.408   8.476  12.191  0.00  0.00    +0.000 A 
ATOM     25  C   UNL     1      53.045   8.991  13.312  0.00  0.00    +0.000 A 
ATOM     26  S   UNL     1      54.680   8.525  13.441  0.00  0.00    +0.000 S 
ATOM     27  C   UNL     1      54.608   7.665  11.973  0.00  0.00    +0.000 A 
ATOM     28  N   UNL     1      55.704   7.031  11.481  0.00  0.00    +0.000 NA
ATOM     29  C   UNL     1      55.518   6.453  10.341  0.00  0.00    +0.000 A 
ATOM     30  N   UNL     1      54.334   6.446   9.652  0.00  0.00    +0.000 N 
ATOM     31  C   UNL     1      53.185   7.031  10.134  0.00  0.00    +0.000 A 
ATOM     32  O   UNL     1      52.121   6.931   9.532  0.00  0.00    +0.000 OA
ATOM     33  C   UNL     1      53.349   7.715  11.402  0.00  0.00    +0.000 A 
ATOM     34  H   UNL     1      54.250   5.961   8.771  0.00  0.00    +0.000 HD
ENDBRANCH  21  24
ENDBRANCH  19  20
ENDBRANCH   2  19
TORSDOF 8
ENDMDL
MODEL 6
REMARK VINA RESULT:    -7.336      3.789      8.576
REMARK INTER + INTRA:         -11.896
REMARK INTER:                 -10.213
REMARK INTRA:                  -1.684
REMARK UNBOUND:                -1.130
REMARK  Name = 
REMARK  9 active torsions:
REMARK  status: ('A' for Active; 'I' for Inactive)
REMARK    1  A    between atoms: C_1  and  C_2
REMARK    2  A    between atoms: C_2  and  C_3
REMARK    3  A    between atoms: C_2  and  C_17
REMARK    4  A    between atoms: C_3  and  N_4
REMARK    5  A    between atoms: C_5  and  C_7
REMARK    6  A    between atoms: C_20  and  C_21
REMARK    7  A    between atoms: C_21  and  N_22
REMARK    8  A    between atoms: N_22  and  C_23
REMARK    9  A    between atoms: C_23  and  C_24
REMARK                            x       y       z     vdW  Elec       q    Type
REMARK                         _______ _______ _______ _____ _____    ______ ____
ROOT
ATOM      1  C   UNL     1      49.702   7.397  11.643  0.00  0.00    +0.000 C 
ATOM      2  C   UNL     1      48.907   8.502  12.371  0.00  0.00    +0.000 C 
ENDROOT
BRANCH   2   3
ATOM      3  C   UNL     1      48.878   8.321  13.895  0.00  0.00    +0.000 A 
ATOM      4  C   UNL     1      48.365   9.313  14.746  0.00  0.00    +0.000 A 
ATOM      5  C   UNL     1      48.301   9.125  16.130  0.00  0.00    +0.000 A 
ATOM      6  C   UNL     1      48.726   7.926  16.711  0.00  0.00    +0.000 A 
ATOM      7  C   UNL     1      49.223   6.924  15.879  0.00  0.00    +0.000 A 
ATOM      8  C   UNL     1      49.286   7.116  14.498  0.00  0.00    +0.000 A 
BRANCH   6   9
ATOM      9  C   UNL     1      48.632   7.710  18.202  0.00  0.00    +0.000 C 
BRANCH   9  10
ATOM     10  N   UNL     1      47.336   7.139  18.549  0.00  0.00    +0.000 NA
ATOM     11  H   UNL     1      46.823   6.934  17.690  0.00  0.00    +0.000 HD
BRANCH  10  12
ATOM     12  C   UNL     1      47.495   5.886  19.298  0.00  0.00    +0.000 C 
BRANCH  12  13
ATOM     13  C   UNL     1      47.891   4.736  18.392  0.00  0.00    +0.000 A 
ATOM     14  C   UNL     1      49.104   4.075  18.592  0.00  0.00    +0.000 A 
ATOM     15  C   UNL     1      49.432   3.008  17.764  0.00  0.00    +0.000 A 
ATOM     16  C   UNL     1      48.549   2.632  16.759  0.00  0.00    +0.000 A 
ATOM     17  C   UNL     1      47.368   3.343  16.626  0.00  0.00    +0.000 A 
ATOM     18  N   UNL     1      47.020   4.381  17.418  0.00  0.00    +0.000 NA
ENDBRANCH  12  13
ENDBRANCH  10  12
ENDBRANCH   9  10
ENDBRANCH   6   9
ENDBRANCH   2   3
BRANCH   2  19
ATOM     19  C   UNL     1      47.484   8.585  11.756  0.00  0.00    +0.000 C 
BRANCH  19  20
ATOM     20  N   UNL     1      46.750   7.340  11.797  0.00  0.00    +0.000 N 
ATOM     21  C   UNL     1      45.385   7.297  11.660  0.00  0.00    +0.000 C 
ATOM     22  O   UNL     1      44.715   8.302  11.439  0.00  0.00    +0.000 OA
ATOM     23  H   UNL     1      47.243   6.527  12.151  0.00  0.00    +0.000 HD
BRANCH  21  24
ATOM     24  C   UNL     1      44.771   5.971  11.735  0.00  0.00    +0.000 A 
ATOM     25  C   UNL     1      44.051   5.610  12.865  0.00  0.00    +0.000 A 
ATOM     26  S   UNL     1      43.360   4.054  12.764  0.00  0.00    +0.000 S 
ATOM     27  C   UNL     1      44.047   3.788  11.229  0.00  0.00    +0.000 A 
ATOM     28  N   UNL     1      43.858   2.613  10.574  0.00  0.00    +0.000 NA
ATOM     29  C   UNL     1      44.470   2.531   9.439  0.00  0.00    +0.000 A 
ATOM     30  N   UNL     1      45.246   3.522   8.897  0.00  0.00    +0.000 N 
ATOM     31  C   UNL     1      45.425   4.746   9.499  0.00  0.00    +0.000 A 
ATOM     32  O   UNL     1      46.054   5.641   8.945  0.00  0.00    +0.000 OA
ATOM     33  C   UNL     1      44.777   4.878  10.790  0.00  0.00    +0.000 A 
ATOM     34  H   UNL     1      45.684   3.401   7.996  0.00  0.00    +0.000 HD
ENDBRANCH  21  24
ENDBRANCH  19  20
ENDBRANCH   2  19
TORSDOF 8
ENDMDL
MODEL 7
REMARK VINA RESULT:    -7.053      1.762      2.447
REMARK INTER + INTRA:         -11.481
REMARK INTER:                 -10.389
REMARK INTRA:                  -1.092
REMARK UNBOUND:                -1.130
REMARK  Name = 
REMARK  9 active torsions:
REMARK  status: ('A' for Active; 'I' for Inactive)
REMARK    1  A    between atoms: C_1  and  C_2
REMARK    2  A    between atoms: C_2  and  C_3
REMARK    3  A    between atoms: C_2  and  C_17
REMARK    4  A    between atoms: C_3  and  N_4
REMARK    5  A    between atoms: C_5  and  C_7
REMARK    6  A    between atoms: C_20  and  C_21
REMARK    7  A    between atoms: C_21  and  N_22
REMARK    8  A    between atoms: N_22  and  C_23
REMARK    9  A    between atoms: C_23  and  C_24
REMARK                            x       y       z     vdW  Elec       q    Type
REMARK                         _______ _______ _______ _____ _____    ______ ____
ROOT
ATOM      1  C   UNL     1      47.534   3.779  15.334  0.00  0.00    +0.000 C 
ATOM      2  C   UNL     1      46.973   5.142  14.878  0.00  0.00    +0.000 C 
ENDROOT
BRANCH   2   3
ATOM      3  C   UNL     1      46.096   5.046  13.621  0.00  0.00    +0.000 A 
ATOM      4  C   UNL     1      44.910   4.296  13.605  0.00  0.00    +0.000 A 
ATOM      5  C   UNL     1      44.092   4.248  12.472  0.00  0.00    +0.000 A 
ATOM      6  C   UNL     1      44.421   4.969  11.320  0.00  0.00    +0.000 A 
ATOM      7  C   UNL     1      45.589   5.732  11.324  0.00  0.00    +0.000 A 
ATOM      8  C   UNL     1      46.401   5.777  12.458  0.00  0.00    +0.000 A 
BRANCH   6   9
ATOM      9  C   UNL     1      43.527   4.940  10.104  0.00  0.00    +0.000 C 
BRANCH   9  10
ATOM     10  N   UNL     1      44.245   4.389   8.961  0.00  0.00    +0.000 NA
ATOM     11  H   UNL     1      45.138   4.874   8.865  0.00  0.00    +0.000 HD
BRANCH  10  12
ATOM     12  C   UNL     1      44.519   2.959   9.152  0.00  0.00    +0.000 C 
BRANCH  12  13
ATOM     13  C   UNL     1      45.600   2.462   8.211  0.00  0.00    +0.000 A 
ATOM     14  C   UNL     1      46.128   3.316   7.242  0.00  0.00    +0.000 A 
ATOM     15  C   UNL     1      47.135   2.844   6.408  0.00  0.00    +0.000 A 
ATOM     16  C   UNL     1      47.584   1.537   6.558  0.00  0.00    +0.000 A 
ATOM     17  C   UNL     1      47.003   0.754   7.541  0.00  0.00    +0.000 A 
ATOM     18  N   UNL     1      46.026   1.186   8.369  0.00  0.00    +0.000 NA
ENDBRANCH  12  13
ENDBRANCH  10  12
ENDBRANCH   9  10
ENDBRANCH   6   9
ENDBRANCH   2   3
BRANCH   2  19
ATOM     19  C   UNL     1      48.151   6.138  14.705  0.00  0.00    +0.000 C 
BRANCH  19  20
ATOM     20  N   UNL     1      48.975   6.286  15.883  0.00  0.00    +0.000 N 
ATOM     21  C   UNL     1      50.206   6.892  15.837  0.00  0.00    +0.000 C 
ATOM     22  O   UNL     1      50.652   7.394  14.809  0.00  0.00    +0.000 OA
ATOM     23  H   UNL     1      48.720   5.735  16.696  0.00  0.00    +0.000 HD
BRANCH  21  24
ATOM     24  C   UNL     1      50.938   6.962  17.102  0.00  0.00    +0.000 A 
ATOM     25  C   UNL     1      51.347   8.195  17.592  0.00  0.00    +0.000 A 
ATOM     26  S   UNL     1      52.138   8.100  19.099  0.00  0.00    +0.000 S 
ATOM     27  C   UNL     1      52.011   6.402  19.121  0.00  0.00    +0.000 A 
ATOM     28  N   UNL     1      52.521   5.678  20.151  0.00  0.00    +0.000 NA
ATOM     29  C   UNL     1      52.391   4.399  20.019  0.00  0.00    +0.000 A 
ATOM     30  N   UNL     1      51.789   3.781  18.954  0.00  0.00    +0.000 N 
ATOM     31  C   UNL     1      51.214   4.474  17.914  0.00  0.00    +0.000 A 
ATOM     32  O   UNL     1      50.608   3.892  17.021  0.00  0.00    +0.000 OA
ATOM     33  C   UNL     1      51.356   5.915  18.004  0.00  0.00    +0.000 A 
ATOM     34  H   UNL     1      51.706   2.775  18.919  0.00  0.00    +0.000 HD
ENDBRANCH  21  24
ENDBRANCH  19  20
ENDBRANCH   2  19
TORSDOF 8
ENDMDL
MODEL 8
REMARK VINA RESULT:    -6.938      3.921      8.397
REMARK INTER + INTRA:         -11.313
REMARK INTER:                  -9.550
REMARK INTRA:                  -1.763
REMARK UNBOUND:                -1.130
REMARK  Name = 
REMARK  9 active torsions:
REMARK  status: ('A' for Active; 'I' for Inactive)
REMARK    1  A    between atoms: C_1  and  C_2
REMARK    2  A    between atoms: C_2  and  C_3
REMARK    3  A    between atoms: C_2  and  C_17
REMARK    4  A    between atoms: C_3  and  N_4
REMARK    5  A    between atoms: C_5  and  C_7
REMARK    6  A    between atoms: C_20  and  C_21
REMARK    7  A    between atoms: C_21  and  N_22
REMARK    8  A    between atoms: N_22  and  C_23
REMARK    9  A    between atoms: C_23  and  C_24
REMARK                            x       y       z     vdW  Elec       q    Type
REMARK                         _______ _______ _______ _____ _____    ______ ____
ROOT
ATOM      1  C   UNL     1      50.811   9.411  13.313  0.00  0.00    +0.000 C 
ATOM      2  C   UNL     1      49.502   8.716  13.744  0.00  0.00    +0.000 C 
ENDROOT
BRANCH   2   3
ATOM      3  C   UNL     1      49.358   8.590  15.267  0.00  0.00    +0.000 A 
ATOM      4  C   UNL     1      48.272   9.155  15.954  0.00  0.00    +0.000 A 
ATOM      5  C   UNL     1      48.122   8.999  17.336  0.00  0.00    +0.000 A 
ATOM      6  C   UNL     1      49.042   8.250  18.077  0.00  0.00    +0.000 A 
ATOM      7  C   UNL     1      50.118   7.668  17.406  0.00  0.00    +0.000 A 
ATOM      8  C   UNL     1      50.263   7.826  16.027  0.00  0.00    +0.000 A 
BRANCH   6   9
ATOM      9  C   UNL     1      48.869   8.057  19.563  0.00  0.00    +0.000 C 
BRANCH   9  10
ATOM     10  N   UNL     1      48.997   6.646  19.908  0.00  0.00    +0.000 NA
ATOM     11  H   UNL     1      49.178   6.564  20.909  0.00  0.00    +0.000 HD
BRANCH  10  12
ATOM     12  C   UNL     1      47.760   5.915  19.604  0.00  0.00    +0.000 C 
BRANCH  12  13
ATOM     13  C   UNL     1      47.993   4.814  18.587  0.00  0.00    +0.000 A 
ATOM     14  C   UNL     1      49.236   4.184  18.512  0.00  0.00    +0.000 A 
ATOM     15  C   UNL     1      49.416   3.161  17.588  0.00  0.00    +0.000 A 
ATOM     16  C   UNL     1      48.359   2.798  16.763  0.00  0.00    +0.000 A 
ATOM     17  C   UNL     1      47.159   3.477  16.899  0.00  0.00    +0.000 A 
ATOM     18  N   UNL     1      46.953   4.472  17.790  0.00  0.00    +0.000 NA
ENDBRANCH  12  13
ENDBRANCH  10  12
ENDBRANCH   9  10
ENDBRANCH   6   9
ENDBRANCH   2   3
BRANCH   2  19
ATOM     19  C   UNL     1      49.399   7.346  13.022  0.00  0.00    +0.000 C 
BRANCH  19  20
ATOM     20  N   UNL     1      48.077   7.041  12.522  0.00  0.00    +0.000 N 
ATOM     21  C   UNL     1      47.178   6.302  13.249  0.00  0.00    +0.000 C 
ATOM     22  O   UNL     1      47.419   5.907  14.386  0.00  0.00    +0.000 OA
ATOM     23  H   UNL     1      47.913   7.195  11.533  0.00  0.00    +0.000 HD
BRANCH  21  24
ATOM     24  C   UNL     1      45.882   6.057  12.615  0.00  0.00    +0.000 A 
ATOM     25  C   UNL     1      45.149   7.126  12.117  0.00  0.00    +0.000 A 
ATOM     26  S   UNL     1      43.692   6.660  11.364  0.00  0.00    +0.000 S 
ATOM     27  C   UNL     1      43.965   5.019  11.727  0.00  0.00    +0.000 A 
ATOM     28  N   UNL     1      43.064   4.066  11.371  0.00  0.00    +0.000 NA
ATOM     29  C   UNL     1      43.377   2.870  11.745  0.00  0.00    +0.000 A 
ATOM     30  N   UNL     1      44.514   2.540  12.435  0.00  0.00    +0.000 N 
ATOM     31  C   UNL     1      45.479   3.462  12.773  0.00  0.00    +0.000 A 
ATOM     32  O   UNL     1      46.524   3.118  13.313  0.00  0.00    +0.000 OA
ATOM     33  C   UNL     1      45.160   4.826  12.395  0.00  0.00    +0.000 A 
ATOM     34  H   UNL     1      44.709   1.581  12.684  0.00  0.00    +0.000 HD
ENDBRANCH  21  24
ENDBRANCH  19  20
ENDBRANCH   2  19
TORSDOF 8
ENDMDL
MODEL 9
REMARK VINA RESULT:    -6.851      3.871      5.063
REMARK INTER + INTRA:         -11.185
REMARK INTER:                  -9.852
REMARK INTRA:                  -1.334
REMARK UNBOUND:                -1.130
REMARK  Name = 
REMARK  9 active torsions:
REMARK  status: ('A' for Active; 'I' for Inactive)
REMARK    1  A    between atoms: C_1  and  C_2
REMARK    2  A    between atoms: C_2  and  C_3
REMARK    3  A    between atoms: C_2  and  C_17
REMARK    4  A    between atoms: C_3  and  N_4
REMARK    5  A    between atoms: C_5  and  C_7
REMARK    6  A    between atoms: C_20  and  C_21
REMARK    7  A    between atoms: C_21  and  N_22
REMARK    8  A    between atoms: N_22  and  C_23
REMARK    9  A    between atoms: C_23  and  C_24
REMARK                            x       y       z     vdW  Elec       q    Type
REMARK                         _______ _______ _______ _____ _____    ______ ____
ROOT
ATOM      1  C   UNL     1      48.529   6.394  14.443  0.00  0.00    +0.000 C 
ATOM      2  C   UNL     1      47.854   7.022  13.205  0.00  0.00    +0.000 C 
ENDROOT
BRANCH   2   3
ATOM      3  C   UNL     1      46.741   6.146  12.614  0.00  0.00    +0.000 A 
ATOM      4  C   UNL     1      46.193   5.068  13.328  0.00  0.00    +0.000 A 
ATOM      5  C   UNL     1      45.148   4.301  12.802  0.00  0.00    +0.000 A 
ATOM      6  C   UNL     1      44.597   4.601  11.553  0.00  0.00    +0.000 A 
ATOM      7  C   UNL     1      45.119   5.679  10.838  0.00  0.00    +0.000 A 
ATOM      8  C   UNL     1      46.162   6.441  11.366  0.00  0.00    +0.000 A 
BRANCH   6   9
ATOM      9  C   UNL     1      43.451   3.792  10.995  0.00  0.00    +0.000 C 
BRANCH   9  10
ATOM     10  N   UNL     1      43.733   3.398   9.620  0.00  0.00    +0.000 NA
ATOM     11  H   UNL     1      44.260   4.143   9.163  0.00  0.00    +0.000 HD
BRANCH  10  12
ATOM     12  C   UNL     1      44.541   2.172   9.578  0.00  0.00    +0.000 C 
BRANCH  12  13
ATOM     13  C   UNL     1      45.584   2.222   8.479  0.00  0.00    +0.000 A 
ATOM     14  C   UNL     1      45.813   3.412   7.787  0.00  0.00    +0.000 A 
ATOM     15  C   UNL     1      46.792   3.438   6.800  0.00  0.00    +0.000 A 
ATOM     16  C   UNL     1      47.511   2.280   6.526  0.00  0.00    +0.000 A 
ATOM     17  C   UNL     1      47.218   1.140   7.256  0.00  0.00    +0.000 A 
ATOM     18  N   UNL     1      46.275   1.086   8.223  0.00  0.00    +0.000 NA
ENDBRANCH  12  13
ENDBRANCH  10  12
ENDBRANCH   9  10
ENDBRANCH   6   9
ENDBRANCH   2   3
BRANCH   2  19
ATOM     19  C   UNL     1      48.948   7.376  12.163  0.00  0.00    +0.000 C 
BRANCH  19  20
ATOM     20  N   UNL     1      49.956   8.288  12.653  0.00  0.00    +0.000 N 
ATOM     21  C   UNL     1      51.159   8.454  12.011  0.00  0.00    +0.000 C 
ATOM     22  O   UNL     1      51.424   7.884  10.956  0.00  0.00    +0.000 OA
ATOM     23  H   UNL     1      49.844   8.632  13.600  0.00  0.00    +0.000 HD
BRANCH  21  24
ATOM     24  C   UNL     1      52.092   9.399  12.625  0.00  0.00    +0.000 A 
ATOM     25  C   UNL     1      52.556  10.482  11.890  0.00  0.00    +0.000 A 
ATOM     26  S   UNL     1      53.590  11.510  12.772  0.00  0.00    +0.000 S 
ATOM     27  C   UNL     1      53.498  10.514  14.149  0.00  0.00    +0.000 A 
ATOM     28  N   UNL     1      54.186  10.819  15.279  0.00  0.00    +0.000 NA
ATOM     29  C   UNL     1      54.058   9.956  16.232  0.00  0.00    +0.000 A 
ATOM     30  N   UNL     1      53.296   8.820  16.158  0.00  0.00    +0.000 N 
ATOM     31  C   UNL     1      52.543   8.494  15.054  0.00  0.00    +0.000 A 
ATOM     32  O   UNL     1      51.805   7.515  15.055  0.00  0.00    +0.000 OA
ATOM     33  C   UNL     1      52.673   9.421  13.947  0.00  0.00    +0.000 A 
ATOM     34  H   UNL     1      53.225   8.192  16.946  0.00  0.00    +0.000 HD
ENDBRANCH  21  24
ENDBRANCH  19  20
ENDBRANCH   2  19
TORSDOF 8
ENDMDL
