MODEL 1
REMARK VINA RESULT:    -7.813      0.000      0.000
REMARK INTER + INTRA:         -11.213
REMARK INTER:                 -10.553
REMARK INTRA:                  -0.660
REMARK UNBOUND:                -0.660
REMARK  Name = 
REMARK  7 active torsions:
REMARK  status: ('A' for Active; 'I' for Inactive)
REMARK    1  A    between atoms: C_1  and  N_2
REMARK    2  A    between atoms: N_2  and  C_3
REMARK    3  A    between atoms: C_3  and  C_4
REMARK    4  A    between atoms: C_7  and  O_8
REMARK    5  A    between atoms: O_8  and  C_9
REMARK    6  A    between atoms: C_9  and  C_10
REMARK    7  A    between atoms: C_13  and  C_14
REMARK                            x       y       z     vdW  Elec       q    Type
REMARK                         _______ _______ _______ _____ _____    ______ ____
ROOT
ATOM      1  O   UNL     1      43.863   4.419  11.499  0.00  0.00    +0.000 OA
ENDROOT
BRANCH   1   5
ATOM      2  C   UNL     1      47.128   6.029  13.545  0.00  0.00    +0.000 A 
ATOM      3  C   UNL     1      46.493   6.796  12.559  0.00  0.00    +0.000 A 
ATOM      4  C   UNL     1      45.414   6.280  11.842  0.00  0.00    +0.000 A 
ATOM      5  C   UNL     1      44.949   4.991  12.105  0.00  0.00    +0.000 A 
ATOM      6  C   UNL     1      45.609   4.197  13.040  0.00  0.00    +0.000 A 
ATOM      7  C   UNL     1      46.685   4.719  13.752  0.00  0.00    +0.000 A 
ATOM      8  F   UNL     1      47.296   3.937  14.655  0.00  0.00    +0.000 F 
BRANCH   2   9
ATOM      9  C   UNL     1      48.276   6.598  14.337  0.00  0.00    +0.000 C 
BRANCH   9  11
ATOM     10  C   UNL     1      49.925   8.132  13.491  0.00  0.00    +0.000 C 
ATOM     11  N   UNL     1      49.476   6.748  13.509  0.00  0.00    +0.000 NA
ATOM     12  H   UNL     1      50.223   6.163  13.879  0.00  0.00    +0.000 HD
ENDBRANCH   9  11
ENDBRANCH   2   9
ENDBRANCH   1   5
BRANCH   1  13
ATOM     13  C   UNL     1      43.719   4.728  10.107  0.00  0.00    +0.000 C 
BRANCH  13  14
ATOM     14  C   UNL     1      44.664   3.892   9.277  0.00  0.00    +0.000 A 
ATOM     15  C   UNL     1      44.732   2.511   9.444  0.00  0.00    +0.000 A 
ATOM     16  C   UNL     1      45.619   1.778   8.658  0.00  0.00    +0.000 A 
ATOM     17  C   UNL     1      46.422   2.444   7.734  0.00  0.00    +0.000 A 
ATOM     18  C   UNL     1      46.325   3.824   7.655  0.00  0.00    +0.000 A 
ATOM     19  N   UNL     1      45.465   4.559   8.407  0.00  0.00    +0.000 NA
BRANCH  17  20
ATOM     20  C   UNL     1      47.378   1.747   6.854  0.00  0.00    +0.000 C 
ATOM     21  N   UNL     1      48.465   2.458   6.424  0.00  0.00    +0.000 N 
ATOM     22  O   UNL     1      47.228   0.572   6.547  0.00  0.00    +0.000 OA
ATOM     23  H   UNL     1      48.747   3.332   6.846  0.00  0.00    +0.000 HD
ATOM     24  H   UNL     1      49.165   1.941   5.907  0.00  0.00    +0.000 HD
ENDBRANCH  17  20
ENDBRANCH  13  14
ENDBRANCH   1  13
TORSDOF 6
ENDMDL
MODEL 2
REMARK VINA RESULT:    -7.768      1.225      1.608
REMARK INTER + INTRA:         -11.152
REMARK INTER:                 -10.473
REMARK INTRA:                  -0.679
REMARK UNBOUND:                -0.660
REMARK  Name = 
REMARK  7 active torsions:
REMARK  status: ('A' for Active; 'I' for Inactive)
REMARK    1  A    between atoms: C_1  and  N_2
REMARK    2  A    between atoms: N_2  and  C_3
REMARK    3  A    between atoms: C_3  and  C_4
REMARK    4  A    between atoms: C_7  and  O_8
REMARK    5  A    between atoms: O_8  and  C_9
REMARK    6  A    between atoms: C_9  and  C_10
REMARK    7  A    between atoms: C_13  and  C_14
REMARK                            x       y       z     vdW  Elec       q    Type
REMARK                         _______ _______ _______ _____ _____    ______ ____
ROOT
ATOM      1  O   UNL     1      43.957   4.393  11.564  0.00  0.00    +0.000 OA
ENDROOT
BRANCH   1   5
ATOM      2  C   UNL     1      47.266   6.381  13.159  0.00  0.00    +0.000 A 
ATOM      3  C   UNL     1      46.962   5.088  13.609  0.00  0.00    +0.000 A 
ATOM      4  C   UNL     1      45.851   4.405  13.112  0.00  0.00    +0.000 A 
ATOM      5  C   UNL     1      45.032   5.002  12.154  0.00  0.00    +0.000 A 
ATOM      6  C   UNL     1      45.288   6.309  11.744  0.00  0.00    +0.000 A 
ATOM      7  C   UNL     1      46.399   6.984  12.242  0.00  0.00    +0.000 A 
ATOM      8  F   UNL     1      46.628   8.237  11.822  0.00  0.00    +0.000 F 
BRANCH   2   9
ATOM      9  C   UNL     1      48.481   7.106  13.675  0.00  0.00    +0.000 C 
BRANCH   9  11
ATOM     10  C   UNL     1      49.960   7.837  11.924  0.00  0.00    +0.000 C 
ATOM     11  N   UNL     1      49.672   6.783  12.886  0.00  0.00    +0.000 NA
ATOM     12  H   UNL     1      50.473   6.672  13.504  0.00  0.00    +0.000 HD
ENDBRANCH   9  11
ENDBRANCH   2   9
ENDBRANCH   1   5
BRANCH   1  13
ATOM     13  C   UNL     1      43.773   4.711  10.177  0.00  0.00    +0.000 C 
BRANCH  13  14
ATOM     14  C   UNL     1      44.694   3.881   9.317  0.00  0.00    +0.000 A 
ATOM     15  C   UNL     1      44.759   2.497   9.464  0.00  0.00    +0.000 A 
ATOM     16  C   UNL     1      45.624   1.770   8.649  0.00  0.00    +0.000 A 
ATOM     17  C   UNL     1      46.410   2.444   7.715  0.00  0.00    +0.000 A 
ATOM     18  C   UNL     1      46.318   3.825   7.656  0.00  0.00    +0.000 A 
ATOM     19  N   UNL     1      45.480   4.555   8.436  0.00  0.00    +0.000 NA
BRANCH  17  20
ATOM     20  C   UNL     1      47.342   1.753   6.805  0.00  0.00    +0.000 C 
ATOM     21  N   UNL     1      48.413   2.469   6.346  0.00  0.00    +0.000 N 
ATOM     22  O   UNL     1      47.186   0.579   6.498  0.00  0.00    +0.000 OA
ATOM     23  H   UNL     1      48.705   3.343   6.763  0.00  0.00    +0.000 HD
ATOM     24  H   UNL     1      49.099   1.956   5.807  0.00  0.00    +0.000 HD
ENDBRANCH  17  20
ENDBRANCH  13  14
ENDBRANCH   1  13
TORSDOF 6
ENDMDL
MODEL 3
REMARK VINA RESULT:    -7.704      1.596      2.196
REMARK INTER + INTRA:         -11.066
REMARK INTER:                 -10.390
REMARK INTRA:                  -0.676
REMARK UNBOUND:                -0.660
REMARK  Name = 
REMARK  7 active torsions:
REMARK  status: ('A' for Active; 'I' for Inactive)
REMARK    1  A    between atoms: C_1  and  N_2
REMARK    2  A    between atoms: N_2  and  C_3
REMARK    3  A    between atoms: C_3  and  C_4
REMARK    4  A    between atoms: C_7  and  O_8
REMARK    5  A    between atoms: O_8  and  C_9
REMARK    6  A    between atoms: C_9  and  C_10
REMARK    7  A    between atoms: C_13  and  C_14
REMARK                            x       y       z     vdW  Elec       q    Type
REMARK                         _______ _______ _______ _____ _____    ______ ____
ROOT
ATOM      1  O   UNL     1      44.500   5.900  10.683  0.00  0.00    +0.000 OA
ENDROOT
BRANCH   1   5
ATOM      2  C   UNL     1      46.832   5.124  14.060  0.00  0.00    +0.000 A 
ATOM      3  C   UNL     1      45.527   4.617  13.999  0.00  0.00    +0.000 A 
ATOM      4  C   UNL     1      44.714   4.876  12.895  0.00  0.00    +0.000 A 
ATOM      5  C   UNL     1      45.197   5.641  11.833  0.00  0.00    +0.000 A 
ATOM      6  C   UNL     1      46.470   6.201  11.908  0.00  0.00    +0.000 A 
ATOM      7  C   UNL     1      47.276   5.937  13.012  0.00  0.00    +0.000 A 
ATOM      8  F   UNL     1      48.502   6.480  13.054  0.00  0.00    +0.000 F 
BRANCH   2   9
ATOM      9  C   UNL     1      47.718   4.820  15.240  0.00  0.00    +0.000 C 
BRANCH   9  11
ATOM     10  C   UNL     1      47.391   3.317  17.090  0.00  0.00    +0.000 C 
ATOM     11  N   UNL     1      47.597   3.419  15.652  0.00  0.00    +0.000 NA
ATOM     12  H   UNL     1      46.809   2.988  15.175  0.00  0.00    +0.000 HD
ENDBRANCH   9  11
ENDBRANCH   2   9
ENDBRANCH   1   5
BRANCH   1  13
ATOM     13  C   UNL     1      43.796   4.775  10.140  0.00  0.00    +0.000 C 
BRANCH  13  14
ATOM     14  C   UNL     1      44.720   3.926   9.301  0.00  0.00    +0.000 A 
ATOM     15  C   UNL     1      44.766   2.543   9.463  0.00  0.00    +0.000 A 
ATOM     16  C   UNL     1      45.634   1.798   8.667  0.00  0.00    +0.000 A 
ATOM     17  C   UNL     1      46.441   2.454   7.739  0.00  0.00    +0.000 A 
ATOM     18  C   UNL     1      46.367   3.835   7.666  0.00  0.00    +0.000 A 
ATOM     19  N   UNL     1      45.526   4.582   8.426  0.00  0.00    +0.000 NA
BRANCH  17  20
ATOM     20  C   UNL     1      47.378   1.743   6.849  0.00  0.00    +0.000 C 
ATOM     21  N   UNL     1      48.465   2.442   6.400  0.00  0.00    +0.000 N 
ATOM     22  O   UNL     1      47.213   0.569   6.551  0.00  0.00    +0.000 OA
ATOM     23  H   UNL     1      48.762   3.316   6.814  0.00  0.00    +0.000 HD
ATOM     24  H   UNL     1      49.153   1.916   5.876  0.00  0.00    +0.000 HD
ENDBRANCH  17  20
ENDBRANCH  13  14
ENDBRANCH   1  13
TORSDOF 6
ENDMDL
MODEL 4
REMARK VINA RESULT:    -7.268      2.573      6.597
REMARK INTER + INTRA:         -10.477
REMARK INTER:                  -9.984
REMARK INTRA:                  -0.493
REMARK UNBOUND:                -0.660
REMARK  Name = 
REMARK  7 active torsions:
REMARK  status: ('A' for Active; 'I' for Inactive)
REMARK    1  A    between atoms: C_1  and  N_2
REMARK    2  A    between atoms: N_2  and  C_3
REMARK    3  A    between atoms: C_3  and  C_4
REMARK    4  A    between atoms: C_7  and  O_8
REMARK    5  A    between atoms: O_8  and  C_9
REMARK    6  A    between atoms: C_9  and  C_10
REMARK    7  A    between atoms: C_13  and  C_14
REMARK                            x       y       z     vdW  Elec       q    Type
REMARK                         _______ _______ _______ _____ _____    ______ ____
ROOT
ATOM      1  O   UNL     1      43.585   4.139  10.073  0.00  0.00    +0.000 OA
ENDROOT
BRANCH   1   5
ATOM      2  C   UNL     1      46.576   2.349   7.774  0.00  0.00    +0.000 A 
ATOM      3  C   UNL     1      46.475   3.747   7.796  0.00  0.00    +0.000 A 
ATOM      4  C   UNL     1      45.474   4.376   8.536  0.00  0.00    +0.000 A 
ATOM      5  C   UNL     1      44.563   3.617   9.271  0.00  0.00    +0.000 A 
ATOM      6  C   UNL     1      44.616   2.226   9.209  0.00  0.00    +0.000 A 
ATOM      7  C   UNL     1      45.618   1.605   8.470  0.00  0.00    +0.000 A 
ATOM      8  F   UNL     1      45.653   0.264   8.436  0.00  0.00    +0.000 F 
BRANCH   2   9
ATOM      9  C   UNL     1      47.675   1.673   6.997  0.00  0.00    +0.000 C 
BRANCH   9  11
ATOM     10  C   UNL     1      47.623   2.666   4.806  0.00  0.00    +0.000 C 
ATOM     11  N   UNL     1      48.331   2.605   6.076  0.00  0.00    +0.000 NA
ATOM     12  H   UNL     1      48.352   3.536   6.488  0.00  0.00    +0.000 HD
ENDBRANCH   9  11
ENDBRANCH   2   9
ENDBRANCH   1   5
BRANCH   1  13
ATOM     13  C   UNL     1      43.606   3.673  11.429  0.00  0.00    +0.000 C 
BRANCH  13  14
ATOM     14  C   UNL     1      44.734   4.322  12.195  0.00  0.00    +0.000 A 
ATOM     15  C   UNL     1      44.936   5.699  12.144  0.00  0.00    +0.000 A 
ATOM     16  C   UNL     1      45.989   6.256  12.866  0.00  0.00    +0.000 A 
ATOM     17  C   UNL     1      46.820   5.421  13.612  0.00  0.00    +0.000 A 
ATOM     18  C   UNL     1      46.580   4.058  13.581  0.00  0.00    +0.000 A 
ATOM     19  N   UNL     1      45.557   3.493  12.889  0.00  0.00    +0.000 NA
BRANCH  17  20
ATOM     20  C   UNL     1      47.950   5.927  14.415  0.00  0.00    +0.000 C 
ATOM     21  N   UNL     1      47.884   5.746  15.769  0.00  0.00    +0.000 N 
ATOM     22  O   UNL     1      48.922   6.454  13.893  0.00  0.00    +0.000 OA
ATOM     23  H   UNL     1      47.230   5.109  16.204  0.00  0.00    +0.000 HD
ATOM     24  H   UNL     1      48.708   6.003  16.298  0.00  0.00    +0.000 HD
ENDBRANCH  17  20
ENDBRANCH  13  14
ENDBRANCH   1  13
TORSDOF 6
ENDMDL
MODEL 5
REMARK VINA RESULT:    -6.522      1.952      2.232
REMARK INTER + INTRA:          -9.469
REMARK INTER:                  -8.944
REMARK INTRA:                  -0.525
REMARK UNBOUND:                -0.660
REMARK  Name = 
REMARK  7 active torsions:
REMARK  status: ('A' for Active; 'I' for Inactive)
REMARK    1  A    between atoms: C_1  and  N_2
REMARK    2  A    between atoms: N_2  and  C_3
REMARK    3  A    between atoms: C_3  and  C_4
REMARK    4  A    between atoms: C_7  and  O_8
REMARK    5  A    between atoms: O_8  and  C_9
REMARK    6  A    between atoms: C_9  and  C_10
REMARK    7  A    between atoms: C_13  and  C_14
REMARK                            x       y       z     vdW  Elec       q    Type
REMARK                         _______ _______ _______ _____ _____    ______ ____
ROOT
ATOM      1  O   UNL     1      45.215   4.973  11.776  0.00  0.00    +0.000 OA
ENDROOT
BRANCH   1   5
ATOM      2  C   UNL     1      47.075   8.638  12.521  0.00  0.00    +0.000 A 
ATOM      3  C   UNL     1      45.721   8.478  12.850  0.00  0.00    +0.000 A 
ATOM      4  C   UNL     1      45.065   7.274  12.594  0.00  0.00    +0.000 A 
ATOM      5  C   UNL     1      45.753   6.210  12.011  0.00  0.00    +0.000 A 
ATOM      6  C   UNL     1      47.081   6.376  11.624  0.00  0.00    +0.000 A 
ATOM      7  C   UNL     1      47.730   7.580  11.884  0.00  0.00    +0.000 A 
ATOM      8  F   UNL     1      49.013   7.709  11.511  0.00  0.00    +0.000 F 
BRANCH   2   9
ATOM      9  C   UNL     1      47.789   9.929  12.823  0.00  0.00    +0.000 C 
BRANCH   9  11
ATOM     10  C   UNL     1      49.050   9.269  14.763  0.00  0.00    +0.000 C 
ATOM     11  N   UNL     1      47.974  10.113  14.265  0.00  0.00    +0.000 NA
ATOM     12  H   UNL     1      48.200  11.086  14.460  0.00  0.00    +0.000 HD
ENDBRANCH   9  11
ENDBRANCH   2   9
ENDBRANCH   1   5
BRANCH   1  13
ATOM     13  C   UNL     1      44.403   4.886  10.597  0.00  0.00    +0.000 C 
BRANCH  13  14
ATOM     14  C   UNL     1      45.132   4.142   9.505  0.00  0.00    +0.000 A 
ATOM     15  C   UNL     1      45.188   2.750   9.500  0.00  0.00    +0.000 A 
ATOM     16  C   UNL     1      45.873   2.104   8.473  0.00  0.00    +0.000 A 
ATOM     17  C   UNL     1      46.493   2.865   7.482  0.00  0.00    +0.000 A 
ATOM     18  C   UNL     1      46.427   4.245   7.579  0.00  0.00    +0.000 A 
ATOM     19  N   UNL     1      45.762   4.897   8.567  0.00  0.00    +0.000 NA
BRANCH  17  20
ATOM     20  C   UNL     1      47.227   2.265   6.353  0.00  0.00    +0.000 C 
ATOM     21  N   UNL     1      47.187   2.929   5.158  0.00  0.00    +0.000 N 
ATOM     22  O   UNL     1      47.875   1.235   6.485  0.00  0.00    +0.000 OA
ATOM     23  H   UNL     1      46.877   3.888   5.077  0.00  0.00    +0.000 HD
ATOM     24  H   UNL     1      47.777   2.564   4.421  0.00  0.00    +0.000 HD
ENDBRANCH  17  20
ENDBRANCH  13  14
ENDBRANCH   1  13
TORSDOF 6
ENDMDL
MODEL 6
REMARK VINA RESULT:    -6.346      3.473      7.344
REMARK INTER + INTRA:          -9.232
REMARK INTER:                  -8.759
REMARK INTRA:                  -0.473
REMARK UNBOUND:                -0.660
REMARK  Name = 
REMARK  7 active torsions:
REMARK  status: ('A' for Active; 'I' for Inactive)
REMARK    1  A    between atoms: C_1  and  N_2
REMARK    2  A    between atoms: N_2  and  C_3
REMARK    3  A    between atoms: C_3  and  C_4
REMARK    4  A    between atoms: C_7  and  O_8
REMARK    5  A    between atoms: O_8  and  C_9
REMARK    6  A    between atoms: C_9  and  C_10
REMARK    7  A    between atoms: C_13  and  C_14
REMARK                            x       y       z     vdW  Elec       q    Type
REMARK                         _______ _______ _______ _____ _____    ______ ____
ROOT
ATOM      1  O   UNL     1      45.374   4.905  12.936  0.00  0.00    +0.000 OA
ENDROOT
BRANCH   1   5
ATOM      2  C   UNL     1      45.323   3.902   8.883  0.00  0.00    +0.000 A 
ATOM      3  C   UNL     1      45.722   5.191   9.264  0.00  0.00    +0.000 A 
ATOM      4  C   UNL     1      45.729   5.565  10.608  0.00  0.00    +0.000 A 
ATOM      5  C   UNL     1      45.344   4.654  11.591  0.00  0.00    +0.000 A 
ATOM      6  C   UNL     1      44.888   3.390  11.221  0.00  0.00    +0.000 A 
ATOM      7  C   UNL     1      44.885   3.023   9.878  0.00  0.00    +0.000 A 
ATOM      8  F   UNL     1      44.452   1.797   9.551  0.00  0.00    +0.000 F 
BRANCH   2   9
ATOM      9  C   UNL     1      45.343   3.491   7.434  0.00  0.00    +0.000 C 
BRANCH   9  11
ATOM     10  C   UNL     1      47.583   2.767   6.935  0.00  0.00    +0.000 C 
ATOM     11  N   UNL     1      46.614   3.844   6.795  0.00  0.00    +0.000 NA
ATOM     12  H   UNL     1      46.461   4.023   5.805  0.00  0.00    +0.000 HD
ENDBRANCH   9  11
ENDBRANCH   2   9
ENDBRANCH   1   5
BRANCH   1  13
ATOM     13  C   UNL     1      46.444   5.757  13.366  0.00  0.00    +0.000 C 
BRANCH  13  14
ATOM     14  C   UNL     1      47.160   5.152  14.550  0.00  0.00    +0.000 A 
ATOM     15  C   UNL     1      47.978   5.929  15.366  0.00  0.00    +0.000 A 
ATOM     16  C   UNL     1      48.621   5.330  16.447  0.00  0.00    +0.000 A 
ATOM     17  C   UNL     1      48.438   3.967  16.679  0.00  0.00    +0.000 A 
ATOM     18  C   UNL     1      47.642   3.253  15.799  0.00  0.00    +0.000 A 
ATOM     19  N   UNL     1      47.002   3.816  14.741  0.00  0.00    +0.000 NA
BRANCH  17  20
ATOM     20  C   UNL     1      49.069   3.255  17.806  0.00  0.00    +0.000 C 
ATOM     21  N   UNL     1      48.371   3.202  18.981  0.00  0.00    +0.000 N 
ATOM     22  O   UNL     1      50.154   2.703  17.688  0.00  0.00    +0.000 OA
ATOM     23  H   UNL     1      47.387   3.425  19.042  0.00  0.00    +0.000 HD
ATOM     24  H   UNL     1      48.765   2.624  19.713  0.00  0.00    +0.000 HD
ENDBRANCH  17  20
ENDBRANCH  13  14
ENDBRANCH   1  13
TORSDOF 6
ENDMDL
MODEL 7
REMARK VINA RESULT:    -6.235      4.735      7.991
REMARK INTER + INTRA:          -9.082
REMARK INTER:                  -8.622
REMARK INTRA:                  -0.460
REMARK UNBOUND:                -0.660
REMARK  Name = 
REMARK  7 active torsions:
REMARK  status: ('A' for Active; 'I' for Inactive)
REMARK    1  A    between atoms: C_1  and  N_2
REMARK    2  A    between atoms: N_2  and  C_3
REMARK    3  A    between atoms: C_3  and  C_4
REMARK    4  A    between atoms: C_7  and  O_8
REMARK    5  A    between atoms: O_8  and  C_9
REMARK    6  A    between atoms: C_9  and  C_10
REMARK    7  A    between atoms: C_13  and  C_14
REMARK                            x       y       z     vdW  Elec       q    Type
REMARK                         _______ _______ _______ _____ _____    ______ ____
ROOT
ATOM      1  O   UNL     1      47.656   5.191  15.015  0.00  0.00    +0.000 OA
ENDROOT
BRANCH   1   5
ATOM      2  C   UNL     1      45.270   4.295  11.706  0.00  0.00    +0.000 A 
ATOM      3  C   UNL     1      45.726   3.251  12.524  0.00  0.00    +0.000 A 
ATOM      4  C   UNL     1      46.543   3.515  13.624  0.00  0.00    +0.000 A 
ATOM      5  C   UNL     1      46.910   4.826  13.927  0.00  0.00    +0.000 A 
ATOM      6  C   UNL     1      46.514   5.865  13.088  0.00  0.00    +0.000 A 
ATOM      7  C   UNL     1      45.698   5.595  11.993  0.00  0.00    +0.000 A 
ATOM      8  F   UNL     1      45.322   6.616  11.208  0.00  0.00    +0.000 F 
BRANCH   2   9
ATOM      9  C   UNL     1      44.366   4.011  10.536  0.00  0.00    +0.000 C 
BRANCH   9  11
ATOM     10  C   UNL     1      44.792   2.192   9.019  0.00  0.00    +0.000 C 
ATOM     11  N   UNL     1      44.225   2.571  10.305  0.00  0.00    +0.000 NA
ATOM     12  H   UNL     1      44.705   2.057  11.041  0.00  0.00    +0.000 HD
ENDBRANCH   9  11
ENDBRANCH   2   9
ENDBRANCH   1   5
BRANCH   1  13
ATOM     13  C   UNL     1      47.405   4.426  16.201  0.00  0.00    +0.000 C 
BRANCH  13  14
ATOM     14  C   UNL     1      48.655   3.699  16.637  0.00  0.00    +0.000 A 
ATOM     15  C   UNL     1      49.621   4.336  17.412  0.00  0.00    +0.000 A 
ATOM     16  C   UNL     1      50.759   3.628  17.791  0.00  0.00    +0.000 A 
ATOM     17  C   UNL     1      50.909   2.305  17.377  0.00  0.00    +0.000 A 
ATOM     18  C   UNL     1      49.924   1.754  16.574  0.00  0.00    +0.000 A 
ATOM     19  N   UNL     1      48.804   2.423  16.195  0.00  0.00    +0.000 NA
BRANCH  17  20
ATOM     20  C   UNL     1      52.074   1.479  17.742  0.00  0.00    +0.000 C 
ATOM     21  N   UNL     1      51.831   0.185  18.114  0.00  0.00    +0.000 N 
ATOM     22  O   UNL     1      53.215   1.917  17.682  0.00  0.00    +0.000 OA
ATOM     23  H   UNL     1      50.948  -0.276  17.941  0.00  0.00    +0.000 HD
ATOM     24  H   UNL     1      52.643  -0.401  18.262  0.00  0.00    +0.000 HD
ENDBRANCH  17  20
ENDBRANCH  13  14
ENDBRANCH   1  13
TORSDOF 6
ENDMDL
MODEL 8
REMARK VINA RESULT:    -6.066      2.706      6.924
REMARK INTER + INTRA:          -8.853
REMARK INTER:                  -8.436
REMARK INTRA:                  -0.417
REMARK UNBOUND:                -0.660
REMARK  Name = 
REMARK  7 active torsions:
REMARK  status: ('A' for Active; 'I' for Inactive)
REMARK    1  A    between atoms: C_1  and  N_2
REMARK    2  A    between atoms: N_2  and  C_3
REMARK    3  A    between atoms: C_3  and  C_4
REMARK    4  A    between atoms: C_7  and  O_8
REMARK    5  A    between atoms: O_8  and  C_9
REMARK    6  A    between atoms: C_9  and  C_10
REMARK    7  A    between atoms: C_13  and  C_14
REMARK                            x       y       z     vdW  Elec       q    Type
REMARK                         _______ _______ _______ _____ _____    ______ ____
ROOT
ATOM      1  O   UNL     1      44.353   4.700  12.110  0.00  0.00    +0.000 OA
ENDROOT
BRANCH   1   5
ATOM      2  C   UNL     1      45.497   3.404   8.309  0.00  0.00    +0.000 A 
ATOM      3  C   UNL     1      45.719   4.740   8.671  0.00  0.00    +0.000 A 
ATOM      4  C   UNL     1      45.329   5.210   9.925  0.00  0.00    +0.000 A 
ATOM      5  C   UNL     1      44.717   4.351  10.838  0.00  0.00    +0.000 A 
ATOM      6  C   UNL     1      44.436   3.037  10.467  0.00  0.00    +0.000 A 
ATOM      7  C   UNL     1      44.830   2.574   9.215  0.00  0.00    +0.000 A 
ATOM      8  F   UNL     1      44.557   1.302   8.888  0.00  0.00    +0.000 F 
BRANCH   2   9
ATOM      9  C   UNL     1      45.944   2.891   6.965  0.00  0.00    +0.000 C 
BRANCH   9  11
ATOM     10  C   UNL     1      48.223   2.188   6.642  0.00  0.00    +0.000 C 
ATOM     11  N   UNL     1      47.310   3.322   6.655  0.00  0.00    +0.000 NA
ATOM     12  H   UNL     1      47.329   3.771   5.742  0.00  0.00    +0.000 HD
ENDBRANCH   9  11
ENDBRANCH   2   9
ENDBRANCH   1   5
BRANCH   1  13
ATOM     13  C   UNL     1      45.365   4.493  13.104  0.00  0.00    +0.000 C 
BRANCH  13  14
ATOM     14  C   UNL     1      46.199   5.739  13.279  0.00  0.00    +0.000 A 
ATOM     15  C   UNL     1      45.688   6.994  12.959  0.00  0.00    +0.000 A 
ATOM     16  C   UNL     1      46.492   8.118  13.135  0.00  0.00    +0.000 A 
ATOM     17  C   UNL     1      47.792   7.957  13.616  0.00  0.00    +0.000 A 
ATOM     18  C   UNL     1      48.242   6.673  13.872  0.00  0.00    +0.000 A 
ATOM     19  N   UNL     1      47.475   5.564  13.713  0.00  0.00    +0.000 NA
BRANCH  17  20
ATOM     20  C   UNL     1      48.707   9.091  13.844  0.00  0.00    +0.000 C 
ATOM     21  N   UNL     1      48.146  10.281  14.217  0.00  0.00    +0.000 N 
ATOM     22  O   UNL     1      49.919   8.967  13.738  0.00  0.00    +0.000 OA
ATOM     23  H   UNL     1      47.194  10.356  14.549  0.00  0.00    +0.000 HD
ATOM     24  H   UNL     1      48.789  11.022  14.470  0.00  0.00    +0.000 HD
ENDBRANCH  17  20
ENDBRANCH  13  14
ENDBRANCH   1  13
TORSDOF 6
ENDMDL
MODEL 9
REMARK VINA RESULT:    -5.768      4.144      8.473
REMARK INTER + INTRA:          -8.451
REMARK INTER:                  -7.940
REMARK INTRA:                  -0.511
REMARK UNBOUND:                -0.660
REMARK  Name = 
REMARK  7 active torsions:
REMARK  status: ('A' for Active; 'I' for Inactive)
REMARK    1  A    between atoms: C_1  and  N_2
REMARK    2  A    between atoms: N_2  and  C_3
REMARK    3  A    between atoms: C_3  and  C_4
REMARK    4  A    between atoms: C_7  and  O_8
REMARK    5  A    between atoms: O_8  and  C_9
REMARK    6  A    between atoms: C_9  and  C_10
REMARK    7  A    between atoms: C_13  and  C_14
REMARK                            x       y       z     vdW  Elec       q    Type
REMARK                         _______ _______ _______ _____ _____    ______ ____
ROOT
ATOM      1  O   UNL     1      48.570   5.894  13.849  0.00  0.00    +0.000 OA
ENDROOT
BRANCH   1   5
ATOM      2  C   UNL     1      45.294   5.054  11.399  0.00  0.00    +0.000 A 
ATOM      3  C   UNL     1      46.024   6.233  11.186  0.00  0.00    +0.000 A 
ATOM      4  C   UNL     1      47.110   6.553  12.000  0.00  0.00    +0.000 A 
ATOM      5  C   UNL     1      47.487   5.698  13.036  0.00  0.00    +0.000 A 
ATOM      6  C   UNL     1      46.734   4.555  13.296  0.00  0.00    +0.000 A 
ATOM      7  C   UNL     1      45.652   4.240  12.478  0.00  0.00    +0.000 A 
ATOM      8  F   UNL     1      44.951   3.128  12.744  0.00  0.00    +0.000 F 
BRANCH   2   9
ATOM      9  C   UNL     1      44.139   4.696  10.501  0.00  0.00    +0.000 C 
BRANCH   9  11
ATOM     10  C   UNL     1      42.328   5.577  11.818  0.00  0.00    +0.000 C 
ATOM     11  N   UNL     1      43.074   5.700  10.574  0.00  0.00    +0.000 NA
ATOM     12  H   UNL     1      43.477   6.633  10.522  0.00  0.00    +0.000 HD
ENDBRANCH   9  11
ENDBRANCH   2   9
ENDBRANCH   1   5
BRANCH   1  13
ATOM     13  C   UNL     1      48.423   6.955  14.802  0.00  0.00    +0.000 C 
BRANCH  13  14
ATOM     14  C   UNL     1      48.650   6.443  16.204  0.00  0.00    +0.000 A 
ATOM     15  C   UNL     1      48.616   7.308  17.296  0.00  0.00    +0.000 A 
ATOM     16  C   UNL     1      48.832   6.793  18.573  0.00  0.00    +0.000 A 
ATOM     17  C   UNL     1      49.086   5.430  18.725  0.00  0.00    +0.000 A 
ATOM     18  C   UNL     1      49.144   4.643  17.586  0.00  0.00    +0.000 A 
ATOM     19  N   UNL     1      48.933   5.121  16.333  0.00  0.00    +0.000 NA
BRANCH  17  20
ATOM     20  C   UNL     1      49.313   4.800  20.039  0.00  0.00    +0.000 C 
ATOM     21  N   UNL     1      48.464   3.790  20.402  0.00  0.00    +0.000 N 
ATOM     22  O   UNL     1      50.241   5.138  20.760  0.00  0.00    +0.000 OA
ATOM     23  H   UNL     1      47.855   3.326  19.743  0.00  0.00    +0.000 HD
ATOM     24  H   UNL     1      48.692   3.297  21.256  0.00  0.00    +0.000 HD
ENDBRANCH  17  20
ENDBRANCH  13  14
ENDBRANCH   1  13
TORSDOF 6
ENDMDL
