MODEL 1
REMARK VINA RESULT:    -6.543      0.000      0.000
REMARK INTER + INTRA:          -7.002
REMARK INTER:                  -6.926
REMARK INTRA:                  -0.076
REMARK UNBOUND:                -0.076
REMARK  Name = 
REMARK  3 active torsions:
REMARK  status: ('A' for Active; 'I' for Inactive)
REMARK    1  A    between atoms: C_1  and  C_2
REMARK    2  A    between atoms: C_2  and  C_3
REMARK    3  A    between atoms: C_8  and  C_9
REMARK                            x       y       z     vdW  Elec       q    Type
REMARK                         _______ _______ _______ _____ _____    ______ ____
ROOT
ATOM      1  C   UNL     1      46.684   2.505   5.133  0.00  0.00    +0.000 C 
ATOM      2  C   UNL     1      47.239   2.302   6.545  0.00  0.00    +0.000 C 
ATOM      3  C   UNL     1      48.651   2.889   6.654  0.00  0.00    +0.000 C 
ATOM      4  N   UNL     1      47.276   0.830   6.834  0.00  0.00    +0.000 NA
ATOM      5  C   UNL     1      46.318   0.572   7.933  0.00  0.00    +0.000 C 
ATOM      6  C   UNL     1      45.793   1.890   8.371  0.00  0.00    +0.000 A 
ATOM      7  C   UNL     1      44.899   2.192   9.385  0.00  0.00    +0.000 A 
ATOM      8  C   UNL     1      44.549   3.532   9.574  0.00  0.00    +0.000 A 
ATOM      9  C   UNL     1      45.128   4.488   8.728  0.00  0.00    +0.000 A 
ATOM     10  N   UNL     1      46.011   4.206   7.729  0.00  0.00    +0.000 NA
ATOM     11  C   UNL     1      46.311   2.903   7.584  0.00  0.00    +0.000 A 
ATOM     12  H   UNL     1      48.207   0.590   7.169  0.00  0.00    +0.000 HD
ENDROOT
BRANCH   8  13
ATOM     13  C   UNL     1      43.600   4.001  10.613  0.00  0.00    +0.000 C 
ATOM     14  N   UNL     1      43.360   5.343  10.726  0.00  0.00    +0.000 N 
ATOM     15  O   UNL     1      43.036   3.214  11.363  0.00  0.00    +0.000 OA
ATOM     16  H   UNL     1      43.786   6.066  10.168  0.00  0.00    +0.000 HD
ATOM     17  H   UNL     1      42.716   5.630  11.452  0.00  0.00    +0.000 HD
ENDBRANCH   8  13
TORSDOF 1
ENDMDL
MODEL 2
REMARK VINA RESULT:    -6.144      2.254      5.292
REMARK INTER + INTRA:          -6.579
REMARK INTER:                  -6.509
REMARK INTRA:                  -0.070
REMARK UNBOUND:                -0.076
REMARK  Name = 
REMARK  3 active torsions:
REMARK  status: ('A' for Active; 'I' for Inactive)
REMARK    1  A    between atoms: C_1  and  C_2
REMARK    2  A    between atoms: C_2  and  C_3
REMARK    3  A    between atoms: C_8  and  C_9
REMARK                            x       y       z     vdW  Elec       q    Type
REMARK                         _______ _______ _______ _____ _____    ______ ____
ROOT
ATOM      1  C   UNL     1      44.764   5.327  12.789  0.00  0.00    +0.000 C 
ATOM      2  C   UNL     1      43.781   4.837  11.722  0.00  0.00    +0.000 C 
ATOM      3  C   UNL     1      42.773   5.938  11.378  0.00  0.00    +0.000 C 
ATOM      4  N   UNL     1      43.060   3.635  12.258  0.00  0.00    +0.000 NA
ATOM      5  C   UNL     1      43.452   2.477  11.424  0.00  0.00    +0.000 C 
ATOM      6  C   UNL     1      44.314   2.997  10.333  0.00  0.00    +0.000 A 
ATOM      7  C   UNL     1      44.906   2.325   9.278  0.00  0.00    +0.000 A 
ATOM      8  C   UNL     1      45.701   3.060   8.394  0.00  0.00    +0.000 A 
ATOM      9  C   UNL     1      45.846   4.434   8.629  0.00  0.00    +0.000 A 
ATOM     10  N   UNL     1      45.267   5.110   9.661  0.00  0.00    +0.000 NA
ATOM     11  C   UNL     1      44.518   4.358  10.486  0.00  0.00    +0.000 A 
ATOM     12  H   UNL     1      42.058   3.780  12.140  0.00  0.00    +0.000 HD
ENDROOT
BRANCH   8  13
ATOM     13  C   UNL     1      46.401   2.472   7.226  0.00  0.00    +0.000 C 
ATOM     14  N   UNL     1      47.044   1.274   7.380  0.00  0.00    +0.000 N 
ATOM     15  O   UNL     1      46.413   3.037   6.140  0.00  0.00    +0.000 OA
ATOM     16  H   UNL     1      47.103   0.744   8.234  0.00  0.00    +0.000 HD
ATOM     17  H   UNL     1      47.520   0.906   6.565  0.00  0.00    +0.000 HD
ENDBRANCH   8  13
TORSDOF 1
ENDMDL
MODEL 3
REMARK VINA RESULT:    -6.049      2.406      5.747
REMARK INTER + INTRA:          -6.479
REMARK INTER:                  -6.410
REMARK INTRA:                  -0.070
REMARK UNBOUND:                -0.076
REMARK  Name = 
REMARK  3 active torsions:
REMARK  status: ('A' for Active; 'I' for Inactive)
REMARK    1  A    between atoms: C_1  and  C_2
REMARK    2  A    between atoms: C_2  and  C_3
REMARK    3  A    between atoms: C_8  and  C_9
REMARK                            x       y       z     vdW  Elec       q    Type
REMARK                         _______ _______ _______ _____ _____    ______ ____
ROOT
ATOM      1  C   UNL     1      42.100   5.610  11.730  0.00  0.00    +0.000 C 
ATOM      2  C   UNL     1      43.555   5.219  12.003  0.00  0.00    +0.000 C 
ATOM      3  C   UNL     1      43.639   4.292  13.221  0.00  0.00    +0.000 C 
ATOM      4  N   UNL     1      44.342   6.469  12.260  0.00  0.00    +0.000 NA
ATOM      5  C   UNL     1      45.323   6.607  11.160  0.00  0.00    +0.000 C 
ATOM      6  C   UNL     1      45.199   5.395  10.311  0.00  0.00    +0.000 A 
ATOM      7  C   UNL     1      45.913   5.030   9.183  0.00  0.00    +0.000 A 
ATOM      8  C   UNL     1      45.573   3.831   8.550  0.00  0.00    +0.000 A 
ATOM      9  C   UNL     1      44.531   3.071   9.100  0.00  0.00    +0.000 A 
ATOM     10  N   UNL     1      43.822   3.416  10.211  0.00  0.00    +0.000 NA
ATOM     11  C   UNL     1      44.183   4.580  10.779  0.00  0.00    +0.000 A 
ATOM     12  H   UNL     1      44.862   6.351  13.129  0.00  0.00    +0.000 HD
ENDROOT
BRANCH   8  13
ATOM     13  C   UNL     1      46.245   3.319   7.332  0.00  0.00    +0.000 C 
ATOM     14  N   UNL     1      46.653   2.013   7.306  0.00  0.00    +0.000 N 
ATOM     15  O   UNL     1      46.440   4.039   6.360  0.00  0.00    +0.000 OA
ATOM     16  H   UNL     1      46.552   1.350   8.058  0.00  0.00    +0.000 HD
ATOM     17  H   UNL     1      47.117   1.698   6.464  0.00  0.00    +0.000 HD
ENDBRANCH   8  13
TORSDOF 1
ENDMDL
MODEL 4
REMARK VINA RESULT:    -5.901      3.840      5.871
REMARK INTER + INTRA:          -6.322
REMARK INTER:                  -6.257
REMARK INTRA:                  -0.066
REMARK UNBOUND:                -0.076
REMARK  Name = 
REMARK  3 active torsions:
REMARK  status: ('A' for Active; 'I' for Inactive)
REMARK    1  A    between atoms: C_1  and  C_2
REMARK    2  A    between atoms: C_2  and  C_3
REMARK    3  A    between atoms: C_8  and  C_9
REMARK                            x       y       z     vdW  Elec       q    Type
REMARK                         _______ _______ _______ _____ _____    ______ ____
ROOT
ATOM      1  C   UNL     1      48.214   7.580  11.917  0.00  0.00    +0.000 C 
ATOM      2  C   UNL     1      47.029   7.246  12.828  0.00  0.00    +0.000 C 
ATOM      3  C   UNL     1      46.212   8.508  13.125  0.00  0.00    +0.000 C 
ATOM      4  N   UNL     1      47.561   6.672  14.107  0.00  0.00    +0.000 NA
ATOM      5  C   UNL     1      47.109   5.264  14.181  0.00  0.00    +0.000 C 
ATOM      6  C   UNL     1      46.224   5.030  13.012  0.00  0.00    +0.000 A 
ATOM      7  C   UNL     1      45.526   3.891  12.647  0.00  0.00    +0.000 A 
ATOM      8  C   UNL     1      44.776   3.930  11.468  0.00  0.00    +0.000 A 
ATOM      9  C   UNL     1      44.774   5.122  10.730  0.00  0.00    +0.000 A 
ATOM     10  N   UNL     1      45.454   6.251  11.078  0.00  0.00    +0.000 NA
ATOM     11  C   UNL     1      46.164   6.161  12.216  0.00  0.00    +0.000 A 
ATOM     12  H   UNL     1      47.142   7.176  14.887  0.00  0.00    +0.000 HD
ENDROOT
BRANCH   8  13
ATOM     13  C   UNL     1      43.986   2.787  10.951  0.00  0.00    +0.000 C 
ATOM     14  N   UNL     1      44.431   2.132   9.835  0.00  0.00    +0.000 N 
ATOM     15  O   UNL     1      42.953   2.425  11.501  0.00  0.00    +0.000 OA
ATOM     16  H   UNL     1      45.256   2.364   9.306  0.00  0.00    +0.000 HD
ATOM     17  H   UNL     1      43.863   1.362   9.503  0.00  0.00    +0.000 HD
ENDBRANCH   8  13
TORSDOF 1
ENDMDL
MODEL 5
REMARK VINA RESULT:    -5.849      4.059      5.779
REMARK INTER + INTRA:          -6.267
REMARK INTER:                  -6.196
REMARK INTRA:                  -0.071
REMARK UNBOUND:                -0.076
REMARK  Name = 
REMARK  3 active torsions:
REMARK  status: ('A' for Active; 'I' for Inactive)
REMARK    1  A    between atoms: C_1  and  C_2
REMARK    2  A    between atoms: C_2  and  C_3
REMARK    3  A    between atoms: C_8  and  C_9
REMARK                            x       y       z     vdW  Elec       q    Type
REMARK                         _______ _______ _______ _____ _____    ______ ____
ROOT
ATOM      1  C   UNL     1      43.325   2.988  12.238  0.00  0.00    +0.000 C 
ATOM      2  C   UNL     1      44.706   3.441  11.757  0.00  0.00    +0.000 C 
ATOM      3  C   UNL     1      44.961   2.954  10.327  0.00  0.00    +0.000 C 
ATOM      4  N   UNL     1      45.741   2.870  12.681  0.00  0.00    +0.000 NA
ATOM      5  C   UNL     1      46.387   4.006  13.377  0.00  0.00    +0.000 C 
ATOM      6  C   UNL     1      45.821   5.250  12.796  0.00  0.00    +0.000 A 
ATOM      7  C   UNL     1      46.120   6.572  13.081  0.00  0.00    +0.000 A 
ATOM      8  C   UNL     1      45.412   7.566  12.398  0.00  0.00    +0.000 A 
ATOM      9  C   UNL     1      44.447   7.162  11.465  0.00  0.00    +0.000 A 
ATOM     10  N   UNL     1      44.145   5.866  11.173  0.00  0.00    +0.000 NA
ATOM     11  C   UNL     1      44.848   4.948  11.860  0.00  0.00    +0.000 A 
ATOM     12  H   UNL     1      46.452   2.402  12.120  0.00  0.00    +0.000 HD
ENDROOT
BRANCH   8  13
ATOM     13  C   UNL     1      45.619   9.020  12.605  0.00  0.00    +0.000 C 
ATOM     14  N   UNL     1      44.527   9.842  12.632  0.00  0.00    +0.000 N 
ATOM     15  O   UNL     1      46.741   9.489  12.748  0.00  0.00    +0.000 OA
ATOM     16  H   UNL     1      43.570   9.553  12.508  0.00  0.00    +0.000 HD
ATOM     17  H   UNL     1      44.704  10.830  12.765  0.00  0.00    +0.000 HD
ENDBRANCH   8  13
TORSDOF 1
ENDMDL
MODEL 6
REMARK VINA RESULT:    -5.691      4.167      5.995
REMARK INTER + INTRA:          -6.100
REMARK INTER:                  -6.032
REMARK INTRA:                  -0.068
REMARK UNBOUND:                -0.076
REMARK  Name = 
REMARK  3 active torsions:
REMARK  status: ('A' for Active; 'I' for Inactive)
REMARK    1  A    between atoms: C_1  and  C_2
REMARK    2  A    between atoms: C_2  and  C_3
REMARK    3  A    between atoms: C_8  and  C_9
REMARK                            x       y       z     vdW  Elec       q    Type
REMARK                         _______ _______ _______ _____ _____    ______ ____
ROOT
ATOM      1  C   UNL     1      44.948   2.856   9.913  0.00  0.00    +0.000 C 
ATOM      2  C   UNL     1      44.278   3.671  11.023  0.00  0.00    +0.000 C 
ATOM      3  C   UNL     1      43.135   2.871  11.657  0.00  0.00    +0.000 C 
ATOM      4  N   UNL     1      43.741   4.938  10.424  0.00  0.00    +0.000 NA
ATOM      5  C   UNL     1      44.497   6.062  11.021  0.00  0.00    +0.000 C 
ATOM      6  C   UNL     1      45.401   5.483  12.047  0.00  0.00    +0.000 A 
ATOM      7  C   UNL     1      46.285   6.117  12.903  0.00  0.00    +0.000 A 
ATOM      8  C   UNL     1      47.047   5.323  13.766  0.00  0.00    +0.000 A 
ATOM      9  C   UNL     1      46.864   3.934  13.713  0.00  0.00    +0.000 A 
ATOM     10  N   UNL     1      45.995   3.297  12.878  0.00  0.00    +0.000 NA
ATOM     11  C   UNL     1      45.292   4.104  12.064  0.00  0.00    +0.000 A 
ATOM     12  H   UNL     1      42.765   5.037  10.698  0.00  0.00    +0.000 HD
ENDROOT
BRANCH   8  13
ATOM     13  C   UNL     1      48.036   5.862  14.729  0.00  0.00    +0.000 C 
ATOM     14  N   UNL     1      47.874   5.589  16.060  0.00  0.00    +0.000 N 
ATOM     15  O   UNL     1      48.985   6.541  14.356  0.00  0.00    +0.000 OA
ATOM     16  H   UNL     1      47.120   5.056  16.463  0.00  0.00    +0.000 HD
ATOM     17  H   UNL     1      48.561   5.981  16.692  0.00  0.00    +0.000 HD
ENDBRANCH   8  13
TORSDOF 1
ENDMDL
MODEL 7
REMARK VINA RESULT:    -5.261      4.908      6.907
REMARK INTER + INTRA:          -5.645
REMARK INTER:                  -5.576
REMARK INTRA:                  -0.069
REMARK UNBOUND:                -0.076
REMARK  Name = 
REMARK  3 active torsions:
REMARK  status: ('A' for Active; 'I' for Inactive)
REMARK    1  A    between atoms: C_1  and  C_2
REMARK    2  A    between atoms: C_2  and  C_3
REMARK    3  A    between atoms: C_8  and  C_9
REMARK                            x       y       z     vdW  Elec       q    Type
REMARK                         _______ _______ _______ _____ _____    ______ ____
ROOT
ATOM      1  C   UNL     1      43.866   4.770  10.373  0.00  0.00    +0.000 C 
ATOM      2  C   UNL     1      43.768   5.681  11.600  0.00  0.00    +0.000 C 
ATOM      3  C   UNL     1      42.679   5.177  12.554  0.00  0.00    +0.000 C 
ATOM      4  N   UNL     1      43.436   7.068  11.137  0.00  0.00    +0.000 NA
ATOM      5  C   UNL     1      44.594   7.932  11.463  0.00  0.00    +0.000 C 
ATOM      6  C   UNL     1      45.564   7.093  12.212  0.00  0.00    +0.000 A 
ATOM      7  C   UNL     1      46.785   7.438  12.766  0.00  0.00    +0.000 A 
ATOM      8  C   UNL     1      47.522   6.436  13.405  0.00  0.00    +0.000 A 
ATOM      9  C   UNL     1      46.976   5.146  13.449  0.00  0.00    +0.000 A 
ATOM     10  N   UNL     1      45.775   4.793  12.911  0.00  0.00    +0.000 NA
ATOM     11  C   UNL     1      45.108   5.790  12.302  0.00  0.00    +0.000 A 
ATOM     12  H   UNL     1      42.636   7.405  11.670  0.00  0.00    +0.000 HD
ENDROOT
BRANCH   8  13
ATOM     13  C   UNL     1      48.846   6.658  14.037  0.00  0.00    +0.000 C 
ATOM     14  N   UNL     1      49.824   7.280  13.311  0.00  0.00    +0.000 N 
ATOM     15  O   UNL     1      49.073   6.295  15.184  0.00  0.00    +0.000 OA
ATOM     16  H   UNL     1      49.738   7.599  12.359  0.00  0.00    +0.000 HD
ATOM     17  H   UNL     1      50.719   7.406  13.768  0.00  0.00    +0.000 HD
ENDBRANCH   8  13
TORSDOF 1
ENDMDL
MODEL 8
REMARK VINA RESULT:    -5.126      4.228      6.211
REMARK INTER + INTRA:          -5.502
REMARK INTER:                  -5.431
REMARK INTRA:                  -0.070
REMARK UNBOUND:                -0.076
REMARK  Name = 
REMARK  3 active torsions:
REMARK  status: ('A' for Active; 'I' for Inactive)
REMARK    1  A    between atoms: C_1  and  C_2
REMARK    2  A    between atoms: C_2  and  C_3
REMARK    3  A    between atoms: C_8  and  C_9
REMARK                            x       y       z     vdW  Elec       q    Type
REMARK                         _______ _______ _______ _____ _____    ______ ____
ROOT
ATOM      1  C   UNL     1      44.422   3.370  10.113  0.00  0.00    +0.000 C 
ATOM      2  C   UNL     1      43.875   4.005  11.394  0.00  0.00    +0.000 C 
ATOM      3  C   UNL     1      43.415   2.920  12.374  0.00  0.00    +0.000 C 
ATOM      4  N   UNL     1      42.716   4.886  11.030  0.00  0.00    +0.000 NA
ATOM      5  C   UNL     1      43.106   6.279  11.343  0.00  0.00    +0.000 C 
ATOM      6  C   UNL     1      44.442   6.223  11.988  0.00  0.00    +0.000 A 
ATOM      7  C   UNL     1      45.221   7.249  12.495  0.00  0.00    +0.000 A 
ATOM      8  C   UNL     1      46.469   6.921  13.035  0.00  0.00    +0.000 A 
ATOM      9  C   UNL     1      46.850   5.572  13.034  0.00  0.00    +0.000 A 
ATOM     10  N   UNL     1      46.092   4.552  12.542  0.00  0.00    +0.000 NA
ATOM     11  C   UNL     1      44.905   4.920  12.028  0.00  0.00    +0.000 A 
ATOM     12  H   UNL     1      41.925   4.642  11.624  0.00  0.00    +0.000 HD
ENDROOT
BRANCH   8  13
ATOM     13  C   UNL     1      47.411   7.913  13.606  0.00  0.00    +0.000 C 
ATOM     14  N   UNL     1      46.910   8.930  14.372  0.00  0.00    +0.000 N 
ATOM     15  O   UNL     1      48.616   7.838  13.403  0.00  0.00    +0.000 OA
ATOM     16  H   UNL     1      45.936   9.085  14.580  0.00  0.00    +0.000 HD
ATOM     17  H   UNL     1      47.579   9.596  14.738  0.00  0.00    +0.000 HD
ENDBRANCH   8  13
TORSDOF 1
ENDMDL
MODEL 9
REMARK VINA RESULT:    -4.981      4.238      5.838
REMARK INTER + INTRA:          -5.348
REMARK INTER:                  -5.281
REMARK INTRA:                  -0.067
REMARK UNBOUND:                -0.076
REMARK  Name = 
REMARK  3 active torsions:
REMARK  status: ('A' for Active; 'I' for Inactive)
REMARK    1  A    between atoms: C_1  and  C_2
REMARK    2  A    between atoms: C_2  and  C_3
REMARK    3  A    between atoms: C_8  and  C_9
REMARK                            x       y       z     vdW  Elec       q    Type
REMARK                         _______ _______ _______ _____ _____    ______ ____
ROOT
ATOM      1  C   UNL     1      42.663   5.045  11.334  0.00  0.00    +0.000 C 
ATOM      2  C   UNL     1      44.008   4.393  11.001  0.00  0.00    +0.000 C 
ATOM      3  C   UNL     1      44.264   4.438   9.491  0.00  0.00    +0.000 C 
ATOM      4  N   UNL     1      43.973   2.968  11.469  0.00  0.00    +0.000 NA
ATOM      5  C   UNL     1      44.974   2.834  12.552  0.00  0.00    +0.000 C 
ATOM      6  C   UNL     1      45.678   4.138  12.657  0.00  0.00    +0.000 A 
ATOM      7  C   UNL     1      46.717   4.515  13.490  0.00  0.00    +0.000 A 
ATOM      8  C   UNL     1      47.185   5.830  13.403  0.00  0.00    +0.000 A 
ATOM      9  C   UNL     1      46.574   6.683  12.473  0.00  0.00    +0.000 A 
ATOM     10  N   UNL     1      45.553   6.325  11.645  0.00  0.00    +0.000 NA
ATOM     11  C   UNL     1      45.136   5.053  11.772  0.00  0.00    +0.000 A 
ATOM     12  H   UNL     1      44.264   2.368  10.699  0.00  0.00    +0.000 HD
ENDROOT
BRANCH   8  13
ATOM     13  C   UNL     1      48.284   6.375  14.235  0.00  0.00    +0.000 C 
ATOM     14  N   UNL     1      48.116   6.430  15.591  0.00  0.00    +0.000 N 
ATOM     15  O   UNL     1      49.328   6.771  13.732  0.00  0.00    +0.000 OA
ATOM     16  H   UNL     1      47.291   6.144  16.094  0.00  0.00    +0.000 HD
ATOM     17  H   UNL     1      48.881   6.817  16.130  0.00  0.00    +0.000 HD
ENDBRANCH   8  13
TORSDOF 1
ENDMDL
