MODEL 1
REMARK VINA RESULT:    -8.453      0.000      0.000
REMARK INTER + INTRA:         -11.588
REMARK INTER:                 -10.923
REMARK INTRA:                  -0.665
REMARK UNBOUND:                -0.665
REMARK  Name = 
REMARK  5 active torsions:
REMARK  status: ('A' for Active; 'I' for Inactive)
REMARK    1  A    between atoms: C_2  and  C_3
REMARK    2  A    between atoms: C_7  and  N_8
REMARK    3  A    between atoms: N_8  and  C_9
REMARK    4  A    between atoms: C_9  and  C_10
REMARK    5  A    between atoms: C_14  and  C_15
REMARK                            x       y       z     vdW  Elec       q    Type
REMARK                         _______ _______ _______ _____ _____    ______ ____
ROOT
ATOM      1  C   UNL     1      43.645   5.133  10.911  0.00  0.00    +0.000 A 
ATOM      2  C   UNL     1      42.982   4.189  11.703  0.00  0.00    +0.000 A 
ATOM      3  C   UNL     1      43.210   2.828  11.511  0.00  0.00    +0.000 A 
ATOM      4  C   UNL     1      44.088   2.396  10.514  0.00  0.00    +0.000 A 
ATOM      5  C   UNL     1      44.755   3.311   9.681  0.00  0.00    +0.000 A 
ATOM      6  C   UNL     1      44.543   4.681   9.927  0.00  0.00    +0.000 A 
ENDROOT
BRANCH   5   7
ATOM      7  C   UNL     1      45.597   2.853   8.547  0.00  0.00    +0.000 A 
ATOM      8  C   UNL     1      46.023   3.733   7.535  0.00  0.00    +0.000 A 
ATOM      9  C   UNL     1      46.780   3.285   6.444  0.00  0.00    +0.000 A 
ATOM     10  C   UNL     1      47.139   1.945   6.352  0.00  0.00    +0.000 A 
ATOM     11  C   UNL     1      46.730   1.066   7.342  0.00  0.00    +0.000 A 
ATOM     12  F   UNL     1      47.068  -0.229   7.257  0.00  0.00    +0.000 F 
ATOM     13  C   UNL     1      45.964   1.501   8.420  0.00  0.00    +0.000 A 
ENDBRANCH   5   7
BRANCH   1  14
ATOM     14  C   UNL     1      43.366   6.611  11.061  0.00  0.00    +0.000 C 
BRANCH  14  15
ATOM     15  N   UNL     1      44.011   7.146  12.247  0.00  0.00    +0.000 N 
ATOM     16  H   UNL     1      43.385   7.308  13.031  0.00  0.00    +0.000 HD
BRANCH  15  21
ATOM     17  C   UNL     1      46.959   5.249  13.540  0.00  0.00    +0.000 A 
ATOM     18  C   UNL     1      47.958   6.037  12.990  0.00  0.00    +0.000 A 
ATOM     19  N   UNL     1      47.710   7.152  12.268  0.00  0.00    +0.000 NA
ATOM     20  C   UNL     1      46.405   7.480  12.085  0.00  0.00    +0.000 A 
ATOM     21  C   UNL     1      45.308   6.776  12.598  0.00  0.00    +0.000 A 
ATOM     22  C   UNL     1      45.626   5.624  13.331  0.00  0.00    +0.000 A 
BRANCH  17  24
ATOM     23  N   UNL     1      47.568   3.126  14.901  0.00  0.00    +0.000 NA
ATOM     24  C   UNL     1      47.296   4.076  14.292  0.00  0.00    +0.000 C 
ENDBRANCH  17  24
ENDBRANCH  15  21
ENDBRANCH  14  15
ENDBRANCH   1  14
TORSDOF 5
ENDMDL
MODEL 2
REMARK VINA RESULT:    -8.176      1.274      2.398
REMARK INTER + INTRA:         -11.230
REMARK INTER:                 -10.413
REMARK INTRA:                  -0.817
REMARK UNBOUND:                -0.665
REMARK  Name = 
REMARK  5 active torsions:
REMARK  status: ('A' for Active; 'I' for Inactive)
REMARK    1  A    between atoms: C_2  and  C_3
REMARK    2  A    between atoms: C_7  and  N_8
REMARK    3  A    between atoms: N_8  and  C_9
REMARK    4  A    between atoms: C_9  and  C_10
REMARK    5  A    between atoms: C_14  and  C_15
REMARK                            x       y       z     vdW  Elec       q    Type
REMARK                         _______ _______ _______ _____ _____    ______ ____
ROOT
ATOM      1  C   UNL     1      44.090   5.254  11.138  0.00  0.00    +0.000 A 
ATOM      2  C   UNL     1      43.270   4.362  11.837  0.00  0.00    +0.000 A 
ATOM      3  C   UNL     1      43.281   3.005  11.522  0.00  0.00    +0.000 A 
ATOM      4  C   UNL     1      44.098   2.529  10.494  0.00  0.00    +0.000 A 
ATOM      5  C   UNL     1      44.918   3.395   9.751  0.00  0.00    +0.000 A 
ATOM      6  C   UNL     1      44.923   4.754  10.120  0.00  0.00    +0.000 A 
ENDROOT
BRANCH   5   7
ATOM      7  C   UNL     1      45.698   2.912   8.584  0.00  0.00    +0.000 A 
ATOM      8  C   UNL     1      46.108   3.778   7.554  0.00  0.00    +0.000 A 
ATOM      9  C   UNL     1      46.805   3.308   6.433  0.00  0.00    +0.000 A 
ATOM     10  C   UNL     1      47.118   1.957   6.327  0.00  0.00    +0.000 A 
ATOM     11  C   UNL     1      46.723   1.090   7.334  0.00  0.00    +0.000 A 
ATOM     12  F   UNL     1      47.018  -0.214   7.236  0.00  0.00    +0.000 F 
ATOM     13  C   UNL     1      46.017   1.549   8.443  0.00  0.00    +0.000 A 
ENDBRANCH   5   7
BRANCH   1  14
ATOM     14  C   UNL     1      44.049   6.739  11.422  0.00  0.00    +0.000 C 
BRANCH  14  15
ATOM     15  N   UNL     1      44.811   7.063  12.614  0.00  0.00    +0.000 N 
ATOM     16  H   UNL     1      44.376   6.771  13.486  0.00  0.00    +0.000 HD
BRANCH  15  21
ATOM     17  C   UNL     1      48.404   8.022  12.249  0.00  0.00    +0.000 A 
ATOM     18  C   UNL     1      48.964   6.955  12.933  0.00  0.00    +0.000 A 
ATOM     19  N   UNL     1      48.234   5.946  13.458  0.00  0.00    +0.000 NA
ATOM     20  C   UNL     1      46.889   6.020  13.296  0.00  0.00    +0.000 A 
ATOM     21  C   UNL     1      46.205   7.036  12.616  0.00  0.00    +0.000 A 
ATOM     22  C   UNL     1      47.011   8.060  12.100  0.00  0.00    +0.000 A 
BRANCH  17  24
ATOM     23  N   UNL     1      49.917   9.902  11.294  0.00  0.00    +0.000 NA
ATOM     24  C   UNL     1      49.239   9.060  11.721  0.00  0.00    +0.000 C 
ENDBRANCH  17  24
ENDBRANCH  15  21
ENDBRANCH  14  15
ENDBRANCH   1  14
TORSDOF 5
ENDMDL
MODEL 3
REMARK VINA RESULT:    -7.982      3.733      6.558
REMARK INTER + INTRA:         -10.980
REMARK INTER:                 -10.081
REMARK INTRA:                  -0.900
REMARK UNBOUND:                -0.665
REMARK  Name = 
REMARK  5 active torsions:
REMARK  status: ('A' for Active; 'I' for Inactive)
REMARK    1  A    between atoms: C_2  and  C_3
REMARK    2  A    between atoms: C_7  and  N_8
REMARK    3  A    between atoms: N_8  and  C_9
REMARK    4  A    between atoms: C_9  and  C_10
REMARK    5  A    between atoms: C_14  and  C_15
REMARK                            x       y       z     vdW  Elec       q    Type
REMARK                         _______ _______ _______ _____ _____    ______ ____
ROOT
ATOM      1  C   UNL     1      44.770   4.521  11.676  0.00  0.00    +0.000 A 
ATOM      2  C   UNL     1      45.413   3.631  12.542  0.00  0.00    +0.000 A 
ATOM      3  C   UNL     1      46.498   4.055  13.305  0.00  0.00    +0.000 A 
ATOM      4  C   UNL     1      46.963   5.368  13.197  0.00  0.00    +0.000 A 
ATOM      5  C   UNL     1      46.360   6.287  12.321  0.00  0.00    +0.000 A 
ATOM      6  C   UNL     1      45.236   5.846  11.596  0.00  0.00    +0.000 A 
ENDROOT
BRANCH   5   7
ATOM      7  C   UNL     1      46.922   7.646  12.116  0.00  0.00    +0.000 A 
ATOM      8  C   UNL     1      48.293   7.855  11.878  0.00  0.00    +0.000 A 
ATOM      9  C   UNL     1      48.824   9.143  11.731  0.00  0.00    +0.000 A 
ATOM     10  C   UNL     1      47.988  10.252  11.805  0.00  0.00    +0.000 A 
ATOM     11  C   UNL     1      46.634  10.063  12.036  0.00  0.00    +0.000 A 
ATOM     12  F   UNL     1      45.823  11.127  12.114  0.00  0.00    +0.000 F 
ATOM     13  C   UNL     1      46.103   8.786  12.199  0.00  0.00    +0.000 A 
ENDBRANCH   5   7
BRANCH   1  14
ATOM     14  C   UNL     1      43.629   4.065  10.794  0.00  0.00    +0.000 C 
BRANCH  14  15
ATOM     15  N   UNL     1      43.908   4.338   9.396  0.00  0.00    +0.000 N 
ATOM     16  H   UNL     1      43.661   5.276   9.091  0.00  0.00    +0.000 HD
BRANCH  15  21
ATOM     17  C   UNL     1      46.323   1.922   7.882  0.00  0.00    +0.000 A 
ATOM     18  C   UNL     1      47.128   2.836   7.218  0.00  0.00    +0.000 A 
ATOM     19  N   UNL     1      46.937   4.173   7.280  0.00  0.00    +0.000 NA
ATOM     20  C   UNL     1      45.891   4.604   8.029  0.00  0.00    +0.000 A 
ATOM     21  C   UNL     1      45.016   3.786   8.755  0.00  0.00    +0.000 A 
ATOM     22  C   UNL     1      45.256   2.409   8.648  0.00  0.00    +0.000 A 
BRANCH  17  24
ATOM     23  N   UNL     1      46.792  -0.621   7.679  0.00  0.00    +0.000 NA
ATOM     24  C   UNL     1      46.582   0.517   7.769  0.00  0.00    +0.000 C 
ENDBRANCH  17  24
ENDBRANCH  15  21
ENDBRANCH  14  15
ENDBRANCH   1  14
TORSDOF 5
ENDMDL
MODEL 4
REMARK VINA RESULT:    -7.904      3.641      6.732
REMARK INTER + INTRA:         -10.879
REMARK INTER:                 -10.130
REMARK INTRA:                  -0.749
REMARK UNBOUND:                -0.665
REMARK  Name = 
REMARK  5 active torsions:
REMARK  status: ('A' for Active; 'I' for Inactive)
REMARK    1  A    between atoms: C_2  and  C_3
REMARK    2  A    between atoms: C_7  and  N_8
REMARK    3  A    between atoms: N_8  and  C_9
REMARK    4  A    between atoms: C_9  and  C_10
REMARK    5  A    between atoms: C_14  and  C_15
REMARK                            x       y       z     vdW  Elec       q    Type
REMARK                         _______ _______ _______ _____ _____    ______ ____
ROOT
ATOM      1  C   UNL     1      44.831   4.957  11.305  0.00  0.00    +0.000 A 
ATOM      2  C   UNL     1      45.161   4.037  12.306  0.00  0.00    +0.000 A 
ATOM      3  C   UNL     1      46.146   4.343  13.242  0.00  0.00    +0.000 A 
ATOM      4  C   UNL     1      46.823   5.563  13.177  0.00  0.00    +0.000 A 
ATOM      5  C   UNL     1      46.538   6.505  12.174  0.00  0.00    +0.000 A 
ATOM      6  C   UNL     1      45.506   6.190  11.268  0.00  0.00    +0.000 A 
ENDROOT
BRANCH   5   7
ATOM      7  C   UNL     1      47.334   7.750  12.032  0.00  0.00    +0.000 A 
ATOM      8  C   UNL     1      46.756   9.023  12.186  0.00  0.00    +0.000 A 
ATOM      9  C   UNL     1      47.503  10.195  12.007  0.00  0.00    +0.000 A 
ATOM     10  C   UNL     1      48.853  10.115  11.682  0.00  0.00    +0.000 A 
ATOM     11  C   UNL     1      49.438   8.868  11.529  0.00  0.00    +0.000 A 
ATOM     12  F   UNL     1      50.738   8.782  11.210  0.00  0.00    +0.000 F 
ATOM     13  C   UNL     1      48.698   7.700  11.690  0.00  0.00    +0.000 A 
ENDBRANCH   5   7
BRANCH   1  14
ATOM     14  C   UNL     1      43.808   4.621  10.242  0.00  0.00    +0.000 C 
BRANCH  14  15
ATOM     15  N   UNL     1      44.422   4.563   8.928  0.00  0.00    +0.000 N 
ATOM     16  H   UNL     1      44.858   5.430   8.627  0.00  0.00    +0.000 HD
BRANCH  15  21
ATOM     17  C   UNL     1      46.704   2.195   7.155  0.00  0.00    +0.000 A 
ATOM     18  C   UNL     1      46.365   1.040   7.843  0.00  0.00    +0.000 A 
ATOM     19  N   UNL     1      45.418   1.003   8.807  0.00  0.00    +0.000 NA
ATOM     20  C   UNL     1      44.797   2.175   9.095  0.00  0.00    +0.000 A 
ATOM     21  C   UNL     1      45.041   3.403   8.466  0.00  0.00    +0.000 A 
ATOM     22  C   UNL     1      46.038   3.383   7.481  0.00  0.00    +0.000 A 
BRANCH  17  24
ATOM     23  N   UNL     1      48.545   2.132   5.328  0.00  0.00    +0.000 NA
ATOM     24  C   UNL     1      47.722   2.161   6.146  0.00  0.00    +0.000 C 
ENDBRANCH  17  24
ENDBRANCH  15  21
ENDBRANCH  14  15
ENDBRANCH   1  14
TORSDOF 5
ENDMDL
MODEL 5
REMARK VINA RESULT:    -7.641      3.558      7.281
REMARK INTER + INTRA:         -10.539
REMARK INTER:                  -9.772
REMARK INTRA:                  -0.767
REMARK UNBOUND:                -0.665
REMARK  Name = 
REMARK  5 active torsions:
REMARK  status: ('A' for Active; 'I' for Inactive)
REMARK    1  A    between atoms: C_2  and  C_3
REMARK    2  A    between atoms: C_7  and  N_8
REMARK    3  A    between atoms: N_8  and  C_9
REMARK    4  A    between atoms: C_9  and  C_10
REMARK    5  A    between atoms: C_14  and  C_15
REMARK                            x       y       z     vdW  Elec       q    Type
REMARK                         _______ _______ _______ _____ _____    ______ ____
ROOT
ATOM      1  C   UNL     1      46.190   6.062  11.752  0.00  0.00    +0.000 A 
ATOM      2  C   UNL     1      47.100   6.954  11.175  0.00  0.00    +0.000 A 
ATOM      3  C   UNL     1      48.258   7.316  11.859  0.00  0.00    +0.000 A 
ATOM      4  C   UNL     1      48.509   6.804  13.134  0.00  0.00    +0.000 A 
ATOM      5  C   UNL     1      47.609   5.924  13.760  0.00  0.00    +0.000 A 
ATOM      6  C   UNL     1      46.470   5.539  13.027  0.00  0.00    +0.000 A 
ENDROOT
BRANCH   5   7
ATOM      7  C   UNL     1      47.815   5.471  15.158  0.00  0.00    +0.000 A 
ATOM      8  C   UNL     1      48.687   6.140  16.036  0.00  0.00    +0.000 A 
ATOM      9  C   UNL     1      48.910   5.681  17.341  0.00  0.00    +0.000 A 
ATOM     10  C   UNL     1      48.251   4.546  17.800  0.00  0.00    +0.000 A 
ATOM     11  C   UNL     1      47.386   3.877  16.949  0.00  0.00    +0.000 A 
ATOM     12  F   UNL     1      46.750   2.779  17.382  0.00  0.00    +0.000 F 
ATOM     13  C   UNL     1      47.171   4.319  15.646  0.00  0.00    +0.000 A 
ENDBRANCH   5   7
BRANCH   1  14
ATOM     14  C   UNL     1      44.898   5.703  11.052  0.00  0.00    +0.000 C 
BRANCH  14  15
ATOM     15  N   UNL     1      45.117   5.473   9.636  0.00  0.00    +0.000 N 
ATOM     16  H   UNL     1      45.689   6.178   9.177  0.00  0.00    +0.000 HD
BRANCH  15  21
ATOM     17  C   UNL     1      46.374   2.468   7.806  0.00  0.00    +0.000 A 
ATOM     18  C   UNL     1      45.550   1.520   8.392  0.00  0.00    +0.000 A 
ATOM     19  N   UNL     1      44.602   1.825   9.306  0.00  0.00    +0.000 NA
ATOM     20  C   UNL     1      44.487   3.134   9.649  0.00  0.00    +0.000 A 
ATOM     21  C   UNL     1      45.249   4.184   9.121  0.00  0.00    +0.000 A 
ATOM     22  C   UNL     1      46.221   3.807   8.184  0.00  0.00    +0.000 A 
BRANCH  17  24
ATOM     23  N   UNL     1      48.160   1.748   6.066  0.00  0.00    +0.000 NA
ATOM     24  C   UNL     1      47.361   2.071   6.845  0.00  0.00    +0.000 C 
ENDBRANCH  17  24
ENDBRANCH  15  21
ENDBRANCH  14  15
ENDBRANCH   1  14
TORSDOF 5
ENDMDL
MODEL 6
REMARK VINA RESULT:    -7.547      1.702      2.480
REMARK INTER + INTRA:         -10.417
REMARK INTER:                  -9.595
REMARK INTRA:                  -0.822
REMARK UNBOUND:                -0.665
REMARK  Name = 
REMARK  5 active torsions:
REMARK  status: ('A' for Active; 'I' for Inactive)
REMARK    1  A    between atoms: C_2  and  C_3
REMARK    2  A    between atoms: C_7  and  N_8
REMARK    3  A    between atoms: N_8  and  C_9
REMARK    4  A    between atoms: C_9  and  C_10
REMARK    5  A    between atoms: C_14  and  C_15
REMARK                            x       y       z     vdW  Elec       q    Type
REMARK                         _______ _______ _______ _____ _____    ______ ____
ROOT
ATOM      1  C   UNL     1      45.200   6.300  11.347  0.00  0.00    +0.000 A 
ATOM      2  C   UNL     1      43.844   6.214  11.682  0.00  0.00    +0.000 A 
ATOM      3  C   UNL     1      43.050   5.208  11.136  0.00  0.00    +0.000 A 
ATOM      4  C   UNL     1      43.597   4.289  10.238  0.00  0.00    +0.000 A 
ATOM      5  C   UNL     1      44.949   4.356   9.857  0.00  0.00    +0.000 A 
ATOM      6  C   UNL     1      45.740   5.353  10.458  0.00  0.00    +0.000 A 
ENDROOT
BRANCH   5   7
ATOM      7  C   UNL     1      45.504   3.456   8.815  0.00  0.00    +0.000 A 
ATOM      8  C   UNL     1      45.613   2.067   9.013  0.00  0.00    +0.000 A 
ATOM      9  C   UNL     1      46.179   1.230   8.043  0.00  0.00    +0.000 A 
ATOM     10  C   UNL     1      46.637   1.766   6.844  0.00  0.00    +0.000 A 
ATOM     11  C   UNL     1      46.535   3.131   6.633  0.00  0.00    +0.000 A 
ATOM     12  F   UNL     1      46.980   3.656   5.482  0.00  0.00    +0.000 F 
ATOM     13  C   UNL     1      45.988   3.971   7.599  0.00  0.00    +0.000 A 
ENDBRANCH   5   7
BRANCH   1  14
ATOM     14  C   UNL     1      46.066   7.420  11.879  0.00  0.00    +0.000 C 
BRANCH  14  15
ATOM     15  N   UNL     1      47.391   6.937  12.224  0.00  0.00    +0.000 N 
ATOM     16  H   UNL     1      48.140   7.313  11.649  0.00  0.00    +0.000 HD
BRANCH  15  21
ATOM     17  C   UNL     1      47.733   5.297  15.564  0.00  0.00    +0.000 A 
ATOM     18  C   UNL     1      48.745   6.097  16.074  0.00  0.00    +0.000 A 
ATOM     19  N   UNL     1      49.273   7.143  15.400  0.00  0.00    +0.000 NA
ATOM     20  C   UNL     1      48.771   7.387  14.163  0.00  0.00    +0.000 A 
ATOM     21  C   UNL     1      47.744   6.663  13.544  0.00  0.00    +0.000 A 
ATOM     22  C   UNL     1      47.240   5.585  14.285  0.00  0.00    +0.000 A 
BRANCH  17  24
ATOM     23  N   UNL     1      46.808   3.314  16.957  0.00  0.00    +0.000 NA
ATOM     24  C   UNL     1      47.222   4.201  16.333  0.00  0.00    +0.000 C 
ENDBRANCH  17  24
ENDBRANCH  15  21
ENDBRANCH  14  15
ENDBRANCH   1  14
TORSDOF 5
ENDMDL
MODEL 7
REMARK VINA RESULT:    -7.430      1.972      2.854
REMARK INTER + INTRA:         -10.267
REMARK INTER:                  -9.605
REMARK INTRA:                  -0.662
REMARK UNBOUND:                -0.665
REMARK  Name = 
REMARK  5 active torsions:
REMARK  status: ('A' for Active; 'I' for Inactive)
REMARK    1  A    between atoms: C_2  and  C_3
REMARK    2  A    between atoms: C_7  and  N_8
REMARK    3  A    between atoms: N_8  and  C_9
REMARK    4  A    between atoms: C_9  and  C_10
REMARK    5  A    between atoms: C_14  and  C_15
REMARK                            x       y       z     vdW  Elec       q    Type
REMARK                         _______ _______ _______ _____ _____    ______ ____
ROOT
ATOM      1  C   UNL     1      44.590   5.444  10.974  0.00  0.00    +0.000 A 
ATOM      2  C   UNL     1      43.576   4.741  11.635  0.00  0.00    +0.000 A 
ATOM      3  C   UNL     1      43.304   3.418  11.295  0.00  0.00    +0.000 A 
ATOM      4  C   UNL     1      44.030   2.789  10.281  0.00  0.00    +0.000 A 
ATOM      5  C   UNL     1      45.040   3.467   9.576  0.00  0.00    +0.000 A 
ATOM      6  C   UNL     1      45.326   4.788   9.970  0.00  0.00    +0.000 A 
ENDROOT
BRANCH   5   7
ATOM      7  C   UNL     1      45.731   2.841   8.422  0.00  0.00    +0.000 A 
ATOM      8  C   UNL     1      46.159   1.501   8.448  0.00  0.00    +0.000 A 
ATOM      9  C   UNL     1      46.851   0.930   7.372  0.00  0.00    +0.000 A 
ATOM     10  C   UNL     1      47.116   1.687   6.237  0.00  0.00    +0.000 A 
ATOM     11  C   UNL     1      46.699   3.008   6.193  0.00  0.00    +0.000 A 
ATOM     12  F   UNL     1      46.956   3.747   5.104  0.00  0.00    +0.000 F 
ATOM     13  C   UNL     1      46.025   3.587   7.265  0.00  0.00    +0.000 A 
ENDBRANCH   5   7
BRANCH   1  14
ATOM     14  C   UNL     1      44.861   6.899  11.284  0.00  0.00    +0.000 C 
BRANCH  14  15
ATOM     15  N   UNL     1      45.264   7.072  12.668  0.00  0.00    +0.000 N 
ATOM     16  H   UNL     1      44.739   6.509  13.334  0.00  0.00    +0.000 HD
BRANCH  15  21
ATOM     17  C   UNL     1      48.393   8.633  13.984  0.00  0.00    +0.000 A 
ATOM     18  C   UNL     1      49.218   7.521  13.904  0.00  0.00    +0.000 A 
ATOM     19  N   UNL     1      48.810   6.330  13.413  0.00  0.00    +0.000 NA
ATOM     20  C   UNL     1      47.520   6.252  12.998  0.00  0.00    +0.000 A 
ATOM     21  C   UNL     1      46.594   7.303  13.015  0.00  0.00    +0.000 A 
ATOM     22  C   UNL     1      47.070   8.512  13.541  0.00  0.00    +0.000 A 
BRANCH  17  24
ATOM     23  N   UNL     1      49.299  10.863  14.952  0.00  0.00    +0.000 NA
ATOM     24  C   UNL     1      48.893   9.865  14.518  0.00  0.00    +0.000 C 
ENDBRANCH  17  24
ENDBRANCH  15  21
ENDBRANCH  14  15
ENDBRANCH   1  14
TORSDOF 5
ENDMDL
MODEL 8
REMARK VINA RESULT:    -7.342      2.293      3.592
REMARK INTER + INTRA:         -10.153
REMARK INTER:                  -9.592
REMARK INTRA:                  -0.561
REMARK UNBOUND:                -0.665
REMARK  Name = 
REMARK  5 active torsions:
REMARK  status: ('A' for Active; 'I' for Inactive)
REMARK    1  A    between atoms: C_2  and  C_3
REMARK    2  A    between atoms: C_7  and  N_8
REMARK    3  A    between atoms: N_8  and  C_9
REMARK    4  A    between atoms: C_9  and  C_10
REMARK    5  A    between atoms: C_14  and  C_15
REMARK                            x       y       z     vdW  Elec       q    Type
REMARK                         _______ _______ _______ _____ _____    ______ ____
ROOT
ATOM      1  C   UNL     1      45.121   4.676  12.916  0.00  0.00    +0.000 A 
ATOM      2  C   UNL     1      43.802   5.142  12.916  0.00  0.00    +0.000 A 
ATOM      3  C   UNL     1      43.005   4.992  11.784  0.00  0.00    +0.000 A 
ATOM      4  C   UNL     1      43.523   4.391  10.635  0.00  0.00    +0.000 A 
ATOM      5  C   UNL     1      44.850   3.930  10.585  0.00  0.00    +0.000 A 
ATOM      6  C   UNL     1      45.620   4.052  11.758  0.00  0.00    +0.000 A 
ENDROOT
BRANCH   5   7
ATOM      7  C   UNL     1      45.438   3.398   9.330  0.00  0.00    +0.000 A 
ATOM      8  C   UNL     1      45.790   4.239   8.259  0.00  0.00    +0.000 A 
ATOM      9  C   UNL     1      46.304   3.726   7.061  0.00  0.00    +0.000 A 
ATOM     10  C   UNL     1      46.489   2.355   6.915  0.00  0.00    +0.000 A 
ATOM     11  C   UNL     1      46.149   1.513   7.962  0.00  0.00    +0.000 A 
ATOM     12  F   UNL     1      46.320   0.190   7.828  0.00  0.00    +0.000 F 
ATOM     13  C   UNL     1      45.624   2.015   9.150  0.00  0.00    +0.000 A 
ENDBRANCH   5   7
BRANCH   1  14
ATOM     14  C   UNL     1      46.023   4.883  14.112  0.00  0.00    +0.000 C 
BRANCH  14  15
ATOM     15  N   UNL     1      46.744   3.666  14.440  0.00  0.00    +0.000 N 
ATOM     16  H   UNL     1      47.176   3.204  13.643  0.00  0.00    +0.000 HD
BRANCH  15  21
ATOM     17  C   UNL     1      49.258   2.691  17.026  0.00  0.00    +0.000 A 
ATOM     18  C   UNL     1      48.870   3.573  18.022  0.00  0.00    +0.000 A 
ATOM     19  N   UNL     1      47.824   4.420  17.896  0.00  0.00    +0.000 NA
ATOM     20  C   UNL     1      47.150   4.383  16.718  0.00  0.00    +0.000 A 
ATOM     21  C   UNL     1      47.435   3.532  15.643  0.00  0.00    +0.000 A 
ATOM     22  C   UNL     1      48.534   2.681  15.827  0.00  0.00    +0.000 A 
BRANCH  17  24
ATOM     23  N   UNL     1      51.289   1.119  17.391  0.00  0.00    +0.000 NA
ATOM     24  C   UNL     1      50.380   1.823  17.228  0.00  0.00    +0.000 C 
ENDBRANCH  17  24
ENDBRANCH  15  21
ENDBRANCH  14  15
ENDBRANCH   1  14
TORSDOF 5
ENDMDL
MODEL 9
REMARK VINA RESULT:    -6.934      2.444      4.480
REMARK INTER + INTRA:          -9.625
REMARK INTER:                  -8.813
REMARK INTRA:                  -0.812
REMARK UNBOUND:                -0.665
REMARK  Name = 
REMARK  5 active torsions:
REMARK  status: ('A' for Active; 'I' for Inactive)
REMARK    1  A    between atoms: C_2  and  C_3
REMARK    2  A    between atoms: C_7  and  N_8
REMARK    3  A    between atoms: N_8  and  C_9
REMARK    4  A    between atoms: C_9  and  C_10
REMARK    5  A    between atoms: C_14  and  C_15
REMARK                            x       y       z     vdW  Elec       q    Type
REMARK                         _______ _______ _______ _____ _____    ______ ____
ROOT
ATOM      1  C   UNL     1      47.442   7.303  12.679  0.00  0.00    +0.000 A 
ATOM      2  C   UNL     1      46.581   8.392  12.857  0.00  0.00    +0.000 A 
ATOM      3  C   UNL     1      45.291   8.358  12.333  0.00  0.00    +0.000 A 
ATOM      4  C   UNL     1      44.853   7.244  11.613  0.00  0.00    +0.000 A 
ATOM      5  C   UNL     1      45.694   6.140  11.391  0.00  0.00    +0.000 A 
ATOM      6  C   UNL     1      46.977   6.180  11.970  0.00  0.00    +0.000 A 
ENDROOT
BRANCH   5   7
ATOM      7  C   UNL     1      45.274   5.008  10.528  0.00  0.00    +0.000 A 
ATOM      8  C   UNL     1      44.511   3.937  11.027  0.00  0.00    +0.000 A 
ATOM      9  C   UNL     1      44.156   2.849  10.217  0.00  0.00    +0.000 A 
ATOM     10  C   UNL     1      44.547   2.819   8.883  0.00  0.00    +0.000 A 
ATOM     11  C   UNL     1      45.298   3.868   8.376  0.00  0.00    +0.000 A 
ATOM     12  F   UNL     1      45.683   3.844   7.092  0.00  0.00    +0.000 F 
ATOM     13  C   UNL     1      45.667   4.944   9.179  0.00  0.00    +0.000 A 
ENDBRANCH   5   7
BRANCH   1  14
ATOM     14  C   UNL     1      48.866   7.343  13.186  0.00  0.00    +0.000 C 
BRANCH  14  15
ATOM     15  N   UNL     1      48.911   7.713  14.589  0.00  0.00    +0.000 N 
ATOM     16  H   UNL     1      48.310   8.494  14.839  0.00  0.00    +0.000 HD
BRANCH  15  21
ATOM     17  C   UNL     1      48.402   4.772  16.836  0.00  0.00    +0.000 A 
ATOM     18  C   UNL     1      49.658   4.751  17.423  0.00  0.00    +0.000 A 
ATOM     19  N   UNL     1      50.620   5.660  17.148  0.00  0.00    +0.000 NA
ATOM     20  C   UNL     1      50.308   6.620  16.239  0.00  0.00    +0.000 A 
ATOM     21  C   UNL     1      49.075   6.755  15.588  0.00  0.00    +0.000 A 
ATOM     22  C   UNL     1      48.119   5.780  15.907  0.00  0.00    +0.000 A 
BRANCH  17  24
ATOM     23  N   UNL     1      46.646   2.963  17.449  0.00  0.00    +0.000 NA
ATOM     24  C   UNL     1      47.432   3.773  17.174  0.00  0.00    +0.000 C 
ENDBRANCH  17  24
ENDBRANCH  15  21
ENDBRANCH  14  15
ENDBRANCH   1  14
TORSDOF 5
ENDMDL
