MODEL 1
REMARK VINA RESULT:    -8.549      0.000      0.000
REMARK INTER + INTRA:         -11.551
REMARK INTER:                 -11.047
REMARK INTRA:                  -0.503
REMARK UNBOUND:                -0.503
REMARK  Name = 
REMARK  8 active torsions:
REMARK  status: ('A' for Active; 'I' for Inactive)
REMARK    1  A    between atoms: C_1  and  C_2
REMARK    2  A    between atoms: C_2  and  C_3
REMARK    3  A    between atoms: C_2  and  C_4
REMARK    4  A    between atoms: C_2  and  C_5
REMARK    5  A    between atoms: N_7  and  C_8
REMARK    6  A    between atoms: C_8  and  C_9
REMARK    7  A    between atoms: C_12  and  C_13
REMARK    8  A    between atoms: C_21  and  C_22
REMARK                            x       y       z     vdW  Elec       q    Type
REMARK                         _______ _______ _______ _____ _____    ______ ____
ROOT
ATOM      1  C   UNL     1      46.318   7.246  12.157  0.00  0.00    +0.000 A 
ATOM      2  C   UNL     1      45.506   6.896  11.089  0.00  0.00    +0.000 A 
ATOM      3  N   UNL     1      45.131   5.580  11.213  0.00  0.00    +0.000 N 
ATOM      4  C   UNL     1      45.718   5.040  12.326  0.00  0.00    +0.000 A 
ATOM      5  N   UNL     1      45.594   3.758  12.726  0.00  0.00    +0.000 NA
ATOM      6  C   UNL     1      46.261   3.493  13.880  0.00  0.00    +0.000 A 
ATOM      7  C   UNL     1      47.007   4.404  14.623  0.00  0.00    +0.000 A 
ATOM      8  C   UNL     1      47.112   5.714  14.147  0.00  0.00    +0.000 A 
ATOM      9  C   UNL     1      46.446   6.051  12.951  0.00  0.00    +0.000 A 
ENDROOT
BRANCH   7  10
ATOM     10  C   UNL     1      47.645   3.938  15.878  0.00  0.00    +0.000 C 
ATOM     11  N   UNL     1      47.486   4.683  17.016  0.00  0.00    +0.000 N 
ATOM     12  O   UNL     1      48.296   2.901  15.912  0.00  0.00    +0.000 OA
ATOM     13  H   UNL     1      46.928   5.517  17.096  0.00  0.00    +0.000 HD
ATOM     14  H   UNL     1      47.909   4.319  17.859  0.00  0.00    +0.000 HD
ENDBRANCH   7  10
BRANCH   1  16
ATOM     15  C   UNL     1      47.138   8.871  13.929  0.00  0.00    +0.000 C 
ATOM     16  C   UNL     1      46.937   8.618  12.415  0.00  0.00    +0.000 C 
ATOM     17  C   UNL     1      46.022   9.738  11.878  0.00  0.00    +0.000 C 
ATOM     18  C   UNL     1      48.322   8.728  11.746  0.00  0.00    +0.000 C 
ENDBRANCH   1  16
BRANCH   3  19
ATOM     19  C   UNL     1      44.278   4.870  10.272  0.00  0.00    +0.000 C 
BRANCH  19  20
ATOM     20  C   UNL     1      45.082   4.039   9.302  0.00  0.00    +0.000 A 
ATOM     21  N   UNL     1      45.003   2.692   9.387  0.00  0.00    +0.000 NA
ATOM     22  C   UNL     1      45.764   1.979   8.523  0.00  0.00    +0.000 A 
ATOM     23  C   UNL     1      46.554   2.550   7.551  0.00  0.00    +0.000 A 
ATOM     24  C   UNL     1      46.527   3.925   7.510  0.00  0.00    +0.000 A 
ATOM     25  N   UNL     1      45.793   4.688   8.353  0.00  0.00    +0.000 NA
BRANCH  23  26
ATOM     26  C   UNL     1      47.389   1.709   6.683  0.00  0.00    +0.000 C 
ATOM     27  N   UNL     1      48.378   2.309   5.956  0.00  0.00    +0.000 N 
ATOM     28  O   UNL     1      47.189   0.503   6.595  0.00  0.00    +0.000 OA
ATOM     29  H   UNL     1      48.461   3.306   5.820  0.00  0.00    +0.000 HD
ATOM     30  H   UNL     1      48.891   1.710   5.318  0.00  0.00    +0.000 HD
ENDBRANCH  23  26
ENDBRANCH  19  20
ENDBRANCH   3  19
TORSDOF 5
ENDMDL
MODEL 2
REMARK VINA RESULT:    -7.501      2.909      7.150
REMARK INTER + INTRA:         -10.197
REMARK INTER:                  -9.577
REMARK INTRA:                  -0.620
REMARK UNBOUND:                -0.503
REMARK  Name = 
REMARK  8 active torsions:
REMARK  status: ('A' for Active; 'I' for Inactive)
REMARK    1  A    between atoms: C_1  and  C_2
REMARK    2  A    between atoms: C_2  and  C_3
REMARK    3  A    between atoms: C_2  and  C_4
REMARK    4  A    between atoms: C_2  and  C_5
REMARK    5  A    between atoms: N_7  and  C_8
REMARK    6  A    between atoms: C_8  and  C_9
REMARK    7  A    between atoms: C_12  and  C_13
REMARK    8  A    between atoms: C_21  and  C_22
REMARK                            x       y       z     vdW  Elec       q    Type
REMARK                         _______ _______ _______ _____ _____    ______ ____
ROOT
ATOM      1  C   UNL     1      48.140   6.719  13.674  0.00  0.00    +0.000 A 
ATOM      2  C   UNL     1      48.289   6.208  14.954  0.00  0.00    +0.000 A 
ATOM      3  N   UNL     1      47.420   5.158  15.130  0.00  0.00    +0.000 N 
ATOM      4  C   UNL     1      46.666   4.994  13.998  0.00  0.00    +0.000 A 
ATOM      5  N   UNL     1      45.689   4.077  13.841  0.00  0.00    +0.000 NA
ATOM      6  C   UNL     1      45.118   4.114  12.609  0.00  0.00    +0.000 A 
ATOM      7  C   UNL     1      45.462   4.975  11.571  0.00  0.00    +0.000 A 
ATOM      8  C   UNL     1      46.471   5.914  11.801  0.00  0.00    +0.000 A 
ATOM      9  C   UNL     1      47.100   5.931  13.063  0.00  0.00    +0.000 A 
ENDROOT
BRANCH   7  10
ATOM     10  C   UNL     1      44.744   4.849  10.280  0.00  0.00    +0.000 C 
ATOM     11  N   UNL     1      45.379   5.236   9.130  0.00  0.00    +0.000 N 
ATOM     12  O   UNL     1      43.607   4.397  10.227  0.00  0.00    +0.000 OA
ATOM     13  H   UNL     1      46.327   5.567   9.069  0.00  0.00    +0.000 HD
ATOM     14  H   UNL     1      44.871   5.106   8.265  0.00  0.00    +0.000 HD
ENDBRANCH   7  10
BRANCH   1  16
ATOM     15  C   UNL     1      49.704   7.429  11.802  0.00  0.00    +0.000 C 
ATOM     16  C   UNL     1      48.925   7.878  13.061  0.00  0.00    +0.000 C 
ATOM     17  C   UNL     1      49.956   8.429  14.068  0.00  0.00    +0.000 C 
ATOM     18  C   UNL     1      47.976   9.014  12.631  0.00  0.00    +0.000 C 
ENDBRANCH   1  16
BRANCH   3  19
ATOM     19  C   UNL     1      47.297   4.382  16.354  0.00  0.00    +0.000 C 
BRANCH  19  20
ATOM     20  C   UNL     1      48.568   3.635  16.675  0.00  0.00    +0.000 A 
ATOM     21  N   UNL     1      48.713   2.375  16.205  0.00  0.00    +0.000 NA
ATOM     22  C   UNL     1      49.852   1.724  16.541  0.00  0.00    +0.000 A 
ATOM     23  C   UNL     1      50.866   2.292  17.278  0.00  0.00    +0.000 A 
ATOM     24  C   UNL     1      50.649   3.594  17.666  0.00  0.00    +0.000 A 
ATOM     25  N   UNL     1      49.528   4.290  17.367  0.00  0.00    +0.000 NA
BRANCH  23  26
ATOM     26  C   UNL     1      52.051   1.502  17.644  0.00  0.00    +0.000 C 
ATOM     27  N   UNL     1      51.865   0.222  18.082  0.00  0.00    +0.000 N 
ATOM     28  O   UNL     1      53.174   1.987  17.578  0.00  0.00    +0.000 OA
ATOM     29  H   UNL     1      50.973  -0.164  18.357  0.00  0.00    +0.000 HD
ATOM     30  H   UNL     1      52.697  -0.272  18.388  0.00  0.00    +0.000 HD
ENDBRANCH  23  26
ENDBRANCH  19  20
ENDBRANCH   3  19
TORSDOF 5
ENDMDL
MODEL 3
REMARK VINA RESULT:    -6.778      1.406      1.721
REMARK INTER + INTRA:          -9.262
REMARK INTER:                  -8.775
REMARK INTRA:                  -0.487
REMARK UNBOUND:                -0.503
REMARK  Name = 
REMARK  8 active torsions:
REMARK  status: ('A' for Active; 'I' for Inactive)
REMARK    1  A    between atoms: C_1  and  C_2
REMARK    2  A    between atoms: C_2  and  C_3
REMARK    3  A    between atoms: C_2  and  C_4
REMARK    4  A    between atoms: C_2  and  C_5
REMARK    5  A    between atoms: N_7  and  C_8
REMARK    6  A    between atoms: C_8  and  C_9
REMARK    7  A    between atoms: C_12  and  C_13
REMARK    8  A    between atoms: C_21  and  C_22
REMARK                            x       y       z     vdW  Elec       q    Type
REMARK                         _______ _______ _______ _____ _____    ______ ____
ROOT
ATOM      1  C   UNL     1      45.046   7.897  11.491  0.00  0.00    +0.000 A 
ATOM      2  C   UNL     1      44.305   7.019  10.715  0.00  0.00    +0.000 A 
ATOM      3  N   UNL     1      44.621   5.727  11.059  0.00  0.00    +0.000 N 
ATOM      4  C   UNL     1      45.594   5.735  12.023  0.00  0.00    +0.000 A 
ATOM      5  N   UNL     1      46.163   4.638  12.562  0.00  0.00    +0.000 NA
ATOM      6  C   UNL     1      47.083   4.930  13.518  0.00  0.00    +0.000 A 
ATOM      7  C   UNL     1      47.443   6.205  13.947  0.00  0.00    +0.000 A 
ATOM      8  C   UNL     1      46.830   7.303  13.337  0.00  0.00    +0.000 A 
ATOM      9  C   UNL     1      45.868   7.066  12.334  0.00  0.00    +0.000 A 
ENDROOT
BRANCH   7  10
ATOM     10  C   UNL     1      48.452   6.329  15.027  0.00  0.00    +0.000 C 
ATOM     11  N   UNL     1      48.097   5.986  16.304  0.00  0.00    +0.000 N 
ATOM     12  O   UNL     1      49.589   6.719  14.792  0.00  0.00    +0.000 OA
ATOM     13  H   UNL     1      47.207   5.607  16.582  0.00  0.00    +0.000 HD
ATOM     14  H   UNL     1      48.819   6.053  17.009  0.00  0.00    +0.000 HD
ENDBRANCH   7  10
BRANCH   1  16
ATOM     15  C   UNL     1      44.107   9.990  12.582  0.00  0.00    +0.000 C 
ATOM     16  C   UNL     1      44.989   9.423  11.444  0.00  0.00    +0.000 C 
ATOM     17  C   UNL     1      44.384   9.903  10.109  0.00  0.00    +0.000 C 
ATOM     18  C   UNL     1      46.397  10.028  11.612  0.00  0.00    +0.000 C 
ENDBRANCH   1  16
BRANCH   3  19
ATOM     19  C   UNL     1      44.038   4.542  10.449  0.00  0.00    +0.000 C 
BRANCH  19  20
ATOM     20  C   UNL     1      44.954   3.932   9.418  0.00  0.00    +0.000 A 
ATOM     21  N   UNL     1      45.042   2.584   9.348  0.00  0.00    +0.000 NA
ATOM     22  C   UNL     1      45.899   2.073   8.433  0.00  0.00    +0.000 A 
ATOM     23  C   UNL     1      46.628   2.844   7.557  0.00  0.00    +0.000 A 
ATOM     24  C   UNL     1      46.432   4.201   7.669  0.00  0.00    +0.000 A 
ATOM     25  N   UNL     1      45.596   4.767   8.570  0.00  0.00    +0.000 NA
BRANCH  23  26
ATOM     26  C   UNL     1      47.575   2.215   6.625  0.00  0.00    +0.000 C 
ATOM     27  N   UNL     1      47.822   2.837   5.434  0.00  0.00    +0.000 N 
ATOM     28  O   UNL     1      48.113   1.149   6.900  0.00  0.00    +0.000 OA
ATOM     29  H   UNL     1      47.267   3.593   5.059  0.00  0.00    +0.000 HD
ATOM     30  H   UNL     1      48.430   2.344   4.789  0.00  0.00    +0.000 HD
ENDBRANCH  23  26
ENDBRANCH  19  20
ENDBRANCH   3  19
TORSDOF 5
ENDMDL
MODEL 4
REMARK VINA RESULT:    -6.604      3.871      7.983
REMARK INTER + INTRA:          -9.038
REMARK INTER:                  -8.387
REMARK INTRA:                  -0.651
REMARK UNBOUND:                -0.503
REMARK  Name = 
REMARK  8 active torsions:
REMARK  status: ('A' for Active; 'I' for Inactive)
REMARK    1  A    between atoms: C_1  and  C_2
REMARK    2  A    between atoms: C_2  and  C_3
REMARK    3  A    between atoms: C_2  and  C_4
REMARK    4  A    between atoms: C_2  and  C_5
REMARK    5  A    between atoms: N_7  and  C_8
REMARK    6  A    between atoms: C_8  and  C_9
REMARK    7  A    between atoms: C_12  and  C_13
REMARK    8  A    between atoms: C_21  and  C_22
REMARK                            x       y       z     vdW  Elec       q    Type
REMARK                         _______ _______ _______ _____ _____    ______ ____
ROOT
ATOM      1  C   UNL     1      47.715   6.617  13.680  0.00  0.00    +0.000 A 
ATOM      2  C   UNL     1      48.167   5.751  14.663  0.00  0.00    +0.000 A 
ATOM      3  N   UNL     1      47.288   4.703  14.788  0.00  0.00    +0.000 N 
ATOM      4  C   UNL     1      46.235   4.885  13.932  0.00  0.00    +0.000 A 
ATOM      5  N   UNL     1      45.171   4.063  13.822  0.00  0.00    +0.000 NA
ATOM      6  C   UNL     1      44.283   4.464  12.875  0.00  0.00    +0.000 A 
ATOM      7  C   UNL     1      44.402   5.590  12.065  0.00  0.00    +0.000 A 
ATOM      8  C   UNL     1      45.519   6.412  12.239  0.00  0.00    +0.000 A 
ATOM      9  C   UNL     1      46.476   6.053  13.210  0.00  0.00    +0.000 A 
ENDROOT
BRANCH   7  10
ATOM     10  C   UNL     1      43.341   5.855  11.062  0.00  0.00    +0.000 C 
ATOM     11  N   UNL     1      42.655   7.038  11.125  0.00  0.00    +0.000 N 
ATOM     12  O   UNL     1      43.083   5.044  10.182  0.00  0.00    +0.000 OA
ATOM     13  H   UNL     1      42.833   7.784  11.777  0.00  0.00    +0.000 HD
ATOM     14  H   UNL     1      41.960   7.198  10.407  0.00  0.00    +0.000 HD
ENDBRANCH   7  10
BRANCH   1  16
ATOM     15  C   UNL     1      48.734   7.841  11.701  0.00  0.00    +0.000 C 
ATOM     16  C   UNL     1      48.402   7.899  13.211  0.00  0.00    +0.000 C 
ATOM     17  C   UNL     1      49.729   8.112  13.967  0.00  0.00    +0.000 C 
ATOM     18  C   UNL     1      47.488   9.121  13.431  0.00  0.00    +0.000 C 
ENDBRANCH   1  16
BRANCH   3  19
ATOM     19  C   UNL     1      47.441   3.602  15.726  0.00  0.00    +0.000 C 
BRANCH  19  20
ATOM     20  C   UNL     1      48.227   4.009  16.948  0.00  0.00    +0.000 A 
ATOM     21  N   UNL     1      47.600   4.725  17.909  0.00  0.00    +0.000 NA
ATOM     22  C   UNL     1      48.345   5.101  18.976  0.00  0.00    +0.000 A 
ATOM     23  C   UNL     1      49.666   4.751  19.145  0.00  0.00    +0.000 A 
ATOM     24  C   UNL     1      50.200   3.979  18.139  0.00  0.00    +0.000 A 
ATOM     25  N   UNL     1      49.505   3.581  17.048  0.00  0.00    +0.000 NA
BRANCH  23  26
ATOM     26  C   UNL     1      50.421   5.241  20.307  0.00  0.00    +0.000 C 
ATOM     27  N   UNL     1      51.491   4.511  20.739  0.00  0.00    +0.000 N 
ATOM     28  O   UNL     1      50.085   6.267  20.887  0.00  0.00    +0.000 OA
ATOM     29  H   UNL     1      51.693   3.566  20.445  0.00  0.00    +0.000 HD
ATOM     30  H   UNL     1      51.949   4.842  21.581  0.00  0.00    +0.000 HD
ENDBRANCH  23  26
ENDBRANCH  19  20
ENDBRANCH   3  19
TORSDOF 5
ENDMDL
MODEL 5
REMARK VINA RESULT:    -6.604      2.749      4.316
REMARK INTER + INTRA:          -9.037
REMARK INTER:                  -8.692
REMARK INTRA:                  -0.346
REMARK UNBOUND:                -0.503
REMARK  Name = 
REMARK  8 active torsions:
REMARK  status: ('A' for Active; 'I' for Inactive)
REMARK    1  A    between atoms: C_1  and  C_2
REMARK    2  A    between atoms: C_2  and  C_3
REMARK    3  A    between atoms: C_2  and  C_4
REMARK    4  A    between atoms: C_2  and  C_5
REMARK    5  A    between atoms: N_7  and  C_8
REMARK    6  A    between atoms: C_8  and  C_9
REMARK    7  A    between atoms: C_12  and  C_13
REMARK    8  A    between atoms: C_21  and  C_22
REMARK                            x       y       z     vdW  Elec       q    Type
REMARK                         _______ _______ _______ _____ _____    ______ ____
ROOT
ATOM      1  C   UNL     1      46.554   6.581  12.803  0.00  0.00    +0.000 A 
ATOM      2  C   UNL     1      46.241   5.295  12.391  0.00  0.00    +0.000 A 
ATOM      3  N   UNL     1      45.115   5.329  11.605  0.00  0.00    +0.000 N 
ATOM      4  C   UNL     1      44.651   6.615  11.525  0.00  0.00    +0.000 A 
ATOM      5  N   UNL     1      43.542   7.002  10.863  0.00  0.00    +0.000 NA
ATOM      6  C   UNL     1      43.325   8.342  10.924  0.00  0.00    +0.000 A 
ATOM      7  C   UNL     1      44.128   9.273  11.577  0.00  0.00    +0.000 A 
ATOM      8  C   UNL     1      45.255   8.808  12.260  0.00  0.00    +0.000 A 
ATOM      9  C   UNL     1      45.532   7.426  12.239  0.00  0.00    +0.000 A 
ENDROOT
BRANCH   7  10
ATOM     10  C   UNL     1      43.747  10.705  11.511  0.00  0.00    +0.000 C 
ATOM     11  N   UNL     1      42.618  11.118  12.166  0.00  0.00    +0.000 N 
ATOM     12  O   UNL     1      44.427  11.516  10.895  0.00  0.00    +0.000 OA
ATOM     13  H   UNL     1      42.029  10.537  12.739  0.00  0.00    +0.000 HD
ATOM     14  H   UNL     1      42.406  12.106  12.126  0.00  0.00    +0.000 HD
ENDBRANCH   7  10
BRANCH   1  16
ATOM     15  C   UNL     1      47.521   8.392  14.299  0.00  0.00    +0.000 C 
ATOM     16  C   UNL     1      47.739   6.993  13.675  0.00  0.00    +0.000 C 
ATOM     17  C   UNL     1      49.033   7.058  12.838  0.00  0.00    +0.000 C 
ATOM     18  C   UNL     1      47.933   5.999  14.838  0.00  0.00    +0.000 C 
ENDBRANCH   1  16
BRANCH   3  19
ATOM     19  C   UNL     1      44.494   4.162  10.997  0.00  0.00    +0.000 C 
BRANCH  19  20
ATOM     20  C   UNL     1      45.202   3.744   9.732  0.00  0.00    +0.000 A 
ATOM     21  N   UNL     1      45.723   4.705   8.936  0.00  0.00    +0.000 NA
ATOM     22  C   UNL     1      46.322   4.295   7.792  0.00  0.00    +0.000 A 
ATOM     23  C   UNL     1      46.466   2.972   7.439  0.00  0.00    +0.000 A 
ATOM     24  C   UNL     1      45.950   2.067   8.338  0.00  0.00    +0.000 A 
ATOM     25  N   UNL     1      45.334   2.420   9.490  0.00  0.00    +0.000 NA
BRANCH  23  26
ATOM     26  C   UNL     1      47.084   2.610   6.156  0.00  0.00    +0.000 C 
ATOM     27  N   UNL     1      48.447   2.532   6.093  0.00  0.00    +0.000 N 
ATOM     28  O   UNL     1      46.397   2.404   5.163  0.00  0.00    +0.000 OA
ATOM     29  H   UNL     1      49.072   2.887   6.802  0.00  0.00    +0.000 HD
ATOM     30  H   UNL     1      48.843   2.344   5.178  0.00  0.00    +0.000 HD
ENDBRANCH  23  26
ENDBRANCH  19  20
ENDBRANCH   3  19
TORSDOF 5
ENDMDL
MODEL 6
REMARK VINA RESULT:    -6.433      4.140      8.207
REMARK INTER + INTRA:          -8.817
REMARK INTER:                  -8.260
REMARK INTRA:                  -0.557
REMARK UNBOUND:                -0.503
REMARK  Name = 
REMARK  8 active torsions:
REMARK  status: ('A' for Active; 'I' for Inactive)
REMARK    1  A    between atoms: C_1  and  C_2
REMARK    2  A    between atoms: C_2  and  C_3
REMARK    3  A    between atoms: C_2  and  C_4
REMARK    4  A    between atoms: C_2  and  C_5
REMARK    5  A    between atoms: N_7  and  C_8
REMARK    6  A    between atoms: C_8  and  C_9
REMARK    7  A    between atoms: C_12  and  C_13
REMARK    8  A    between atoms: C_21  and  C_22
REMARK                            x       y       z     vdW  Elec       q    Type
REMARK                         _______ _______ _______ _____ _____    ______ ____
ROOT
ATOM      1  C   UNL     1      45.702   5.659  12.593  0.00  0.00    +0.000 A 
ATOM      2  C   UNL     1      46.877   5.399  13.281  0.00  0.00    +0.000 A 
ATOM      3  N   UNL     1      47.518   6.583  13.553  0.00  0.00    +0.000 N 
ATOM      4  C   UNL     1      46.806   7.622  13.016  0.00  0.00    +0.000 A 
ATOM      5  N   UNL     1      47.168   8.921  13.065  0.00  0.00    +0.000 NA
ATOM      6  C   UNL     1      46.266   9.748  12.477  0.00  0.00    +0.000 A 
ATOM      7  C   UNL     1      45.070   9.363  11.875  0.00  0.00    +0.000 A 
ATOM      8  C   UNL     1      44.759   8.001  11.841  0.00  0.00    +0.000 A 
ATOM      9  C   UNL     1      45.659   7.089  12.431  0.00  0.00    +0.000 A 
ENDROOT
BRANCH   7  10
ATOM     10  C   UNL     1      44.194  10.415  11.306  0.00  0.00    +0.000 C 
ATOM     11  N   UNL     1      43.076  10.789  12.002  0.00  0.00    +0.000 N 
ATOM     12  O   UNL     1      44.460  10.956  10.240  0.00  0.00    +0.000 OA
ATOM     13  H   UNL     1      42.806  10.441  12.906  0.00  0.00    +0.000 HD
ATOM     14  H   UNL     1      42.518  11.532  11.600  0.00  0.00    +0.000 HD
ENDBRANCH   7  10
BRANCH   1  16
ATOM     15  C   UNL     1      44.381   4.788  10.605  0.00  0.00    +0.000 C 
ATOM     16  C   UNL     1      44.682   4.627  12.114  0.00  0.00    +0.000 C 
ATOM     17  C   UNL     1      43.347   4.791  12.870  0.00  0.00    +0.000 C 
ATOM     18  C   UNL     1      45.213   3.195  12.324  0.00  0.00    +0.000 C 
ENDBRANCH   1  16
BRANCH   3  19
ATOM     19  C   UNL     1      48.784   6.696  14.261  0.00  0.00    +0.000 C 
BRANCH  19  20
ATOM     20  C   UNL     1      48.654   6.300  15.711  0.00  0.00    +0.000 A 
ATOM     21  N   UNL     1      48.603   4.985  16.020  0.00  0.00    +0.000 NA
ATOM     22  C   UNL     1      48.452   4.668  17.328  0.00  0.00    +0.000 A 
ATOM     23  C   UNL     1      48.403   5.603  18.338  0.00  0.00    +0.000 A 
ATOM     24  C   UNL     1      48.515   6.912  17.929  0.00  0.00    +0.000 A 
ATOM     25  N   UNL     1      48.658   7.286  16.637  0.00  0.00    +0.000 NA
BRANCH  23  26
ATOM     26  C   UNL     1      48.187   5.181  19.729  0.00  0.00    +0.000 C 
ATOM     27  N   UNL     1      48.552   3.914  20.086  0.00  0.00    +0.000 N 
ATOM     28  O   UNL     1      47.674   5.939  20.543  0.00  0.00    +0.000 OA
ATOM     29  H   UNL     1      48.782   3.180  19.431  0.00  0.00    +0.000 HD
ATOM     30  H   UNL     1      48.330   3.635  21.035  0.00  0.00    +0.000 HD
ENDBRANCH  23  26
ENDBRANCH  19  20
ENDBRANCH   3  19
TORSDOF 5
ENDMDL
MODEL 7
REMARK VINA RESULT:    -6.325      4.017      5.581
REMARK INTER + INTRA:          -8.677
REMARK INTER:                  -7.936
REMARK INTRA:                  -0.742
REMARK UNBOUND:                -0.503
REMARK  Name = 
REMARK  8 active torsions:
REMARK  status: ('A' for Active; 'I' for Inactive)
REMARK    1  A    between atoms: C_1  and  C_2
REMARK    2  A    between atoms: C_2  and  C_3
REMARK    3  A    between atoms: C_2  and  C_4
REMARK    4  A    between atoms: C_2  and  C_5
REMARK    5  A    between atoms: N_7  and  C_8
REMARK    6  A    between atoms: C_8  and  C_9
REMARK    7  A    between atoms: C_12  and  C_13
REMARK    8  A    between atoms: C_21  and  C_22
REMARK                            x       y       z     vdW  Elec       q    Type
REMARK                         _______ _______ _______ _____ _____    ______ ____
ROOT
ATOM      1  C   UNL     1      48.712   8.515  16.546  0.00  0.00    +0.000 A 
ATOM      2  C   UNL     1      48.632   8.417  15.165  0.00  0.00    +0.000 A 
ATOM      3  N   UNL     1      48.560   7.094  14.805  0.00  0.00    +0.000 N 
ATOM      4  C   UNL     1      48.635   6.310  15.925  0.00  0.00    +0.000 A 
ATOM      5  N   UNL     1      48.631   4.961  15.932  0.00  0.00    +0.000 NA
ATOM      6  C   UNL     1      48.690   4.435  17.183  0.00  0.00    +0.000 A 
ATOM      7  C   UNL     1      48.743   5.154  18.374  0.00  0.00    +0.000 A 
ATOM      8  C   UNL     1      48.762   6.549  18.300  0.00  0.00    +0.000 A 
ATOM      9  C   UNL     1      48.708   7.158  17.029  0.00  0.00    +0.000 A 
ENDROOT
BRANCH   7  10
ATOM     10  C   UNL     1      48.775   4.404  19.653  0.00  0.00    +0.000 C 
ATOM     11  N   UNL     1      48.354   3.101  19.663  0.00  0.00    +0.000 N 
ATOM     12  O   UNL     1      49.179   4.925  20.685  0.00  0.00    +0.000 OA
ATOM     13  H   UNL     1      48.057   2.576  18.858  0.00  0.00    +0.000 HD
ATOM     14  H   UNL     1      48.418   2.611  20.546  0.00  0.00    +0.000 HD
ENDBRANCH   7  10
BRANCH   1  16
ATOM     15  C   UNL     1      48.775  11.053  16.450  0.00  0.00    +0.000 C 
ATOM     16  C   UNL     1      48.790   9.803  17.363  0.00  0.00    +0.000 C 
ATOM     17  C   UNL     1      50.095   9.848  18.184  0.00  0.00    +0.000 C 
ATOM     18  C   UNL     1      47.584   9.920  18.317  0.00  0.00    +0.000 C 
ENDBRANCH   1  16
BRANCH   3  19
ATOM     19  C   UNL     1      48.467   6.613  13.435  0.00  0.00    +0.000 C 
BRANCH  19  20
ATOM     20  C   UNL     1      47.041   6.322  13.037  0.00  0.00    +0.000 A 
ATOM     21  N   UNL     1      46.522   5.110  13.336  0.00  0.00    +0.000 NA
ATOM     22  C   UNL     1      45.251   4.872  12.934  0.00  0.00    +0.000 A 
ATOM     23  C   UNL     1      44.466   5.806  12.296  0.00  0.00    +0.000 A 
ATOM     24  C   UNL     1      45.065   7.026  12.082  0.00  0.00    +0.000 A 
ATOM     25  N   UNL     1      46.333   7.316  12.455  0.00  0.00    +0.000 NA
BRANCH  23  26
ATOM     26  C   UNL     1      43.111   5.455  11.846  0.00  0.00    +0.000 C 
ATOM     27  N   UNL     1      42.167   6.441  11.804  0.00  0.00    +0.000 N 
ATOM     28  O   UNL     1      42.830   4.303  11.539  0.00  0.00    +0.000 OA
ATOM     29  H   UNL     1      42.270   7.349  12.234  0.00  0.00    +0.000 HD
ATOM     30  H   UNL     1      41.228   6.151  11.552  0.00  0.00    +0.000 HD
ENDBRANCH  23  26
ENDBRANCH  19  20
ENDBRANCH   3  19
TORSDOF 5
ENDMDL
MODEL 8
REMARK VINA RESULT:    -6.056      4.171      7.138
REMARK INTER + INTRA:          -8.329
REMARK INTER:                  -7.913
REMARK INTRA:                  -0.416
REMARK UNBOUND:                -0.503
REMARK  Name = 
REMARK  8 active torsions:
REMARK  status: ('A' for Active; 'I' for Inactive)
REMARK    1  A    between atoms: C_1  and  C_2
REMARK    2  A    between atoms: C_2  and  C_3
REMARK    3  A    between atoms: C_2  and  C_4
REMARK    4  A    between atoms: C_2  and  C_5
REMARK    5  A    between atoms: N_7  and  C_8
REMARK    6  A    between atoms: C_8  and  C_9
REMARK    7  A    between atoms: C_12  and  C_13
REMARK    8  A    between atoms: C_21  and  C_22
REMARK                            x       y       z     vdW  Elec       q    Type
REMARK                         _______ _______ _______ _____ _____    ______ ____
ROOT
ATOM      1  C   UNL     1      50.089   5.271  18.511  0.00  0.00    +0.000 A 
ATOM      2  C   UNL     1      48.800   5.315  18.001  0.00  0.00    +0.000 A 
ATOM      3  N   UNL     1      48.528   4.138  17.347  0.00  0.00    +0.000 N 
ATOM      4  C   UNL     1      49.633   3.331  17.378  0.00  0.00    +0.000 A 
ATOM      5  N   UNL     1      49.725   2.115  16.800  0.00  0.00    +0.000 NA
ATOM      6  C   UNL     1      50.927   1.517  17.006  0.00  0.00    +0.000 A 
ATOM      7  C   UNL     1      51.991   2.043  17.734  0.00  0.00    +0.000 A 
ATOM      8  C   UNL     1      51.840   3.314  18.295  0.00  0.00    +0.000 A 
ATOM      9  C   UNL     1      50.617   3.991  18.112  0.00  0.00    +0.000 A 
ENDROOT
BRANCH   7  10
ATOM     10  C   UNL     1      53.222   1.228  17.877  0.00  0.00    +0.000 C 
ATOM     11  N   UNL     1      53.101  -0.108  18.149  0.00  0.00    +0.000 N 
ATOM     12  O   UNL     1      54.333   1.727  17.743  0.00  0.00    +0.000 OA
ATOM     13  H   UNL     1      52.234  -0.613  18.223  0.00  0.00    +0.000 HD
ATOM     14  H   UNL     1      53.960  -0.638  18.209  0.00  0.00    +0.000 HD
ENDBRANCH   7  10
BRANCH   1  16
ATOM     15  C   UNL     1      52.030   6.908  18.582  0.00  0.00    +0.000 C 
ATOM     16  C   UNL     1      50.784   6.364  19.320  0.00  0.00    +0.000 C 
ATOM     17  C   UNL     1      51.259   5.813  20.681  0.00  0.00    +0.000 C 
ATOM     18  C   UNL     1      49.836   7.556  19.557  0.00  0.00    +0.000 C 
ENDBRANCH   1  16
BRANCH   3  19
ATOM     19  C   UNL     1      47.268   3.831  16.686  0.00  0.00    +0.000 C 
BRANCH  19  20
ATOM     20  C   UNL     1      47.162   4.503  15.339  0.00  0.00    +0.000 A 
ATOM     21  N   UNL     1      48.026   5.500  15.046  0.00  0.00    +0.000 NA
ATOM     22  C   UNL     1      47.880   6.102  13.841  0.00  0.00    +0.000 A 
ATOM     23  C   UNL     1      46.947   5.718  12.905  0.00  0.00    +0.000 A 
ATOM     24  C   UNL     1      46.148   4.660  13.275  0.00  0.00    +0.000 A 
ATOM     25  N   UNL     1      46.244   4.027  14.467  0.00  0.00    +0.000 NA
BRANCH  23  26
ATOM     26  C   UNL     1      46.818   6.454  11.640  0.00  0.00    +0.000 C 
ATOM     27  N   UNL     1      45.810   6.103  10.786  0.00  0.00    +0.000 N 
ATOM     28  O   UNL     1      47.607   7.344  11.347  0.00  0.00    +0.000 OA
ATOM     29  H   UNL     1      45.264   5.257  10.865  0.00  0.00    +0.000 HD
ATOM     30  H   UNL     1      45.790   6.587   9.895  0.00  0.00    +0.000 HD
ENDBRANCH  23  26
ENDBRANCH  19  20
ENDBRANCH   3  19
TORSDOF 5
ENDMDL
MODEL 9
REMARK VINA RESULT:    -5.562      4.046      7.874
REMARK INTER + INTRA:          -7.691
REMARK INTER:                  -7.643
REMARK INTRA:                  -0.048
REMARK UNBOUND:                -0.503
REMARK  Name = 
REMARK  8 active torsions:
REMARK  status: ('A' for Active; 'I' for Inactive)
REMARK    1  A    between atoms: C_1  and  C_2
REMARK    2  A    between atoms: C_2  and  C_3
REMARK    3  A    between atoms: C_2  and  C_4
REMARK    4  A    between atoms: C_2  and  C_5
REMARK    5  A    between atoms: N_7  and  C_8
REMARK    6  A    between atoms: C_8  and  C_9
REMARK    7  A    between atoms: C_12  and  C_13
REMARK    8  A    between atoms: C_21  and  C_22
REMARK                            x       y       z     vdW  Elec       q    Type
REMARK                         _______ _______ _______ _____ _____    ______ ____
ROOT
ATOM      1  C   UNL     1      45.531   5.289  12.613  0.00  0.00    +0.000 A 
ATOM      2  C   UNL     1      45.796   4.133  13.332  0.00  0.00    +0.000 A 
ATOM      3  N   UNL     1      46.946   4.304  14.063  0.00  0.00    +0.000 N 
ATOM      4  C   UNL     1      47.471   5.542  13.807  0.00  0.00    +0.000 A 
ATOM      5  N   UNL     1      48.617   6.025  14.330  0.00  0.00    +0.000 NA
ATOM      6  C   UNL     1      48.894   7.293  13.929  0.00  0.00    +0.000 A 
ATOM      7  C   UNL     1      48.115   8.071  13.076  0.00  0.00    +0.000 A 
ATOM      8  C   UNL     1      46.948   7.509  12.553  0.00  0.00    +0.000 A 
ATOM      9  C   UNL     1      46.607   6.193  12.927  0.00  0.00    +0.000 A 
ENDROOT
BRANCH   7  10
ATOM     10  C   UNL     1      48.564   9.451  12.771  0.00  0.00    +0.000 C 
ATOM     11  N   UNL     1      48.584   9.865  11.466  0.00  0.00    +0.000 N 
ATOM     12  O   UNL     1      48.903  10.220  13.662  0.00  0.00    +0.000 OA
ATOM     13  H   UNL     1      48.275   9.324  10.676  0.00  0.00    +0.000 HD
ATOM     14  H   UNL     1      48.866  10.822  11.298  0.00  0.00    +0.000 HD
ENDBRANCH   7  10
BRANCH   1  16
ATOM     15  C   UNL     1      44.117   7.040  11.437  0.00  0.00    +0.000 C 
ATOM     16  C   UNL     1      44.340   5.530  11.687  0.00  0.00    +0.000 C 
ATOM     17  C   UNL     1      43.045   4.969  12.309  0.00  0.00    +0.000 C 
ATOM     18  C   UNL     1      44.573   4.868  10.314  0.00  0.00    +0.000 C 
ENDBRANCH   1  16
BRANCH   3  19
ATOM     19  C   UNL     1      47.530   3.297  14.936  0.00  0.00    +0.000 C 
BRANCH  19  20
ATOM     20  C   UNL     1      47.829   3.846  16.308  0.00  0.00    +0.000 A 
ATOM     21  N   UNL     1      49.110   3.839  16.742  0.00  0.00    +0.000 NA
ATOM     22  C   UNL     1      49.336   4.310  17.991  0.00  0.00    +0.000 A 
ATOM     23  C   UNL     1      48.351   4.831  18.800  0.00  0.00    +0.000 A 
ATOM     24  C   UNL     1      47.090   4.843  18.251  0.00  0.00    +0.000 A 
ATOM     25  N   UNL     1      46.804   4.379  17.012  0.00  0.00    +0.000 NA
BRANCH  23  26
ATOM     26  C   UNL     1      48.669   5.276  20.164  0.00  0.00    +0.000 C 
ATOM     27  N   UNL     1      49.225   4.375  21.027  0.00  0.00    +0.000 N 
ATOM     28  O   UNL     1      48.420   6.420  20.525  0.00  0.00    +0.000 OA
ATOM     29  H   UNL     1      49.262   3.378  20.866  0.00  0.00    +0.000 HD
ATOM     30  H   UNL     1      49.371   4.696  21.978  0.00  0.00    +0.000 HD
ENDBRANCH  23  26
ENDBRANCH  19  20
ENDBRANCH   3  19
TORSDOF 5
ENDMDL
