MODEL 1
REMARK VINA RESULT:    -8.185      0.000      0.000
REMARK INTER + INTRA:          -9.350
REMARK INTER:                  -9.621
REMARK INTRA:                   0.270
REMARK UNBOUND:                 0.270
REMARK  Name = 
REMARK  3 active torsions:
REMARK  status: ('A' for Active; 'I' for Inactive)
REMARK    1  A    between atoms: C_2  and  C_4
REMARK    2  A    between atoms: N_8  and  C_9
REMARK    3  A    between atoms: C_9  and  C_10
REMARK                            x       y       z     vdW  Elec       q    Type
REMARK                         _______ _______ _______ _____ _____    ______ ____
ROOT
ATOM      1  C   UNL     1      46.446   2.763   7.532  0.00  0.00    +0.000 A 
ATOM      2  C   UNL     1      46.140   4.089   7.819  0.00  0.00    +0.000 A 
ATOM      3  C   UNL     1      45.326   4.381   8.917  0.00  0.00    +0.000 A 
ATOM      4  C   UNL     1      44.837   3.345   9.709  0.00  0.00    +0.000 A 
ATOM      5  N   UNL     1      44.008   3.551  10.818  0.00  0.00    +0.000 N 
ATOM      6  N   UNL     1      45.119   2.055   9.434  0.00  0.00    +0.000 NA
ATOM      7  C   UNL     1      45.902   1.789   8.354  0.00  0.00    +0.000 A 
ATOM      8  H   UNL     1      43.878   2.656  11.281  0.00  0.00    +0.000 HD
ENDROOT
BRANCH   1  10
ATOM      9  N   UNL     1      47.237   3.118   5.258  0.00  0.00    +0.000 N 
ATOM     10  C   UNL     1      47.285   2.349   6.390  0.00  0.00    +0.000 C 
ATOM     11  O   UNL     1      48.022   1.375   6.456  0.00  0.00    +0.000 OA
ATOM     12  H   UNL     1      47.885   2.871   4.520  0.00  0.00    +0.000 HD
ATOM     13  H   UNL     1      46.845   4.047   5.246  0.00  0.00    +0.000 HD
ENDBRANCH   1  10
BRANCH   5  14
ATOM     14  C   UNL     1      43.970   4.801  11.595  0.00  0.00    +0.000 C 
ATOM     15  C   UNL     1      42.722   5.124  12.398  0.00  0.00    +0.000 C 
ATOM     16  C   UNL     1      43.004   5.897  11.154  0.00  0.00    +0.000 C 
BRANCH  14  17
ATOM     17  C   UNL     1      45.333   5.296  12.095  0.00  0.00    +0.000 A 
ATOM     18  C   UNL     1      46.037   4.582  13.070  0.00  0.00    +0.000 A 
ATOM     19  N   UNL     1      47.275   4.914  13.516  0.00  0.00    +0.000 NA
ATOM     20  C   UNL     1      47.798   6.026  12.961  0.00  0.00    +0.000 A 
ATOM     21  C   UNL     1      47.116   6.765  12.010  0.00  0.00    +0.000 A 
ATOM     22  N   UNL     1      45.888   6.419  11.556  0.00  0.00    +0.000 NA
ENDBRANCH  14  17
ENDBRANCH   5  14
TORSDOF 3
ENDMDL
MODEL 2
REMARK VINA RESULT:    -7.391      3.038      6.218
REMARK INTER + INTRA:          -8.417
REMARK INTER:                  -8.241
REMARK INTRA:                  -0.176
REMARK UNBOUND:                 0.270
REMARK  Name = 
REMARK  3 active torsions:
REMARK  status: ('A' for Active; 'I' for Inactive)
REMARK    1  A    between atoms: C_2  and  C_4
REMARK    2  A    between atoms: N_8  and  C_9
REMARK    3  A    between atoms: C_9  and  C_10
REMARK                            x       y       z     vdW  Elec       q    Type
REMARK                         _______ _______ _______ _____ _____    ______ ____
ROOT
ATOM      1  C   UNL     1      47.795   5.784  14.590  0.00  0.00    +0.000 A 
ATOM      2  C   UNL     1      47.308   6.149  13.340  0.00  0.00    +0.000 A 
ATOM      3  C   UNL     1      46.534   5.238  12.615  0.00  0.00    +0.000 A 
ATOM      4  C   UNL     1      46.258   3.984  13.153  0.00  0.00    +0.000 A 
ATOM      5  N   UNL     1      45.501   3.012  12.488  0.00  0.00    +0.000 N 
ATOM      6  N   UNL     1      46.733   3.616  14.360  0.00  0.00    +0.000 NA
ATOM      7  C   UNL     1      47.495   4.510  15.046  0.00  0.00    +0.000 A 
ATOM      8  H   UNL     1      45.358   2.236  13.128  0.00  0.00    +0.000 HD
ENDROOT
BRANCH   1  10
ATOM      9  N   UNL     1      48.192   7.946  15.632  0.00  0.00    +0.000 N 
ATOM     10  C   UNL     1      48.631   6.666  15.429  0.00  0.00    +0.000 C 
ATOM     11  O   UNL     1      49.662   6.265  15.951  0.00  0.00    +0.000 OA
ATOM     12  H   UNL     1      48.730   8.507  16.282  0.00  0.00    +0.000 HD
ATOM     13  H   UNL     1      47.247   8.238  15.433  0.00  0.00    +0.000 HD
ENDBRANCH   1  10
BRANCH   5  14
ATOM     14  C   UNL     1      44.497   3.317  11.455  0.00  0.00    +0.000 C 
ATOM     15  C   UNL     1      43.317   4.200  11.822  0.00  0.00    +0.000 C 
ATOM     16  C   UNL     1      43.094   2.739  11.618  0.00  0.00    +0.000 C 
BRANCH  14  17
ATOM     17  C   UNL     1      45.031   3.336  10.017  0.00  0.00    +0.000 A 
ATOM     18  C   UNL     1      45.210   4.547   9.339  0.00  0.00    +0.000 A 
ATOM     19  N   UNL     1      45.739   4.655   8.094  0.00  0.00    +0.000 NA
ATOM     20  C   UNL     1      46.075   3.484   7.518  0.00  0.00    +0.000 A 
ATOM     21  C   UNL     1      45.889   2.270   8.154  0.00  0.00    +0.000 A 
ATOM     22  N   UNL     1      45.376   2.169   9.404  0.00  0.00    +0.000 NA
ENDBRANCH  14  17
ENDBRANCH   5  14
TORSDOF 3
ENDMDL
MODEL 3
REMARK VINA RESULT:    -6.427      3.155      6.122
REMARK INTER + INTRA:          -7.283
REMARK INTER:                  -7.096
REMARK INTRA:                  -0.187
REMARK UNBOUND:                 0.270
REMARK  Name = 
REMARK  3 active torsions:
REMARK  status: ('A' for Active; 'I' for Inactive)
REMARK    1  A    between atoms: C_2  and  C_4
REMARK    2  A    between atoms: N_8  and  C_9
REMARK    3  A    between atoms: C_9  and  C_10
REMARK                            x       y       z     vdW  Elec       q    Type
REMARK                         _______ _______ _______ _____ _____    ______ ____
ROOT
ATOM      1  C   UNL     1      48.756   7.206  13.512  0.00  0.00    +0.000 A 
ATOM      2  C   UNL     1      48.262   7.198  12.213  0.00  0.00    +0.000 A 
ATOM      3  C   UNL     1      47.174   6.379  11.899  0.00  0.00    +0.000 A 
ATOM      4  C   UNL     1      46.599   5.585  12.889  0.00  0.00    +0.000 A 
ATOM      5  N   UNL     1      45.516   4.730  12.656  0.00  0.00    +0.000 N 
ATOM      6  N   UNL     1      47.077   5.577  14.150  0.00  0.00    +0.000 NA
ATOM      7  C   UNL     1      48.144   6.371  14.434  0.00  0.00    +0.000 A 
ATOM      8  H   UNL     1      45.222   4.348  13.550  0.00  0.00    +0.000 HD
ENDROOT
BRANCH   1  10
ATOM      9  N   UNL     1      51.054   7.944  13.198  0.00  0.00    +0.000 N 
ATOM     10  C   UNL     1      49.907   8.024  13.942  0.00  0.00    +0.000 C 
ATOM     11  O   UNL     1      49.836   8.773  14.907  0.00  0.00    +0.000 OA
ATOM     12  H   UNL     1      51.800   8.579  13.454  0.00  0.00    +0.000 HD
ATOM     13  H   UNL     1      51.077   7.542  12.273  0.00  0.00    +0.000 HD
ENDBRANCH   1  10
BRANCH   5  14
ATOM     14  C   UNL     1      44.538   4.919  11.571  0.00  0.00    +0.000 C 
ATOM     15  C   UNL     1      43.758   6.221  11.511  0.00  0.00    +0.000 C 
ATOM     16  C   UNL     1      43.057   4.973  11.935  0.00  0.00    +0.000 C 
BRANCH  14  17
ATOM     17  C   UNL     1      44.862   4.177  10.269  0.00  0.00    +0.000 A 
ATOM     18  C   UNL     1      45.324   4.874   9.147  0.00  0.00    +0.000 A 
ATOM     19  N   UNL     1      45.697   4.287   7.981  0.00  0.00    +0.000 NA
ATOM     20  C   UNL     1      45.571   2.945   7.958  0.00  0.00    +0.000 A 
ATOM     21  C   UNL     1      45.097   2.231   9.043  0.00  0.00    +0.000 A 
ATOM     22  N   UNL     1      44.743   2.820  10.210  0.00  0.00    +0.000 NA
ENDBRANCH  14  17
ENDBRANCH   5  14
TORSDOF 3
ENDMDL
MODEL 4
REMARK VINA RESULT:    -6.162      2.702      4.439
REMARK INTER + INTRA:          -6.973
REMARK INTER:                  -6.845
REMARK INTRA:                  -0.128
REMARK UNBOUND:                 0.270
REMARK  Name = 
REMARK  3 active torsions:
REMARK  status: ('A' for Active; 'I' for Inactive)
REMARK    1  A    between atoms: C_2  and  C_4
REMARK    2  A    between atoms: N_8  and  C_9
REMARK    3  A    between atoms: C_9  and  C_10
REMARK                            x       y       z     vdW  Elec       q    Type
REMARK                         _______ _______ _______ _____ _____    ______ ____
ROOT
ATOM      1  C   UNL     1      44.985   3.935  10.096  0.00  0.00    +0.000 A 
ATOM      2  C   UNL     1      45.524   5.170   9.754  0.00  0.00    +0.000 A 
ATOM      3  C   UNL     1      45.892   6.061  10.766  0.00  0.00    +0.000 A 
ATOM      4  C   UNL     1      45.718   5.700  12.100  0.00  0.00    +0.000 A 
ATOM      5  N   UNL     1      46.050   6.537  13.172  0.00  0.00    +0.000 N 
ATOM      6  N   UNL     1      45.187   4.509  12.444  0.00  0.00    +0.000 NA
ATOM      7  C   UNL     1      44.822   3.661  11.445  0.00  0.00    +0.000 A 
ATOM      8  H   UNL     1      45.927   6.008  14.030  0.00  0.00    +0.000 HD
ENDROOT
BRANCH   1  10
ATOM      9  N   UNL     1      44.210   3.380   7.857  0.00  0.00    +0.000 N 
ATOM     10  C   UNL     1      44.553   2.931   9.104  0.00  0.00    +0.000 C 
ATOM     11  O   UNL     1      44.531   1.736   9.369  0.00  0.00    +0.000 OA
ATOM     12  H   UNL     1      44.004   2.670   7.165  0.00  0.00    +0.000 HD
ATOM     13  H   UNL     1      44.447   4.303   7.525  0.00  0.00    +0.000 HD
ENDBRANCH   1  10
BRANCH   5  14
ATOM     14  C   UNL     1      47.058   7.608  13.097  0.00  0.00    +0.000 C 
ATOM     15  C   UNL     1      48.516   7.225  12.911  0.00  0.00    +0.000 C 
ATOM     16  C   UNL     1      48.064   7.734  14.238  0.00  0.00    +0.000 C 
BRANCH  14  17
ATOM     17  C   UNL     1      46.552   8.937  12.524  0.00  0.00    +0.000 A 
ATOM     18  C   UNL     1      45.195   9.272  12.591  0.00  0.00    +0.000 A 
ATOM     19  N   UNL     1      44.678  10.454  12.170  0.00  0.00    +0.000 NA
ATOM     20  C   UNL     1      45.576  11.311  11.645  0.00  0.00    +0.000 A 
ATOM     21  C   UNL     1      46.920  10.999  11.545  0.00  0.00    +0.000 A 
ATOM     22  N   UNL     1      47.434   9.824  11.982  0.00  0.00    +0.000 NA
ENDBRANCH  14  17
ENDBRANCH   5  14
TORSDOF 3
ENDMDL
MODEL 5
REMARK VINA RESULT:    -5.919      3.232      5.390
REMARK INTER + INTRA:          -6.687
REMARK INTER:                  -6.457
REMARK INTRA:                  -0.230
REMARK UNBOUND:                 0.270
REMARK  Name = 
REMARK  3 active torsions:
REMARK  status: ('A' for Active; 'I' for Inactive)
REMARK    1  A    between atoms: C_2  and  C_4
REMARK    2  A    between atoms: N_8  and  C_9
REMARK    3  A    between atoms: C_9  and  C_10
REMARK                            x       y       z     vdW  Elec       q    Type
REMARK                         _______ _______ _______ _____ _____    ______ ____
ROOT
ATOM      1  C   UNL     1      44.728   5.091  10.940  0.00  0.00    +0.000 A 
ATOM      2  C   UNL     1      45.873   5.774  10.544  0.00  0.00    +0.000 A 
ATOM      3  C   UNL     1      46.451   6.702  11.414  0.00  0.00    +0.000 A 
ATOM      4  C   UNL     1      45.878   6.929  12.663  0.00  0.00    +0.000 A 
ATOM      5  N   UNL     1      46.388   7.849  13.587  0.00  0.00    +0.000 N 
ATOM      6  N   UNL     1      44.762   6.280  13.054  0.00  0.00    +0.000 NA
ATOM      7  C   UNL     1      44.206   5.390  12.189  0.00  0.00    +0.000 A 
ATOM      8  H   UNL     1      45.859   7.751  14.449  0.00  0.00    +0.000 HD
ENDROOT
BRANCH   1  10
ATOM      9  N   UNL     1      44.077   4.290   8.737  0.00  0.00    +0.000 N 
ATOM     10  C   UNL     1      44.035   4.101  10.092  0.00  0.00    +0.000 C 
ATOM     11  O   UNL     1      43.469   3.129  10.573  0.00  0.00    +0.000 OA
ATOM     12  H   UNL     1      43.674   3.555   8.168  0.00  0.00    +0.000 HD
ATOM     13  H   UNL     1      44.726   4.922   8.293  0.00  0.00    +0.000 HD
ENDBRANCH   1  10
BRANCH   5  14
ATOM     14  C   UNL     1      47.794   8.283  13.624  0.00  0.00    +0.000 C 
ATOM     15  C   UNL     1      48.857   7.278  14.036  0.00  0.00    +0.000 C 
ATOM     16  C   UNL     1      48.487   8.372  14.982  0.00  0.00    +0.000 C 
BRANCH  14  17
ATOM     17  C   UNL     1      48.157   9.395  12.633  0.00  0.00    +0.000 A 
ATOM     18  C   UNL     1      49.369   9.362  11.936  0.00  0.00    +0.000 A 
ATOM     19  N   UNL     1      49.735  10.268  10.994  0.00  0.00    +0.000 NA
ATOM     20  C   UNL     1      48.839  11.251  10.777  0.00  0.00    +0.000 A 
ATOM     21  C   UNL     1      47.642  11.323  11.466  0.00  0.00    +0.000 A 
ATOM     22  N   UNL     1      47.274  10.407  12.393  0.00  0.00    +0.000 NA
ENDBRANCH  14  17
ENDBRANCH   5  14
TORSDOF 3
ENDMDL
MODEL 6
REMARK VINA RESULT:    -5.854      4.550      7.105
REMARK INTER + INTRA:          -6.611
REMARK INTER:                  -6.526
REMARK INTRA:                  -0.084
REMARK UNBOUND:                 0.270
REMARK  Name = 
REMARK  3 active torsions:
REMARK  status: ('A' for Active; 'I' for Inactive)
REMARK    1  A    between atoms: C_2  and  C_4
REMARK    2  A    between atoms: N_8  and  C_9
REMARK    3  A    between atoms: C_9  and  C_10
REMARK                            x       y       z     vdW  Elec       q    Type
REMARK                         _______ _______ _______ _____ _____    ______ ____
ROOT
ATOM      1  C   UNL     1      48.368   3.845  17.223  0.00  0.00    +0.000 A 
ATOM      2  C   UNL     1      47.814   5.017  16.720  0.00  0.00    +0.000 A 
ATOM      3  C   UNL     1      47.257   5.015  15.438  0.00  0.00    +0.000 A 
ATOM      4  C   UNL     1      47.261   3.843  14.685  0.00  0.00    +0.000 A 
ATOM      5  N   UNL     1      46.734   3.759  13.391  0.00  0.00    +0.000 N 
ATOM      6  N   UNL     1      47.804   2.704  15.160  0.00  0.00    +0.000 NA
ATOM      7  C   UNL     1      48.353   2.728  16.404  0.00  0.00    +0.000 A 
ATOM      8  H   UNL     1      46.764   2.786  13.105  0.00  0.00    +0.000 HD
ENDROOT
BRANCH   1  10
ATOM      9  N   UNL     1      48.306   3.064  19.527  0.00  0.00    +0.000 N 
ATOM     10  C   UNL     1      48.991   3.746  18.558  0.00  0.00    +0.000 C 
ATOM     11  O   UNL     1      50.093   4.226  18.788  0.00  0.00    +0.000 OA
ATOM     12  H   UNL     1      48.789   2.929  20.407  0.00  0.00    +0.000 HD
ATOM     13  H   UNL     1      47.530   2.453  19.320  0.00  0.00    +0.000 HD
ENDBRANCH   1  10
BRANCH   5  14
ATOM     14  C   UNL     1      45.689   4.656  12.869  0.00  0.00    +0.000 C 
ATOM     15  C   UNL     1      44.244   4.395  13.259  0.00  0.00    +0.000 C 
ATOM     16  C   UNL     1      44.686   4.089  11.868  0.00  0.00    +0.000 C 
BRANCH  14  17
ATOM     17  C   UNL     1      46.144   6.093  12.594  0.00  0.00    +0.000 A 
ATOM     18  C   UNL     1      45.304   7.175  12.879  0.00  0.00    +0.000 A 
ATOM     19  N   UNL     1      45.655   8.477  12.728  0.00  0.00    +0.000 NA
ATOM     20  C   UNL     1      46.900   8.676  12.251  0.00  0.00    +0.000 A 
ATOM     21  C   UNL     1      47.746   7.627  11.940  0.00  0.00    +0.000 A 
ATOM     22  N   UNL     1      47.396   6.329  12.107  0.00  0.00    +0.000 NA
ENDBRANCH  14  17
ENDBRANCH   5  14
TORSDOF 3
ENDMDL
MODEL 7
REMARK VINA RESULT:    -5.798      4.226      6.639
REMARK INTER + INTRA:          -6.544
REMARK INTER:                  -6.418
REMARK INTRA:                  -0.126
REMARK UNBOUND:                 0.270
REMARK  Name = 
REMARK  3 active torsions:
REMARK  status: ('A' for Active; 'I' for Inactive)
REMARK    1  A    between atoms: C_2  and  C_4
REMARK    2  A    between atoms: N_8  and  C_9
REMARK    3  A    between atoms: C_9  and  C_10
REMARK                            x       y       z     vdW  Elec       q    Type
REMARK                         _______ _______ _______ _____ _____    ______ ____
ROOT
ATOM      1  C   UNL     1      46.032   5.091  12.483  0.00  0.00    +0.000 A 
ATOM      2  C   UNL     1      46.277   4.012  13.324  0.00  0.00    +0.000 A 
ATOM      3  C   UNL     1      47.050   4.202  14.474  0.00  0.00    +0.000 A 
ATOM      4  C   UNL     1      47.560   5.466  14.762  0.00  0.00    +0.000 A 
ATOM      5  N   UNL     1      48.350   5.738  15.884  0.00  0.00    +0.000 N 
ATOM      6  N   UNL     1      47.336   6.518  13.947  0.00  0.00    +0.000 NA
ATOM      7  C   UNL     1      46.593   6.311  12.827  0.00  0.00    +0.000 A 
ATOM      8  H   UNL     1      48.504   6.741  15.922  0.00  0.00    +0.000 HD
ENDROOT
BRANCH   1  10
ATOM      9  N   UNL     1      45.114   6.123  10.480  0.00  0.00    +0.000 N 
ATOM     10  C   UNL     1      45.241   4.992  11.240  0.00  0.00    +0.000 C 
ATOM     11  O   UNL     1      44.740   3.935  10.881  0.00  0.00    +0.000 OA
ATOM     12  H   UNL     1      44.645   6.015   9.588  0.00  0.00    +0.000 HD
ATOM     13  H   UNL     1      45.703   6.933  10.603  0.00  0.00    +0.000 HD
ENDBRANCH   1  10
BRANCH   5  14
ATOM     14  C   UNL     1      48.318   4.945  17.125  0.00  0.00    +0.000 C 
ATOM     15  C   UNL     1      46.974   4.667  17.778  0.00  0.00    +0.000 C 
ATOM     16  C   UNL     1      47.904   5.643  18.418  0.00  0.00    +0.000 C 
BRANCH  14  17
ATOM     17  C   UNL     1      49.449   3.920  17.270  0.00  0.00    +0.000 A 
ATOM     18  C   UNL     1      49.232   2.571  16.968  0.00  0.00    +0.000 A 
ATOM     19  N   UNL     1      50.195   1.615  17.005  0.00  0.00    +0.000 NA
ATOM     20  C   UNL     1      51.413   2.052  17.384  0.00  0.00    +0.000 A 
ATOM     21  C   UNL     1      51.652   3.375  17.710  0.00  0.00    +0.000 A 
ATOM     22  N   UNL     1      50.692   4.328  17.655  0.00  0.00    +0.000 NA
ENDBRANCH  14  17
ENDBRANCH   5  14
TORSDOF 3
ENDMDL
MODEL 8
REMARK VINA RESULT:    -5.652      6.624      9.480
REMARK INTER + INTRA:          -6.373
REMARK INTER:                  -6.440
REMARK INTRA:                   0.067
REMARK UNBOUND:                 0.270
REMARK  Name = 
REMARK  3 active torsions:
REMARK  status: ('A' for Active; 'I' for Inactive)
REMARK    1  A    between atoms: C_2  and  C_4
REMARK    2  A    between atoms: N_8  and  C_9
REMARK    3  A    between atoms: C_9  and  C_10
REMARK                            x       y       z     vdW  Elec       q    Type
REMARK                         _______ _______ _______ _____ _____    ______ ____
ROOT
ATOM      1  C   UNL     1      53.075   2.090  18.189  0.00  0.00    +0.000 A 
ATOM      2  C   UNL     1      52.393   3.298  18.087  0.00  0.00    +0.000 A 
ATOM      3  C   UNL     1      51.104   3.312  17.547  0.00  0.00    +0.000 A 
ATOM      4  C   UNL     1      50.520   2.121  17.123  0.00  0.00    +0.000 A 
ATOM      5  N   UNL     1      49.240   2.050  16.561  0.00  0.00    +0.000 N 
ATOM      6  N   UNL     1      51.176   0.946  17.208  0.00  0.00    +0.000 NA
ATOM      7  C   UNL     1      52.434   0.953  17.724  0.00  0.00    +0.000 A 
ATOM      8  H   UNL     1      49.008   1.070  16.434  0.00  0.00    +0.000 HD
ENDROOT
BRANCH   1  10
ATOM      9  N   UNL     1      54.576   1.842  20.089  0.00  0.00    +0.000 N 
ATOM     10  C   UNL     1      54.443   1.970  18.732  0.00  0.00    +0.000 C 
ATOM     11  O   UNL     1      55.424   1.952  18.001  0.00  0.00    +0.000 OA
ATOM     12  H   UNL     1      55.513   1.670  20.434  0.00  0.00    +0.000 HD
ATOM     13  H   UNL     1      53.804   1.605  20.693  0.00  0.00    +0.000 HD
ENDBRANCH   1  10
BRANCH   5  14
ATOM     14  C   UNL     1      48.177   3.038  16.812  0.00  0.00    +0.000 C 
ATOM     15  C   UNL     1      48.069   3.659  18.194  0.00  0.00    +0.000 C 
ATOM     16  C   UNL     1      47.049   2.658  17.767  0.00  0.00    +0.000 C 
BRANCH  14  17
ATOM     17  C   UNL     1      47.746   3.854  15.587  0.00  0.00    +0.000 A 
ATOM     18  C   UNL     1      47.896   5.244  15.568  0.00  0.00    +0.000 A 
ATOM     19  N   UNL     1      47.604   6.030  14.500  0.00  0.00    +0.000 NA
ATOM     20  C   UNL     1      47.123   5.372  13.427  0.00  0.00    +0.000 A 
ATOM     21  C   UNL     1      46.943   4.000  13.424  0.00  0.00    +0.000 A 
ATOM     22  N   UNL     1      47.252   3.219  14.486  0.00  0.00    +0.000 NA
ENDBRANCH  14  17
ENDBRANCH   5  14
TORSDOF 3
ENDMDL
MODEL 9
REMARK VINA RESULT:    -5.332      3.393      5.143
REMARK INTER + INTRA:          -5.996
REMARK INTER:                  -6.487
REMARK INTRA:                   0.490
REMARK UNBOUND:                 0.270
REMARK  Name = 
REMARK  3 active torsions:
REMARK  status: ('A' for Active; 'I' for Inactive)
REMARK    1  A    between atoms: C_2  and  C_4
REMARK    2  A    between atoms: N_8  and  C_9
REMARK    3  A    between atoms: C_9  and  C_10
REMARK                            x       y       z     vdW  Elec       q    Type
REMARK                         _______ _______ _______ _____ _____    ______ ____
ROOT
ATOM      1  C   UNL     1      44.555   4.360  11.645  0.00  0.00    +0.000 A 
ATOM      2  C   UNL     1      45.699   4.942  11.111  0.00  0.00    +0.000 A 
ATOM      3  C   UNL     1      46.157   6.155  11.634  0.00  0.00    +0.000 A 
ATOM      4  C   UNL     1      45.467   6.761  12.681  0.00  0.00    +0.000 A 
ATOM      5  N   UNL     1      45.852   7.979  13.253  0.00  0.00    +0.000 N 
ATOM      6  N   UNL     1      44.351   6.210  13.200  0.00  0.00    +0.000 NA
ATOM      7  C   UNL     1      43.913   5.036  12.670  0.00  0.00    +0.000 A 
ATOM      8  H   UNL     1      45.255   8.149  14.056  0.00  0.00    +0.000 HD
ENDROOT
BRANCH   1  10
ATOM      9  N   UNL     1      43.539   2.195  12.092  0.00  0.00    +0.000 N 
ATOM     10  C   UNL     1      43.983   3.089  11.156  0.00  0.00    +0.000 C 
ATOM     11  O   UNL     1      43.878   2.852   9.961  0.00  0.00    +0.000 OA
ATOM     12  H   UNL     1      43.068   1.371  11.738  0.00  0.00    +0.000 HD
ATOM     13  H   UNL     1      43.379   2.447  13.056  0.00  0.00    +0.000 HD
ENDBRANCH   1  10
BRANCH   5  14
ATOM     14  C   UNL     1      47.229   8.499  13.228  0.00  0.00    +0.000 C 
ATOM     15  C   UNL     1      47.480   9.874  12.631  0.00  0.00    +0.000 C 
ATOM     16  C   UNL     1      47.915   8.664  11.874  0.00  0.00    +0.000 C 
BRANCH  14  17
ATOM     17  C   UNL     1      48.134   7.997  14.360  0.00  0.00    +0.000 A 
ATOM     18  C   UNL     1      48.390   6.631  14.515  0.00  0.00    +0.000 A 
ATOM     19  N   UNL     1      49.230   6.111  15.446  0.00  0.00    +0.000 NA
ATOM     20  C   UNL     1      49.809   7.020  16.257  0.00  0.00    +0.000 A 
ATOM     21  C   UNL     1      49.558   8.375  16.142  0.00  0.00    +0.000 A 
ATOM     22  N   UNL     1      48.731   8.890  15.200  0.00  0.00    +0.000 NA
ENDBRANCH  14  17
ENDBRANCH   5  14
TORSDOF 3
ENDMDL
