MODEL 1
REMARK VINA RESULT:    -8.590      0.000      0.000
REMARK INTER + INTRA:         -12.996
REMARK INTER:                 -12.106
REMARK INTRA:                  -0.890
REMARK UNBOUND:                -0.890
REMARK  Name = 
REMARK  7 active torsions:
REMARK  status: ('A' for Active; 'I' for Inactive)
REMARK    1  A    between atoms: C_2  and  C_26
REMARK    2  A    between atoms: N_3  and  C_4
REMARK    3  A    between atoms: C_4  and  C_5
REMARK    4  A    between atoms: C_8  and  C_9
REMARK    5  A    between atoms: C_9  and  C_10
REMARK    6  A    between atoms: C_10  and  N_11
REMARK    7  A    between atoms: C_12  and  C_14
REMARK                            x       y       z     vdW  Elec       q    Type
REMARK                         _______ _______ _______ _____ _____    ______ ____
ROOT
ATOM      1  C   UNL     1      45.663   4.529  12.441  0.00  0.00    +0.000 A 
ATOM      2  C   UNL     1      46.197   4.036  13.634  0.00  0.00    +0.000 A 
ATOM      3  C   UNL     1      47.126   4.782  14.359  0.00  0.00    +0.000 A 
ATOM      4  C   UNL     1      47.556   6.036  13.904  0.00  0.00    +0.000 A 
ATOM      5  C   UNL     1      46.993   6.544  12.724  0.00  0.00    +0.000 A 
ATOM      6  C   UNL     1      46.053   5.801  12.001  0.00  0.00    +0.000 A 
ENDROOT
BRANCH   1   7
ATOM      7  C   UNL     1      44.685   3.699  11.660  0.00  0.00    +0.000 C 
BRANCH   7  10
ATOM      8  O   UNL     1      44.281   4.345   8.972  0.00  0.00    +0.000 OA
ATOM      9  C   UNL     1      45.048   3.429   9.258  0.00  0.00    +0.000 C 
ATOM     10  N   UNL     1      45.300   3.027  10.549  0.00  0.00    +0.000 N 
ATOM     11  H   UNL     1      45.905   2.221  10.685  0.00  0.00    +0.000 HD
BRANCH   9  12
ATOM     12  C   UNL     1      45.784   2.674   8.196  0.00  0.00    +0.000 A 
ATOM     13  C   UNL     1      46.111   3.318   7.009  0.00  0.00    +0.000 A 
ATOM     14  C   UNL     1      46.823   2.606   6.049  0.00  0.00    +0.000 A 
ATOM     15  C   UNL     1      47.172   1.284   6.305  0.00  0.00    +0.000 A 
ATOM     16  C   UNL     1      46.797   0.721   7.517  0.00  0.00    +0.000 A 
ATOM     17  N   UNL     1      46.109   1.380   8.476  0.00  0.00    +0.000 NA
ENDBRANCH   9  12
ENDBRANCH   7  10
ENDBRANCH   1   7
BRANCH   4  18
ATOM     18  C   UNL     1      48.555   6.870  14.675  0.00  0.00    +0.000 C 
BRANCH  18  19
ATOM     19  C   UNL     1      48.485   6.687  16.191  0.00  0.00    +0.000 C 
BRANCH  19  20
ATOM     20  N   UNL     1      49.657   6.045  16.735  0.00  0.00    +0.000 N 
ATOM     21  C   UNL     1      49.520   4.902  17.489  0.00  0.00    +0.000 C 
ATOM     22  O   UNL     1      48.433   4.363  17.677  0.00  0.00    +0.000 OA
ATOM     23  H   UNL     1      50.475   6.626  16.900  0.00  0.00    +0.000 HD
BRANCH  21  24
ATOM     24  C   UNL     1      50.759   4.324  18.004  0.00  0.00    +0.000 A 
ATOM     25  C   UNL     1      51.602   5.089  18.797  0.00  0.00    +0.000 A 
ATOM     26  S   UNL     1      52.971   4.235  19.350  0.00  0.00    +0.000 S 
ATOM     27  C   UNL     1      52.507   2.835  18.500  0.00  0.00    +0.000 A 
ATOM     28  N   UNL     1      53.278   1.714  18.522  0.00  0.00    +0.000 NA
ATOM     29  C   UNL     1      52.824   0.743  17.802  0.00  0.00    +0.000 A 
ATOM     30  N   UNL     1      51.665   0.788  17.069  0.00  0.00    +0.000 N 
ATOM     31  C   UNL     1      50.829   1.876  17.058  0.00  0.00    +0.000 A 
ATOM     32  O   UNL     1      49.758   1.853  16.462  0.00  0.00    +0.000 OA
ATOM     33  C   UNL     1      51.315   3.005  17.827  0.00  0.00    +0.000 A 
ATOM     34  H   UNL     1      51.357  -0.017  16.540  0.00  0.00    +0.000 HD
ENDBRANCH  21  24
ENDBRANCH  19  20
ENDBRANCH  18  19
ENDBRANCH   4  18
TORSDOF 7
ENDMDL
MODEL 2
REMARK VINA RESULT:    -8.570      2.438      3.011
REMARK INTER + INTRA:         -12.967
REMARK INTER:                 -12.198
REMARK INTRA:                  -0.769
REMARK UNBOUND:                -0.890
REMARK  Name = 
REMARK  7 active torsions:
REMARK  status: ('A' for Active; 'I' for Inactive)
REMARK    1  A    between atoms: C_2  and  C_26
REMARK    2  A    between atoms: N_3  and  C_4
REMARK    3  A    between atoms: C_4  and  C_5
REMARK    4  A    between atoms: C_8  and  C_9
REMARK    5  A    between atoms: C_9  and  C_10
REMARK    6  A    between atoms: C_10  and  N_11
REMARK    7  A    between atoms: C_12  and  C_14
REMARK                            x       y       z     vdW  Elec       q    Type
REMARK                         _______ _______ _______ _____ _____    ______ ____
ROOT
ATOM      1  C   UNL     1      44.235   4.612  11.667  0.00  0.00    +0.000 A 
ATOM      2  C   UNL     1      45.450   4.664  12.354  0.00  0.00    +0.000 A 
ATOM      3  C   UNL     1      45.958   5.880  12.810  0.00  0.00    +0.000 A 
ATOM      4  C   UNL     1      45.270   7.080  12.579  0.00  0.00    +0.000 A 
ATOM      5  C   UNL     1      44.034   7.021  11.920  0.00  0.00    +0.000 A 
ATOM      6  C   UNL     1      43.519   5.800  11.471  0.00  0.00    +0.000 A 
ENDROOT
BRANCH   1   7
ATOM      7  C   UNL     1      43.718   3.297  11.160  0.00  0.00    +0.000 C 
BRANCH   7  10
ATOM      8  O   UNL     1      44.154   4.240   8.567  0.00  0.00    +0.000 OA
ATOM      9  C   UNL     1      44.760   3.242   8.950  0.00  0.00    +0.000 C 
ATOM     10  N   UNL     1      44.602   2.693  10.201  0.00  0.00    +0.000 N 
ATOM     11  H   UNL     1      45.102   1.832  10.409  0.00  0.00    +0.000 HD
BRANCH   9  12
ATOM     12  C   UNL     1      45.740   2.541   8.063  0.00  0.00    +0.000 A 
ATOM     13  C   UNL     1      46.306   3.233   6.998  0.00  0.00    +0.000 A 
ATOM     14  C   UNL     1      47.238   2.572   6.205  0.00  0.00    +0.000 A 
ATOM     15  C   UNL     1      47.564   1.252   6.498  0.00  0.00    +0.000 A 
ATOM     16  C   UNL     1      46.944   0.639   7.578  0.00  0.00    +0.000 A 
ATOM     17  N   UNL     1      46.036   1.248   8.374  0.00  0.00    +0.000 NA
ENDBRANCH   9  12
ENDBRANCH   7  10
ENDBRANCH   1   7
BRANCH   4  18
ATOM     18  C   UNL     1      45.793   8.412  13.070  0.00  0.00    +0.000 C 
BRANCH  18  19
ATOM     19  C   UNL     1      47.298   8.430  13.346  0.00  0.00    +0.000 C 
BRANCH  19  20
ATOM     20  N   UNL     1      47.633   7.957  14.667  0.00  0.00    +0.000 N 
ATOM     21  C   UNL     1      48.638   7.031  14.825  0.00  0.00    +0.000 C 
ATOM     22  O   UNL     1      49.312   6.624  13.883  0.00  0.00    +0.000 OA
ATOM     23  H   UNL     1      46.903   7.988  15.374  0.00  0.00    +0.000 HD
BRANCH  21  24
ATOM     24  C   UNL     1      48.905   6.604  16.196  0.00  0.00    +0.000 A 
ATOM     25  C   UNL     1      49.553   7.461  17.074  0.00  0.00    +0.000 A 
ATOM     26  S   UNL     1      49.732   6.816  18.642  0.00  0.00    +0.000 S 
ATOM     27  C   UNL     1      49.000   5.350  18.181  0.00  0.00    +0.000 A 
ATOM     28  N   UNL     1      48.864   4.326  19.065  0.00  0.00    +0.000 NA
ATOM     29  C   UNL     1      48.326   3.262  18.568  0.00  0.00    +0.000 A 
ATOM     30  N   UNL     1      47.905   3.133  17.268  0.00  0.00    +0.000 N 
ATOM     31  C   UNL     1      47.973   4.155  16.355  0.00  0.00    +0.000 A 
ATOM     32  O   UNL     1      47.509   4.035  15.227  0.00  0.00    +0.000 OA
ATOM     33  C   UNL     1      48.601   5.360  16.860  0.00  0.00    +0.000 A 
ATOM     34  H   UNL     1      47.474   2.275  16.948  0.00  0.00    +0.000 HD
ENDBRANCH  21  24
ENDBRANCH  19  20
ENDBRANCH  18  19
ENDBRANCH   4  18
TORSDOF 7
ENDMDL
MODEL 3
REMARK VINA RESULT:    -8.449      2.734      3.189
REMARK INTER + INTRA:         -12.797
REMARK INTER:                 -11.576
REMARK INTRA:                  -1.221
REMARK UNBOUND:                -0.890
REMARK  Name = 
REMARK  7 active torsions:
REMARK  status: ('A' for Active; 'I' for Inactive)
REMARK    1  A    between atoms: C_2  and  C_26
REMARK    2  A    between atoms: N_3  and  C_4
REMARK    3  A    between atoms: C_4  and  C_5
REMARK    4  A    between atoms: C_8  and  C_9
REMARK    5  A    between atoms: C_9  and  C_10
REMARK    6  A    between atoms: C_10  and  N_11
REMARK    7  A    between atoms: C_12  and  C_14
REMARK                            x       y       z     vdW  Elec       q    Type
REMARK                         _______ _______ _______ _____ _____    ______ ____
ROOT
ATOM      1  C   UNL     1      45.353   6.425  11.438  0.00  0.00    +0.000 A 
ATOM      2  C   UNL     1      46.744   6.384  11.314  0.00  0.00    +0.000 A 
ATOM      3  C   UNL     1      47.538   7.371  11.899  0.00  0.00    +0.000 A 
ATOM      4  C   UNL     1      46.962   8.432  12.612  0.00  0.00    +0.000 A 
ATOM      5  C   UNL     1      45.568   8.451  12.764  0.00  0.00    +0.000 A 
ATOM      6  C   UNL     1      44.771   7.456  12.187  0.00  0.00    +0.000 A 
ENDROOT
BRANCH   1   7
ATOM      7  C   UNL     1      44.513   5.369  10.779  0.00  0.00    +0.000 C 
BRANCH   7  10
ATOM      8  O   UNL     1      43.927   2.764   9.957  0.00  0.00    +0.000 OA
ATOM      9  C   UNL     1      44.863   3.360   9.430  0.00  0.00    +0.000 C 
ATOM     10  N   UNL     1      45.238   4.638   9.777  0.00  0.00    +0.000 N 
ATOM     11  H   UNL     1      46.062   5.029   9.326  0.00  0.00    +0.000 HD
BRANCH   9  12
ATOM     12  C   UNL     1      45.674   2.727   8.344  0.00  0.00    +0.000 A 
ATOM     13  C   UNL     1      46.030   3.484   7.234  0.00  0.00    +0.000 A 
ATOM     14  C   UNL     1      46.811   2.884   6.252  0.00  0.00    +0.000 A 
ATOM     15  C   UNL     1      47.198   1.557   6.409  0.00  0.00    +0.000 A 
ATOM     16  C   UNL     1      46.791   0.877   7.549  0.00  0.00    +0.000 A 
ATOM     17  N   UNL     1      46.035   1.426   8.527  0.00  0.00    +0.000 NA
ENDBRANCH   9  12
ENDBRANCH   7  10
ENDBRANCH   1   7
BRANCH   4  18
ATOM     18  C   UNL     1      47.800   9.509  13.263  0.00  0.00    +0.000 C 
BRANCH  18  19
ATOM     19  C   UNL     1      49.104   9.001  13.880  0.00  0.00    +0.000 C 
BRANCH  19  20
ATOM     20  N   UNL     1      48.888   8.114  14.998  0.00  0.00    +0.000 N 
ATOM     21  C   UNL     1      49.927   7.344  15.467  0.00  0.00    +0.000 C 
ATOM     22  O   UNL     1      51.063   7.418  15.005  0.00  0.00    +0.000 OA
ATOM     23  H   UNL     1      47.942   7.777  15.152  0.00  0.00    +0.000 HD
BRANCH  21  24
ATOM     24  C   UNL     1      49.617   6.471  16.597  0.00  0.00    +0.000 A 
ATOM     25  C   UNL     1      50.253   6.664  17.814  0.00  0.00    +0.000 A 
ATOM     26  S   UNL     1      49.730   5.589  19.030  0.00  0.00    +0.000 S 
ATOM     27  C   UNL     1      48.679   4.796  17.951  0.00  0.00    +0.000 A 
ATOM     28  N   UNL     1      47.933   3.732  18.353  0.00  0.00    +0.000 NA
ATOM     29  C   UNL     1      47.211   3.206  17.420  0.00  0.00    +0.000 A 
ATOM     30  N   UNL     1      47.161   3.653  16.124  0.00  0.00    +0.000 N 
ATOM     31  C   UNL     1      47.854   4.753  15.685  0.00  0.00    +0.000 A 
ATOM     32  O   UNL     1      47.721   5.178  14.543  0.00  0.00    +0.000 OA
ATOM     33  C   UNL     1      48.705   5.358  16.691  0.00  0.00    +0.000 A 
ATOM     34  H   UNL     1      46.559   3.204  15.446  0.00  0.00    +0.000 HD
ENDBRANCH  21  24
ENDBRANCH  19  20
ENDBRANCH  18  19
ENDBRANCH   4  18
TORSDOF 7
ENDMDL
MODEL 4
REMARK VINA RESULT:    -7.696      2.273      2.913
REMARK INTER + INTRA:         -11.735
REMARK INTER:                 -10.816
REMARK INTRA:                  -0.919
REMARK UNBOUND:                -0.890
REMARK  Name = 
REMARK  7 active torsions:
REMARK  status: ('A' for Active; 'I' for Inactive)
REMARK    1  A    between atoms: C_2  and  C_26
REMARK    2  A    between atoms: N_3  and  C_4
REMARK    3  A    between atoms: C_4  and  C_5
REMARK    4  A    between atoms: C_8  and  C_9
REMARK    5  A    between atoms: C_9  and  C_10
REMARK    6  A    between atoms: C_10  and  N_11
REMARK    7  A    between atoms: C_12  and  C_14
REMARK                            x       y       z     vdW  Elec       q    Type
REMARK                         _______ _______ _______ _____ _____    ______ ____
ROOT
ATOM      1  C   UNL     1      44.956   6.089  11.406  0.00  0.00    +0.000 A 
ATOM      2  C   UNL     1      44.852   7.482  11.437  0.00  0.00    +0.000 A 
ATOM      3  C   UNL     1      45.616   8.232  12.332  0.00  0.00    +0.000 A 
ATOM      4  C   UNL     1      46.496   7.608  13.227  0.00  0.00    +0.000 A 
ATOM      5  C   UNL     1      46.624   6.213  13.169  0.00  0.00    +0.000 A 
ATOM      6  C   UNL     1      45.866   5.460  12.265  0.00  0.00    +0.000 A 
ENDROOT
BRANCH   1   7
ATOM      7  C   UNL     1      44.105   5.297  10.455  0.00  0.00    +0.000 C 
BRANCH   7  10
ATOM      8  O   UNL     1      44.311   2.528  10.146  0.00  0.00    +0.000 OA
ATOM      9  C   UNL     1      44.910   3.263   9.365  0.00  0.00    +0.000 C 
ATOM     10  N   UNL     1      44.883   4.636   9.443  0.00  0.00    +0.000 N 
ATOM     11  H   UNL     1      45.457   5.160   8.788  0.00  0.00    +0.000 HD
BRANCH   9  12
ATOM     12  C   UNL     1      45.724   2.702   8.242  0.00  0.00    +0.000 A 
ATOM     13  C   UNL     1      46.052   3.520   7.167  0.00  0.00    +0.000 A 
ATOM     14  C   UNL     1      46.836   2.987   6.149  0.00  0.00    +0.000 A 
ATOM     15  C   UNL     1      47.254   1.663   6.237  0.00  0.00    +0.000 A 
ATOM     16  C   UNL     1      46.873   0.918   7.346  0.00  0.00    +0.000 A 
ATOM     17  N   UNL     1      46.115   1.402   8.356  0.00  0.00    +0.000 NA
ENDBRANCH   9  12
ENDBRANCH   7  10
ENDBRANCH   1   7
BRANCH   4  18
ATOM     18  C   UNL     1      47.343   8.397  14.200  0.00  0.00    +0.000 C 
BRANCH  18  19
ATOM     19  C   UNL     1      48.639   7.696  14.613  0.00  0.00    +0.000 C 
BRANCH  19  20
ATOM     20  N   UNL     1      48.706   7.429  16.030  0.00  0.00    +0.000 N 
ATOM     21  C   UNL     1      48.590   6.136  16.485  0.00  0.00    +0.000 C 
ATOM     22  O   UNL     1      48.485   5.177  15.726  0.00  0.00    +0.000 OA
ATOM     23  H   UNL     1      48.437   8.179  16.660  0.00  0.00    +0.000 HD
BRANCH  21  24
ATOM     24  C   UNL     1      48.663   5.960  17.933  0.00  0.00    +0.000 A 
ATOM     25  C   UNL     1      47.567   6.271  18.725  0.00  0.00    +0.000 A 
ATOM     26  S   UNL     1      47.815   5.953  20.382  0.00  0.00    +0.000 S 
ATOM     27  C   UNL     1      49.415   5.443  20.099  0.00  0.00    +0.000 A 
ATOM     28  N   UNL     1      50.219   5.056  21.125  0.00  0.00    +0.000 NA
ATOM     29  C   UNL     1      51.418   4.732  20.768  0.00  0.00    +0.000 A 
ATOM     30  N   UNL     1      51.882   4.754  19.477  0.00  0.00    +0.000 N 
ATOM     31  C   UNL     1      51.094   5.086  18.404  0.00  0.00    +0.000 A 
ATOM     32  O   UNL     1      51.514   5.012  17.255  0.00  0.00    +0.000 OA
ATOM     33  C   UNL     1      49.747   5.489  18.760  0.00  0.00    +0.000 A 
ATOM     34  H   UNL     1      52.829   4.470  19.264  0.00  0.00    +0.000 HD
ENDBRANCH  21  24
ENDBRANCH  19  20
ENDBRANCH  18  19
ENDBRANCH   4  18
TORSDOF 7
ENDMDL
MODEL 5
REMARK VINA RESULT:    -7.445      5.254      6.352
REMARK INTER + INTRA:         -11.382
REMARK INTER:                 -10.147
REMARK INTRA:                  -1.234
REMARK UNBOUND:                -0.890
REMARK  Name = 
REMARK  7 active torsions:
REMARK  status: ('A' for Active; 'I' for Inactive)
REMARK    1  A    between atoms: C_2  and  C_26
REMARK    2  A    between atoms: N_3  and  C_4
REMARK    3  A    between atoms: C_4  and  C_5
REMARK    4  A    between atoms: C_8  and  C_9
REMARK    5  A    between atoms: C_9  and  C_10
REMARK    6  A    between atoms: C_10  and  N_11
REMARK    7  A    between atoms: C_12  and  C_14
REMARK                            x       y       z     vdW  Elec       q    Type
REMARK                         _______ _______ _______ _____ _____    ______ ____
ROOT
ATOM      1  C   UNL     1      45.364   6.274  11.716  0.00  0.00    +0.000 A 
ATOM      2  C   UNL     1      45.110   7.646  11.779  0.00  0.00    +0.000 A 
ATOM      3  C   UNL     1      45.900   8.480  12.570  0.00  0.00    +0.000 A 
ATOM      4  C   UNL     1      46.959   7.962  13.330  0.00  0.00    +0.000 A 
ATOM      5  C   UNL     1      47.233   6.590  13.238  0.00  0.00    +0.000 A 
ATOM      6  C   UNL     1      46.448   5.754  12.437  0.00  0.00    +0.000 A 
ENDROOT
BRANCH   1   7
ATOM      7  C   UNL     1      44.486   5.388  10.881  0.00  0.00    +0.000 C 
BRANCH   7  10
ATOM      8  O   UNL     1      43.833   2.844   9.930  0.00  0.00    +0.000 OA
ATOM      9  C   UNL     1      44.816   3.420   9.469  0.00  0.00    +0.000 C 
ATOM     10  N   UNL     1      45.226   4.666   9.883  0.00  0.00    +0.000 N 
ATOM     11  H   UNL     1      46.085   5.039   9.485  0.00  0.00    +0.000 HD
BRANCH   9  12
ATOM     12  C   UNL     1      45.650   2.794   8.396  0.00  0.00    +0.000 A 
ATOM     13  C   UNL     1      46.032   3.561   7.301  0.00  0.00    +0.000 A 
ATOM     14  C   UNL     1      46.833   2.967   6.331  0.00  0.00    +0.000 A 
ATOM     15  C   UNL     1      47.214   1.638   6.485  0.00  0.00    +0.000 A 
ATOM     16  C   UNL     1      46.780   0.949   7.609  0.00  0.00    +0.000 A 
ATOM     17  N   UNL     1      46.004   1.491   8.575  0.00  0.00    +0.000 NA
ENDBRANCH   9  12
ENDBRANCH   7  10
ENDBRANCH   1   7
BRANCH   4  18
ATOM     18  C   UNL     1      47.837   8.845  14.188  0.00  0.00    +0.000 C 
BRANCH  18  19
ATOM     19  C   UNL     1      48.280  10.140  13.506  0.00  0.00    +0.000 C 
BRANCH  19  20
ATOM     20  N   UNL     1      49.500   9.989  12.750  0.00  0.00    +0.000 N 
ATOM     21  C   UNL     1      49.557  10.440  11.452  0.00  0.00    +0.000 C 
ATOM     22  O   UNL     1      48.620  11.026  10.916  0.00  0.00    +0.000 OA
ATOM     23  H   UNL     1      50.124   9.232  13.016  0.00  0.00    +0.000 HD
BRANCH  21  24
ATOM     24  C   UNL     1      50.828  10.239  10.761  0.00  0.00    +0.000 A 
ATOM     25  C   UNL     1      51.477  11.319  10.179  0.00  0.00    +0.000 A 
ATOM     26  S   UNL     1      52.969  10.908   9.464  0.00  0.00    +0.000 S 
ATOM     27  C   UNL     1      52.766   9.264   9.860  0.00  0.00    +0.000 A 
ATOM     28  N   UNL     1      53.693   8.337   9.499  0.00  0.00    +0.000 NA
ATOM     29  C   UNL     1      53.391   7.126   9.830  0.00  0.00    +0.000 A 
ATOM     30  N   UNL     1      52.249   6.759  10.498  0.00  0.00    +0.000 N 
ATOM     31  C   UNL     1      51.312   7.664  10.929  0.00  0.00    +0.000 A 
ATOM     32  O   UNL     1      50.347   7.315  11.597  0.00  0.00    +0.000 OA
ATOM     33  C   UNL     1      51.594   9.035  10.549  0.00  0.00    +0.000 A 
ATOM     34  H   UNL     1      52.082   5.793  10.743  0.00  0.00    +0.000 HD
ENDBRANCH  21  24
ENDBRANCH  19  20
ENDBRANCH  18  19
ENDBRANCH   4  18
TORSDOF 7
ENDMDL
MODEL 6
REMARK VINA RESULT:    -7.251      2.886      9.320
REMARK INTER + INTRA:         -11.108
REMARK INTER:                 -11.010
REMARK INTRA:                  -0.098
REMARK UNBOUND:                -0.890
REMARK  Name = 
REMARK  7 active torsions:
REMARK  status: ('A' for Active; 'I' for Inactive)
REMARK    1  A    between atoms: C_2  and  C_26
REMARK    2  A    between atoms: N_3  and  C_4
REMARK    3  A    between atoms: C_4  and  C_5
REMARK    4  A    between atoms: C_8  and  C_9
REMARK    5  A    between atoms: C_9  and  C_10
REMARK    6  A    between atoms: C_10  and  N_11
REMARK    7  A    between atoms: C_12  and  C_14
REMARK                            x       y       z     vdW  Elec       q    Type
REMARK                         _______ _______ _______ _____ _____    ______ ____
ROOT
ATOM      1  C   UNL     1      48.027   4.988  16.149  0.00  0.00    +0.000 A 
ATOM      2  C   UNL     1      48.701   6.200  16.317  0.00  0.00    +0.000 A 
ATOM      3  C   UNL     1      48.770   7.126  15.276  0.00  0.00    +0.000 A 
ATOM      4  C   UNL     1      48.176   6.860  14.034  0.00  0.00    +0.000 A 
ATOM      5  C   UNL     1      47.471   5.658  13.879  0.00  0.00    +0.000 A 
ATOM      6  C   UNL     1      47.393   4.733  14.926  0.00  0.00    +0.000 A 
ENDROOT
BRANCH   1   7
ATOM      7  C   UNL     1      47.987   3.993  17.272  0.00  0.00    +0.000 C 
BRANCH   7  10
ATOM      8  O   UNL     1      49.440   1.855  16.211  0.00  0.00    +0.000 OA
ATOM      9  C   UNL     1      49.942   2.534  17.103  0.00  0.00    +0.000 C 
ATOM     10  N   UNL     1      49.301   3.596  17.699  0.00  0.00    +0.000 N 
ATOM     11  H   UNL     1      49.773   4.063  18.469  0.00  0.00    +0.000 HD
BRANCH   9  12
ATOM     12  C   UNL     1      51.320   2.251  17.611  0.00  0.00    +0.000 A 
ATOM     13  C   UNL     1      51.848   0.973  17.464  0.00  0.00    +0.000 A 
ATOM     14  C   UNL     1      53.143   0.741  17.915  0.00  0.00    +0.000 A 
ATOM     15  C   UNL     1      53.856   1.783  18.500  0.00  0.00    +0.000 A 
ATOM     16  C   UNL     1      53.245   3.025  18.611  0.00  0.00    +0.000 A 
ATOM     17  N   UNL     1      51.991   3.291  18.181  0.00  0.00    +0.000 NA
ENDBRANCH   9  12
ENDBRANCH   7  10
ENDBRANCH   1   7
BRANCH   4  18
ATOM     18  C   UNL     1      48.227   7.850  12.892  0.00  0.00    +0.000 C 
BRANCH  18  19
ATOM     19  C   UNL     1      46.947   7.909  12.058  0.00  0.00    +0.000 C 
BRANCH  19  20
ATOM     20  N   UNL     1      46.396   6.604  11.780  0.00  0.00    +0.000 N 
ATOM     21  C   UNL     1      45.052   6.474  11.518  0.00  0.00    +0.000 C 
ATOM     22  O   UNL     1      44.297   7.440  11.453  0.00  0.00    +0.000 OA
ATOM     23  H   UNL     1      46.883   5.799  12.164  0.00  0.00    +0.000 HD
BRANCH  21  24
ATOM     24  C   UNL     1      44.580   5.117  11.254  0.00  0.00    +0.000 A 
ATOM     25  C   UNL     1      43.783   4.468  12.187  0.00  0.00    +0.000 A 
ATOM     26  S   UNL     1      43.284   2.916  11.688  0.00  0.00    +0.000 S 
ATOM     27  C   UNL     1      44.165   3.040  10.237  0.00  0.00    +0.000 A 
ATOM     28  N   UNL     1      44.193   2.015   9.343  0.00  0.00    +0.000 NA
ATOM     29  C   UNL     1      44.931   2.233   8.306  0.00  0.00    +0.000 A 
ATOM     30  N   UNL     1      45.639   3.387   8.078  0.00  0.00    +0.000 N 
ATOM     31  C   UNL     1      45.600   4.467   8.924  0.00  0.00    +0.000 A 
ATOM     32  O   UNL     1      46.174   5.514   8.649  0.00  0.00    +0.000 OA
ATOM     33  C   UNL     1      44.808   4.256  10.120  0.00  0.00    +0.000 A 
ATOM     34  H   UNL     1      46.185   3.500   7.235  0.00  0.00    +0.000 HD
ENDBRANCH  21  24
ENDBRANCH  19  20
ENDBRANCH  18  19
ENDBRANCH   4  18
TORSDOF 7
ENDMDL
MODEL 7
REMARK VINA RESULT:    -7.156      3.901      8.740
REMARK INTER + INTRA:         -10.975
REMARK INTER:                  -9.643
REMARK INTRA:                  -1.332
REMARK UNBOUND:                -0.890
REMARK  Name = 
REMARK  7 active torsions:
REMARK  status: ('A' for Active; 'I' for Inactive)
REMARK    1  A    between atoms: C_2  and  C_26
REMARK    2  A    between atoms: N_3  and  C_4
REMARK    3  A    between atoms: C_4  and  C_5
REMARK    4  A    between atoms: C_8  and  C_9
REMARK    5  A    between atoms: C_9  and  C_10
REMARK    6  A    between atoms: C_10  and  N_11
REMARK    7  A    between atoms: C_12  and  C_14
REMARK                            x       y       z     vdW  Elec       q    Type
REMARK                         _______ _______ _______ _____ _____    ______ ____
ROOT
ATOM      1  C   UNL     1      48.649   4.777  17.963  0.00  0.00    +0.000 A 
ATOM      2  C   UNL     1      49.602   5.430  17.178  0.00  0.00    +0.000 A 
ATOM      3  C   UNL     1      49.533   6.808  16.976  0.00  0.00    +0.000 A 
ATOM      4  C   UNL     1      48.501   7.569  17.544  0.00  0.00    +0.000 A 
ATOM      5  C   UNL     1      47.567   6.917  18.361  0.00  0.00    +0.000 A 
ATOM      6  C   UNL     1      47.641   5.535  18.572  0.00  0.00    +0.000 A 
ENDROOT
BRANCH   1   7
ATOM      7  C   UNL     1      48.725   3.288  18.147  0.00  0.00    +0.000 C 
BRANCH   7  10
ATOM      8  O   UNL     1      50.174   1.759  16.312  0.00  0.00    +0.000 OA
ATOM      9  C   UNL     1      50.708   2.089  17.368  0.00  0.00    +0.000 C 
ATOM     10  N   UNL     1      50.072   2.827  18.340  0.00  0.00    +0.000 N 
ATOM     11  H   UNL     1      50.575   3.003  19.206  0.00  0.00    +0.000 HD
BRANCH   9  12
ATOM     12  C   UNL     1      52.121   1.708  17.676  0.00  0.00    +0.000 A 
ATOM     13  C   UNL     1      53.083   2.705  17.792  0.00  0.00    +0.000 A 
ATOM     14  C   UNL     1      54.384   2.330  18.109  0.00  0.00    +0.000 A 
ATOM     15  C   UNL     1      54.677   0.982  18.289  0.00  0.00    +0.000 A 
ATOM     16  C   UNL     1      53.654   0.055  18.147  0.00  0.00    +0.000 A 
ATOM     17  N   UNL     1      52.377   0.380  17.844  0.00  0.00    +0.000 NA
ENDBRANCH   9  12
ENDBRANCH   7  10
ENDBRANCH   1   7
BRANCH   4  18
ATOM     18  C   UNL     1      48.408   9.066  17.350  0.00  0.00    +0.000 C 
BRANCH  18  19
ATOM     19  C   UNL     1      48.480   9.512  15.888  0.00  0.00    +0.000 C 
BRANCH  19  20
ATOM     20  N   UNL     1      47.461   8.906  15.065  0.00  0.00    +0.000 N 
ATOM     21  C   UNL     1      47.826   8.165  13.965  0.00  0.00    +0.000 C 
ATOM     22  O   UNL     1      49.000   7.944  13.679  0.00  0.00    +0.000 OA
ATOM     23  H   UNL     1      46.544   9.344  15.057  0.00  0.00    +0.000 HD
BRANCH  21  24
ATOM     24  C   UNL     1      46.731   7.594  13.186  0.00  0.00    +0.000 A 
ATOM     25  C   UNL     1      45.949   8.416  12.386  0.00  0.00    +0.000 A 
ATOM     26  S   UNL     1      44.754   7.571  11.510  0.00  0.00    +0.000 S 
ATOM     27  C   UNL     1      45.207   6.090  12.218  0.00  0.00    +0.000 A 
ATOM     28  N   UNL     1      44.547   4.939  11.918  0.00  0.00    +0.000 NA
ATOM     29  C   UNL     1      44.973   3.900  12.557  0.00  0.00    +0.000 A 
ATOM     30  N   UNL     1      46.004   3.907  13.462  0.00  0.00    +0.000 N 
ATOM     31  C   UNL     1      46.733   5.031  13.757  0.00  0.00    +0.000 A 
ATOM     32  O   UNL     1      47.703   4.986  14.505  0.00  0.00    +0.000 OA
ATOM     33  C   UNL     1      46.270   6.231  13.087  0.00  0.00    +0.000 A 
ATOM     34  H   UNL     1      46.299   3.052  13.915  0.00  0.00    +0.000 HD
ENDBRANCH  21  24
ENDBRANCH  19  20
ENDBRANCH  18  19
ENDBRANCH   4  18
TORSDOF 7
ENDMDL
MODEL 8
REMARK VINA RESULT:    -6.759      4.159      6.507
REMARK INTER + INTRA:         -10.415
REMARK INTER:                  -8.148
REMARK INTRA:                  -2.267
REMARK UNBOUND:                -0.890
REMARK  Name = 
REMARK  7 active torsions:
REMARK  status: ('A' for Active; 'I' for Inactive)
REMARK    1  A    between atoms: C_2  and  C_26
REMARK    2  A    between atoms: N_3  and  C_4
REMARK    3  A    between atoms: C_4  and  C_5
REMARK    4  A    between atoms: C_8  and  C_9
REMARK    5  A    between atoms: C_9  and  C_10
REMARK    6  A    between atoms: C_10  and  N_11
REMARK    7  A    between atoms: C_12  and  C_14
REMARK                            x       y       z     vdW  Elec       q    Type
REMARK                         _______ _______ _______ _____ _____    ______ ____
ROOT
ATOM      1  C   UNL     1      48.518   3.730  17.718  0.00  0.00    +0.000 A 
ATOM      2  C   UNL     1      49.626   3.041  17.220  0.00  0.00    +0.000 A 
ATOM      3  C   UNL     1      50.892   3.236  17.773  0.00  0.00    +0.000 A 
ATOM      4  C   UNL     1      51.085   4.135  18.832  0.00  0.00    +0.000 A 
ATOM      5  C   UNL     1      49.965   4.799  19.352  0.00  0.00    +0.000 A 
ATOM      6  C   UNL     1      48.693   4.597  18.804  0.00  0.00    +0.000 A 
ENDROOT
BRANCH   1   7
ATOM      7  C   UNL     1      47.168   3.527  17.091  0.00  0.00    +0.000 C 
BRANCH   7  10
ATOM      8  O   UNL     1      47.480   2.899  14.387  0.00  0.00    +0.000 OA
ATOM      9  C   UNL     1      47.098   4.024  14.698  0.00  0.00    +0.000 C 
ATOM     10  N   UNL     1      46.929   4.433  16.001  0.00  0.00    +0.000 N 
ATOM     11  H   UNL     1      46.664   5.401  16.164  0.00  0.00    +0.000 HD
BRANCH   9  12
ATOM     12  C   UNL     1      46.775   5.049  13.658  0.00  0.00    +0.000 A 
ATOM     13  C   UNL     1      45.445   5.292  13.334  0.00  0.00    +0.000 A 
ATOM     14  C   UNL     1      45.167   6.272  12.387  0.00  0.00    +0.000 A 
ATOM     15  C   UNL     1      46.220   6.963  11.796  0.00  0.00    +0.000 A 
ATOM     16  C   UNL     1      47.517   6.650  12.178  0.00  0.00    +0.000 A 
ATOM     17  N   UNL     1      47.828   5.708  13.096  0.00  0.00    +0.000 NA
ENDBRANCH   9  12
ENDBRANCH   7  10
ENDBRANCH   1   7
BRANCH   4  18
ATOM     18  C   UNL     1      52.444   4.359  19.457  0.00  0.00    +0.000 C 
BRANCH  18  19
ATOM     19  C   UNL     1      53.330   5.342  18.690  0.00  0.00    +0.000 C 
BRANCH  19  20
ATOM     20  N   UNL     1      52.622   6.527  18.271  0.00  0.00    +0.000 N 
ATOM     21  C   UNL     1      52.651   6.905  16.948  0.00  0.00    +0.000 C 
ATOM     22  O   UNL     1      53.214   6.238  16.084  0.00  0.00    +0.000 OA
ATOM     23  H   UNL     1      52.469   7.252  18.966  0.00  0.00    +0.000 HD
BRANCH  21  24
ATOM     24  C   UNL     1      51.913   8.120  16.614  0.00  0.00    +0.000 A 
ATOM     25  C   UNL     1      52.503   9.362  16.802  0.00  0.00    +0.000 A 
ATOM     26  S   UNL     1      51.516  10.663  16.309  0.00  0.00    +0.000 S 
ATOM     27  C   UNL     1      50.248   9.609  15.884  0.00  0.00    +0.000 A 
ATOM     28  N   UNL     1      49.067  10.089  15.409  0.00  0.00    +0.000 NA
ATOM     29  C   UNL     1      48.183   9.179  15.164  0.00  0.00    +0.000 A 
ATOM     30  N   UNL     1      48.377   7.833  15.343  0.00  0.00    +0.000 N 
ATOM     31  C   UNL     1      49.567   7.298  15.769  0.00  0.00    +0.000 A 
ATOM     32  O   UNL     1      49.735   6.086  15.836  0.00  0.00    +0.000 OA
ATOM     33  C   UNL     1      50.580   8.286  16.088  0.00  0.00    +0.000 A 
ATOM     34  H   UNL     1      47.647   7.171  15.115  0.00  0.00    +0.000 HD
ENDBRANCH  21  24
ENDBRANCH  19  20
ENDBRANCH  18  19
ENDBRANCH   4  18
TORSDOF 7
ENDMDL
MODEL 9
REMARK VINA RESULT:    -6.603      3.415      4.285
REMARK INTER + INTRA:         -10.195
REMARK INTER:                  -9.021
REMARK INTRA:                  -1.175
REMARK UNBOUND:                -0.890
REMARK  Name = 
REMARK  7 active torsions:
REMARK  status: ('A' for Active; 'I' for Inactive)
REMARK    1  A    between atoms: C_2  and  C_26
REMARK    2  A    between atoms: N_3  and  C_4
REMARK    3  A    between atoms: C_4  and  C_5
REMARK    4  A    between atoms: C_8  and  C_9
REMARK    5  A    between atoms: C_9  and  C_10
REMARK    6  A    between atoms: C_10  and  N_11
REMARK    7  A    between atoms: C_12  and  C_14
REMARK                            x       y       z     vdW  Elec       q    Type
REMARK                         _______ _______ _______ _____ _____    ______ ____
ROOT
ATOM      1  C   UNL     1      46.555   8.079  12.079  0.00  0.00    +0.000 A 
ATOM      2  C   UNL     1      46.618   9.393  12.549  0.00  0.00    +0.000 A 
ATOM      3  C   UNL     1      47.823   9.929  13.003  0.00  0.00    +0.000 A 
ATOM      4  C   UNL     1      48.995   9.160  13.011  0.00  0.00    +0.000 A 
ATOM      5  C   UNL     1      48.937   7.853  12.507  0.00  0.00    +0.000 A 
ATOM      6  C   UNL     1      47.730   7.318  12.042  0.00  0.00    +0.000 A 
ENDROOT
BRANCH   1   7
ATOM      7  C   UNL     1      45.243   7.511  11.620  0.00  0.00    +0.000 C 
BRANCH   7  10
ATOM      8  O   UNL     1      44.238   4.922  11.920  0.00  0.00    +0.000 OA
ATOM      9  C   UNL     1      44.863   5.206  10.901  0.00  0.00    +0.000 C 
ATOM     10  N   UNL     1      45.409   6.447  10.668  0.00  0.00    +0.000 N 
ATOM     11  H   UNL     1      45.959   6.572   9.822  0.00  0.00    +0.000 HD
BRANCH   9  12
ATOM     12  C   UNL     1      45.073   4.200   9.814  0.00  0.00    +0.000 A 
ATOM     13  C   UNL     1      44.685   2.881  10.026  0.00  0.00    +0.000 A 
ATOM     14  C   UNL     1      44.861   1.970   8.990  0.00  0.00    +0.000 A 
ATOM     15  C   UNL     1      45.420   2.403   7.792  0.00  0.00    +0.000 A 
ATOM     16  C   UNL     1      45.783   3.738   7.673  0.00  0.00    +0.000 A 
ATOM     17  N   UNL     1      45.625   4.654   8.654  0.00  0.00    +0.000 NA
ENDBRANCH   9  12
ENDBRANCH   7  10
ENDBRANCH   1   7
BRANCH   4  18
ATOM     18  C   UNL     1      50.317   9.718  13.490  0.00  0.00    +0.000 C 
BRANCH  18  19
ATOM     19  C   UNL     1      50.294  10.234  14.929  0.00  0.00    +0.000 C 
BRANCH  19  20
ATOM     20  N   UNL     1      49.533   9.388  15.817  0.00  0.00    +0.000 N 
ATOM     21  C   UNL     1      50.145   8.825  16.912  0.00  0.00    +0.000 C 
ATOM     22  O   UNL     1      51.315   9.057  17.206  0.00  0.00    +0.000 OA
ATOM     23  H   UNL     1      48.724   8.910  15.429  0.00  0.00    +0.000 HD
BRANCH  21  24
ATOM     24  C   UNL     1      49.301   7.978  17.752  0.00  0.00    +0.000 A 
ATOM     25  C   UNL     1      49.025   8.355  19.059  0.00  0.00    +0.000 A 
ATOM     26  S   UNL     1      47.983   7.276  19.870  0.00  0.00    +0.000 S 
ATOM     27  C   UNL     1      47.915   6.242  18.518  0.00  0.00    +0.000 A 
ATOM     28  N   UNL     1      47.200   5.086  18.555  0.00  0.00    +0.000 NA
ATOM     29  C   UNL     1      47.269   4.383  17.473  0.00  0.00    +0.000 A 
ATOM     30  N   UNL     1      47.981   4.736  16.355  0.00  0.00    +0.000 N 
ATOM     31  C   UNL     1      48.674   5.917  16.251  0.00  0.00    +0.000 A 
ATOM     32  O   UNL     1      49.228   6.242  15.209  0.00  0.00    +0.000 OA
ATOM     33  C   UNL     1      48.652   6.724  17.456  0.00  0.00    +0.000 A 
ATOM     34  H   UNL     1      47.978   4.147  15.534  0.00  0.00    +0.000 HD
ENDBRANCH  21  24
ENDBRANCH  19  20
ENDBRANCH  18  19
ENDBRANCH   4  18
TORSDOF 7
ENDMDL
