MODEL 1
REMARK VINA RESULT:    -8.390      0.000      0.000
REMARK INTER + INTRA:         -13.056
REMARK INTER:                 -11.824
REMARK INTRA:                  -1.232
REMARK UNBOUND:                -1.232
REMARK  Name = 
REMARK  8 active torsions:
REMARK  status: ('A' for Active; 'I' for Inactive)
REMARK    1  A    between atoms: C_1  and  C_2
REMARK    2  A    between atoms: C_2  and  N_3
REMARK    3  A    between atoms: C_2  and  C_26
REMARK    4  A    between atoms: N_3  and  C_4
REMARK    5  A    between atoms: C_4  and  C_5
REMARK    6  A    between atoms: C_8  and  C_9
REMARK    7  A    between atoms: C_9  and  N_10
REMARK    8  A    between atoms: C_11  and  C_13
REMARK                            x       y       z     vdW  Elec       q    Type
REMARK                         _______ _______ _______ _____ _____    ______ ____
ROOT
ATOM      1  C   UNL     1      44.740   5.484  10.914  0.00  0.00    +0.000 A 
ATOM      2  C   UNL     1      44.214   5.964  12.117  0.00  0.00    +0.000 A 
ATOM      3  C   UNL     1      44.955   6.840  12.910  0.00  0.00    +0.000 A 
ATOM      4  C   UNL     1      46.232   7.266  12.515  0.00  0.00    +0.000 A 
ATOM      5  C   UNL     1      46.754   6.773  11.317  0.00  0.00    +0.000 A 
ATOM      6  F   UNL     1      47.978   7.138  10.913  0.00  0.00    +0.000 F 
ATOM      7  C   UNL     1      46.017   5.906  10.513  0.00  0.00    +0.000 A 
ENDROOT
BRANCH   1   8
ATOM      8  C   UNL     1      43.924   4.572  10.036  0.00  0.00    +0.000 C 
BRANCH   8   9
ATOM      9  N   UNL     1      44.627   4.251   8.792  0.00  0.00    +0.000 NA
ATOM     10  H   UNL     1      45.308   4.991   8.607  0.00  0.00    +0.000 HD
BRANCH   9  12
ATOM     11  C   UNL     1      44.357   1.803   9.066  0.00  0.00    +0.000 C 
ATOM     12  C   UNL     1      45.346   2.961   8.864  0.00  0.00    +0.000 C 
BRANCH  12  13
ATOM     13  C   UNL     1      46.187   2.713   7.607  0.00  0.00    +0.000 A 
ATOM     14  C   UNL     1      47.021   1.607   7.516  0.00  0.00    +0.000 A 
ATOM     15  N   UNL     1      47.847   1.370   6.464  0.00  0.00    +0.000 NA
ATOM     16  C   UNL     1      47.795   2.291   5.479  0.00  0.00    +0.000 A 
ATOM     17  C   UNL     1      46.951   3.386   5.538  0.00  0.00    +0.000 A 
ATOM     18  N   UNL     1      46.130   3.625   6.593  0.00  0.00    +0.000 NA
ENDBRANCH  12  13
ENDBRANCH   9  12
ENDBRANCH   8   9
ENDBRANCH   1   8
BRANCH   4  19
ATOM     19  C   UNL     1      47.002   8.228  13.374  0.00  0.00    +0.000 C 
BRANCH  19  20
ATOM     20  N   UNL     1      47.492   7.590  14.571  0.00  0.00    +0.000 N 
ATOM     21  C   UNL     1      48.682   6.919  14.605  0.00  0.00    +0.000 C 
ATOM     22  O   UNL     1      49.464   6.883  13.656  0.00  0.00    +0.000 OA
ATOM     23  H   UNL     1      46.786   7.364  15.265  0.00  0.00    +0.000 HD
BRANCH  21  24
ATOM     24  C   UNL     1      49.023   6.303  15.898  0.00  0.00    +0.000 A 
ATOM     25  C   UNL     1      50.026   6.844  16.688  0.00  0.00    +0.000 A 
ATOM     26  S   UNL     1      50.232   6.032  18.176  0.00  0.00    +0.000 S 
ATOM     27  C   UNL     1      49.023   4.897  17.790  0.00  0.00    +0.000 A 
ATOM     28  N   UNL     1      48.705   3.891  18.646  0.00  0.00    +0.000 NA
ATOM     29  C   UNL     1      47.776   3.100  18.216  0.00  0.00    +0.000 A 
ATOM     30  N   UNL     1      47.136   3.227  17.015  0.00  0.00    +0.000 N 
ATOM     31  C   UNL     1      47.413   4.236  16.123  0.00  0.00    +0.000 A 
ATOM     32  O   UNL     1      46.804   4.342  15.066  0.00  0.00    +0.000 OA
ATOM     33  C   UNL     1      48.454   5.150  16.557  0.00  0.00    +0.000 A 
ATOM     34  H   UNL     1      46.407   2.583  16.742  0.00  0.00    +0.000 HD
ENDBRANCH  21  24
ENDBRANCH  19  20
ENDBRANCH   4  19
TORSDOF 7
ENDMDL
MODEL 2
REMARK VINA RESULT:    -7.871      2.201      2.635
REMARK INTER + INTRA:         -12.324
REMARK INTER:                 -11.526
REMARK INTRA:                  -0.798
REMARK UNBOUND:                -1.232
REMARK  Name = 
REMARK  8 active torsions:
REMARK  status: ('A' for Active; 'I' for Inactive)
REMARK    1  A    between atoms: C_1  and  C_2
REMARK    2  A    between atoms: C_2  and  N_3
REMARK    3  A    between atoms: C_2  and  C_26
REMARK    4  A    between atoms: N_3  and  C_4
REMARK    5  A    between atoms: C_4  and  C_5
REMARK    6  A    between atoms: C_8  and  C_9
REMARK    7  A    between atoms: C_9  and  N_10
REMARK    8  A    between atoms: C_11  and  C_13
REMARK                            x       y       z     vdW  Elec       q    Type
REMARK                         _______ _______ _______ _____ _____    ______ ____
ROOT
ATOM      1  C   UNL     1      45.298   4.540  12.098  0.00  0.00    +0.000 A 
ATOM      2  C   UNL     1      45.748   5.738  11.537  0.00  0.00    +0.000 A 
ATOM      3  C   UNL     1      46.775   6.459  12.147  0.00  0.00    +0.000 A 
ATOM      4  C   UNL     1      47.383   5.994  13.322  0.00  0.00    +0.000 A 
ATOM      5  C   UNL     1      46.920   4.801  13.881  0.00  0.00    +0.000 A 
ATOM      6  F   UNL     1      47.459   4.332  15.015  0.00  0.00    +0.000 F 
ATOM      7  C   UNL     1      45.902   4.069  13.275  0.00  0.00    +0.000 A 
ENDROOT
BRANCH   1   8
ATOM      8  C   UNL     1      44.218   3.740  11.419  0.00  0.00    +0.000 C 
BRANCH   8   9
ATOM      9  N   UNL     1      44.777   2.632  10.641  0.00  0.00    +0.000 NA
ATOM     10  H   UNL     1      44.368   1.760  10.982  0.00  0.00    +0.000 HD
BRANCH   9  12
ATOM     11  C   UNL     1      44.085   4.190   8.842  0.00  0.00    +0.000 C 
ATOM     12  C   UNL     1      44.485   2.750   9.196  0.00  0.00    +0.000 C 
BRANCH  12  13
ATOM     13  C   UNL     1      45.682   2.319   8.341  0.00  0.00    +0.000 A 
ATOM     14  C   UNL     1      46.361   3.237   7.552  0.00  0.00    +0.000 A 
ATOM     15  N   UNL     1      47.379   2.906   6.715  0.00  0.00    +0.000 NA
ATOM     16  C   UNL     1      47.710   1.598   6.711  0.00  0.00    +0.000 A 
ATOM     17  C   UNL     1      47.064   0.671   7.509  0.00  0.00    +0.000 A 
ATOM     18  N   UNL     1      46.042   1.003   8.340  0.00  0.00    +0.000 NA
ENDBRANCH  12  13
ENDBRANCH   9  12
ENDBRANCH   8   9
ENDBRANCH   1   8
BRANCH   4  19
ATOM     19  C   UNL     1      48.504   6.775  13.948  0.00  0.00    +0.000 C 
BRANCH  19  20
ATOM     20  N   UNL     1      48.281   6.977  15.359  0.00  0.00    +0.000 N 
ATOM     21  C   UNL     1      49.242   6.712  16.294  0.00  0.00    +0.000 C 
ATOM     22  O   UNL     1      50.389   6.372  16.006  0.00  0.00    +0.000 OA
ATOM     23  H   UNL     1      47.308   6.988  15.649  0.00  0.00    +0.000 HD
BRANCH  21  24
ATOM     24  C   UNL     1      48.845   6.949  17.692  0.00  0.00    +0.000 A 
ATOM     25  C   UNL     1      48.563   8.234  18.131  0.00  0.00    +0.000 A 
ATOM     26  S   UNL     1      48.059   8.299  19.762  0.00  0.00    +0.000 S 
ATOM     27  C   UNL     1      48.251   6.617  19.949  0.00  0.00    +0.000 A 
ATOM     28  N   UNL     1      48.001   6.009  21.138  0.00  0.00    +0.000 NA
ATOM     29  C   UNL     1      48.199   4.731  21.135  0.00  0.00    +0.000 A 
ATOM     30  N   UNL     1      48.620   4.009  20.053  0.00  0.00    +0.000 N 
ATOM     31  C   UNL     1      48.873   4.577  18.827  0.00  0.00    +0.000 A 
ATOM     32  O   UNL     1      49.222   3.900  17.868  0.00  0.00    +0.000 OA
ATOM     33  C   UNL     1      48.669   6.014  18.779  0.00  0.00    +0.000 A 
ATOM     34  H   UNL     1      48.744   3.008  20.112  0.00  0.00    +0.000 HD
ENDBRANCH  21  24
ENDBRANCH  19  20
ENDBRANCH   4  19
TORSDOF 7
ENDMDL
MODEL 3
REMARK VINA RESULT:    -7.741      2.739      3.351
REMARK INTER + INTRA:         -12.141
REMARK INTER:                 -11.156
REMARK INTRA:                  -0.985
REMARK UNBOUND:                -1.232
REMARK  Name = 
REMARK  8 active torsions:
REMARK  status: ('A' for Active; 'I' for Inactive)
REMARK    1  A    between atoms: C_1  and  C_2
REMARK    2  A    between atoms: C_2  and  N_3
REMARK    3  A    between atoms: C_2  and  C_26
REMARK    4  A    between atoms: N_3  and  C_4
REMARK    5  A    between atoms: C_4  and  C_5
REMARK    6  A    between atoms: C_8  and  C_9
REMARK    7  A    between atoms: C_9  and  N_10
REMARK    8  A    between atoms: C_11  and  C_13
REMARK                            x       y       z     vdW  Elec       q    Type
REMARK                         _______ _______ _______ _____ _____    ______ ____
ROOT
ATOM      1  C   UNL     1      45.203   4.437  12.201  0.00  0.00    +0.000 A 
ATOM      2  C   UNL     1      45.534   5.744  11.833  0.00  0.00    +0.000 A 
ATOM      3  C   UNL     1      46.535   6.436  12.515  0.00  0.00    +0.000 A 
ATOM      4  C   UNL     1      47.236   5.834  13.571  0.00  0.00    +0.000 A 
ATOM      5  C   UNL     1      46.891   4.532  13.938  0.00  0.00    +0.000 A 
ATOM      6  F   UNL     1      47.522   3.927  14.955  0.00  0.00    +0.000 F 
ATOM      7  C   UNL     1      45.900   3.829  13.257  0.00  0.00    +0.000 A 
ENDROOT
BRANCH   1   8
ATOM      8  C   UNL     1      44.151   3.675  11.439  0.00  0.00    +0.000 C 
BRANCH   8   9
ATOM      9  N   UNL     1      44.741   2.606  10.630  0.00  0.00    +0.000 NA
ATOM     10  H   UNL     1      44.319   1.718  10.913  0.00  0.00    +0.000 HD
BRANCH   9  12
ATOM     11  C   UNL     1      44.161   4.260   8.878  0.00  0.00    +0.000 C 
ATOM     12  C   UNL     1      44.506   2.794   9.183  0.00  0.00    +0.000 C 
BRANCH  12  13
ATOM     13  C   UNL     1      45.719   2.363   8.353  0.00  0.00    +0.000 A 
ATOM     14  C   UNL     1      46.439   3.288   7.609  0.00  0.00    +0.000 A 
ATOM     15  N   UNL     1      47.475   2.959   6.794  0.00  0.00    +0.000 NA
ATOM     16  C   UNL     1      47.782   1.645   6.764  0.00  0.00    +0.000 A 
ATOM     17  C   UNL     1      47.095   0.710   7.518  0.00  0.00    +0.000 A 
ATOM     18  N   UNL     1      46.055   1.040   8.327  0.00  0.00    +0.000 NA
ENDBRANCH  12  13
ENDBRANCH   9  12
ENDBRANCH   8   9
ENDBRANCH   1   8
BRANCH   4  19
ATOM     19  C   UNL     1      48.327   6.590  14.276  0.00  0.00    +0.000 C 
BRANCH  19  20
ATOM     20  N   UNL     1      48.085   6.663  15.696  0.00  0.00    +0.000 N 
ATOM     21  C   UNL     1      49.014   6.263  16.615  0.00  0.00    +0.000 C 
ATOM     22  O   UNL     1      50.150   5.901  16.313  0.00  0.00    +0.000 OA
ATOM     23  H   UNL     1      47.107   6.689  15.971  0.00  0.00    +0.000 HD
BRANCH  21  24
ATOM     24  C   UNL     1      48.599   6.379  18.023  0.00  0.00    +0.000 A 
ATOM     25  C   UNL     1      48.674   5.280  18.867  0.00  0.00    +0.000 A 
ATOM     26  S   UNL     1      48.211   5.626  20.474  0.00  0.00    +0.000 S 
ATOM     27  C   UNL     1      47.846   7.243  20.083  0.00  0.00    +0.000 A 
ATOM     28  N   UNL     1      47.371   8.103  21.021  0.00  0.00    +0.000 NA
ATOM     29  C   UNL     1      47.129   9.294  20.578  0.00  0.00    +0.000 A 
ATOM     30  N   UNL     1      47.323   9.701  19.288  0.00  0.00    +0.000 N 
ATOM     31  C   UNL     1      47.813   8.872  18.307  0.00  0.00    +0.000 A 
ATOM     32  O   UNL     1      48.003   9.273  17.166  0.00  0.00    +0.000 OA
ATOM     33  C   UNL     1      48.098   7.519  18.753  0.00  0.00    +0.000 A 
ATOM     34  H   UNL     1      47.126  10.652  19.007  0.00  0.00    +0.000 HD
ENDBRANCH  21  24
ENDBRANCH  19  20
ENDBRANCH   4  19
TORSDOF 7
ENDMDL
MODEL 4
REMARK VINA RESULT:    -7.288      3.335      4.590
REMARK INTER + INTRA:         -11.504
REMARK INTER:                 -10.281
REMARK INTRA:                  -1.222
REMARK UNBOUND:                -1.232
REMARK  Name = 
REMARK  8 active torsions:
REMARK  status: ('A' for Active; 'I' for Inactive)
REMARK    1  A    between atoms: C_1  and  C_2
REMARK    2  A    between atoms: C_2  and  N_3
REMARK    3  A    between atoms: C_2  and  C_26
REMARK    4  A    between atoms: N_3  and  C_4
REMARK    5  A    between atoms: C_4  and  C_5
REMARK    6  A    between atoms: C_8  and  C_9
REMARK    7  A    between atoms: C_9  and  N_10
REMARK    8  A    between atoms: C_11  and  C_13
REMARK                            x       y       z     vdW  Elec       q    Type
REMARK                         _______ _______ _______ _____ _____    ______ ____
ROOT
ATOM      1  C   UNL     1      46.905   4.653  14.200  0.00  0.00    +0.000 A 
ATOM      2  C   UNL     1      47.678   5.807  14.048  0.00  0.00    +0.000 A 
ATOM      3  C   UNL     1      48.392   6.324  15.128  0.00  0.00    +0.000 A 
ATOM      4  C   UNL     1      48.362   5.693  16.381  0.00  0.00    +0.000 A 
ATOM      5  C   UNL     1      47.578   4.546  16.526  0.00  0.00    +0.000 A 
ATOM      6  F   UNL     1      47.504   3.924  17.711  0.00  0.00    +0.000 F 
ATOM      7  C   UNL     1      46.869   4.016  15.451  0.00  0.00    +0.000 A 
ENDROOT
BRANCH   1   8
ATOM      8  C   UNL     1      46.166   4.071  13.023  0.00  0.00    +0.000 C 
BRANCH   8   9
ATOM      9  N   UNL     1      45.221   5.032  12.451  0.00  0.00    +0.000 NA
ATOM     10  H   UNL     1      45.749   5.717  11.907  0.00  0.00    +0.000 HD
BRANCH   9  12
ATOM     11  C   UNL     1      43.065   5.350  11.271  0.00  0.00    +0.000 C 
ATOM     12  C   UNL     1      44.229   4.391  11.561  0.00  0.00    +0.000 C 
BRANCH  12  13
ATOM     13  C   UNL     1      44.866   3.933  10.245  0.00  0.00    +0.000 A 
ATOM     14  C   UNL     1      45.428   4.851   9.368  0.00  0.00    +0.000 A 
ATOM     15  N   UNL     1      45.938   4.519   8.153  0.00  0.00    +0.000 NA
ATOM     16  C   UNL     1      45.880   3.205   7.850  0.00  0.00    +0.000 A 
ATOM     17  C   UNL     1      45.349   2.270   8.720  0.00  0.00    +0.000 A 
ATOM     18  N   UNL     1      44.833   2.605   9.932  0.00  0.00    +0.000 NA
ENDBRANCH  12  13
ENDBRANCH   9  12
ENDBRANCH   8   9
ENDBRANCH   1   8
BRANCH   4  19
ATOM     19  C   UNL     1      49.158   6.254  17.525  0.00  0.00    +0.000 C 
BRANCH  19  20
ATOM     20  N   UNL     1      50.221   5.360  17.915  0.00  0.00    +0.000 N 
ATOM     21  C   UNL     1      51.448   5.382  17.314  0.00  0.00    +0.000 C 
ATOM     22  O   UNL     1      51.771   6.214  16.467  0.00  0.00    +0.000 OA
ATOM     23  H   UNL     1      49.926   4.513  18.391  0.00  0.00    +0.000 HD
BRANCH  21  24
ATOM     24  C   UNL     1      52.413   4.387  17.812  0.00  0.00    +0.000 A 
ATOM     25  C   UNL     1      53.605   4.797  18.391  0.00  0.00    +0.000 A 
ATOM     26  S   UNL     1      54.562   3.504  18.965  0.00  0.00    +0.000 S 
ATOM     27  C   UNL     1      53.437   2.351  18.413  0.00  0.00    +0.000 A 
ATOM     28  N   UNL     1      53.660   1.020  18.572  0.00  0.00    +0.000 NA
ATOM     29  C   UNL     1      52.726   0.263  18.094  0.00  0.00    +0.000 A 
ATOM     30  N   UNL     1      51.592   0.715  17.479  0.00  0.00    +0.000 N 
ATOM     31  C   UNL     1      51.317   2.051  17.307  0.00  0.00    +0.000 A 
ATOM     32  O   UNL     1      50.279   2.427  16.777  0.00  0.00    +0.000 OA
ATOM     33  C   UNL     1      52.339   2.945  17.822  0.00  0.00    +0.000 A 
ATOM     34  H   UNL     1      50.892   0.071  17.139  0.00  0.00    +0.000 HD
ENDBRANCH  21  24
ENDBRANCH  19  20
ENDBRANCH   4  19
TORSDOF 7
ENDMDL
MODEL 5
REMARK VINA RESULT:    -6.663      3.516      4.769
REMARK INTER + INTRA:         -10.623
REMARK INTER:                  -9.540
REMARK INTRA:                  -1.082
REMARK UNBOUND:                -1.232
REMARK  Name = 
REMARK  8 active torsions:
REMARK  status: ('A' for Active; 'I' for Inactive)
REMARK    1  A    between atoms: C_1  and  C_2
REMARK    2  A    between atoms: C_2  and  N_3
REMARK    3  A    between atoms: C_2  and  C_26
REMARK    4  A    between atoms: N_3  and  C_4
REMARK    5  A    between atoms: C_4  and  C_5
REMARK    6  A    between atoms: C_8  and  C_9
REMARK    7  A    between atoms: C_9  and  N_10
REMARK    8  A    between atoms: C_11  and  C_13
REMARK                            x       y       z     vdW  Elec       q    Type
REMARK                         _______ _______ _______ _____ _____    ______ ____
ROOT
ATOM      1  C   UNL     1      45.126   4.516  12.032  0.00  0.00    +0.000 A 
ATOM      2  C   UNL     1      44.992   5.827  11.566  0.00  0.00    +0.000 A 
ATOM      3  C   UNL     1      45.763   6.852  12.114  0.00  0.00    +0.000 A 
ATOM      4  C   UNL     1      46.695   6.589  13.129  0.00  0.00    +0.000 A 
ATOM      5  C   UNL     1      46.815   5.278  13.595  0.00  0.00    +0.000 A 
ATOM      6  F   UNL     1      47.678   4.987  14.579  0.00  0.00    +0.000 F 
ATOM      7  C   UNL     1      46.056   4.246  13.048  0.00  0.00    +0.000 A 
ENDROOT
BRANCH   1   8
ATOM      8  C   UNL     1      44.323   3.402  11.413  0.00  0.00    +0.000 C 
BRANCH   8   9
ATOM      9  N   UNL     1      45.143   2.579  10.521  0.00  0.00    +0.000 NA
ATOM     10  H   UNL     1      45.056   1.604  10.813  0.00  0.00    +0.000 HD
BRANCH   9  12
ATOM     11  C   UNL     1      44.133   4.072   8.820  0.00  0.00    +0.000 C 
ATOM     12  C   UNL     1      44.722   2.683   9.107  0.00  0.00    +0.000 C 
BRANCH  12  13
ATOM     13  C   UNL     1      45.885   2.404   8.149  0.00  0.00    +0.000 A 
ATOM     14  C   UNL     1      46.366   1.114   7.970  0.00  0.00    +0.000 A 
ATOM     15  N   UNL     1      47.441   0.811   7.196  0.00  0.00    +0.000 NA
ATOM     16  C   UNL     1      48.018   1.865   6.583  0.00  0.00    +0.000 A 
ATOM     17  C   UNL     1      47.538   3.155   6.727  0.00  0.00    +0.000 A 
ATOM     18  N   UNL     1      46.467   3.458   7.506  0.00  0.00    +0.000 NA
ENDBRANCH  12  13
ENDBRANCH   9  12
ENDBRANCH   8   9
ENDBRANCH   1   8
BRANCH   4  19
ATOM     19  C   UNL     1      47.533   7.704  13.688  0.00  0.00    +0.000 C 
BRANCH  19  20
ATOM     20  N   UNL     1      48.892   7.632  13.211  0.00  0.00    +0.000 N 
ATOM     21  C   UNL     1      49.327   8.356  12.137  0.00  0.00    +0.000 C 
ATOM     22  O   UNL     1      48.629   9.186  11.555  0.00  0.00    +0.000 OA
ATOM     23  H   UNL     1      49.402   6.792  13.472  0.00  0.00    +0.000 HD
BRANCH  21  24
ATOM     24  C   UNL     1      50.736   8.148  11.764  0.00  0.00    +0.000 A 
ATOM     25  C   UNL     1      51.059   7.518  10.571  0.00  0.00    +0.000 A 
ATOM     26  S   UNL     1      52.740   7.426  10.284  0.00  0.00    +0.000 S 
ATOM     27  C   UNL     1      53.093   8.180  11.769  0.00  0.00    +0.000 A 
ATOM     28  N   UNL     1      54.377   8.394  12.161  0.00  0.00    +0.000 NA
ATOM     29  C   UNL     1      54.493   8.967  13.315  0.00  0.00    +0.000 A 
ATOM     30  N   UNL     1      53.446   9.346  14.108  0.00  0.00    +0.000 N 
ATOM     31  C   UNL     1      52.131   9.162  13.749  0.00  0.00    +0.000 A 
ATOM     32  O   UNL     1      51.213   9.538  14.467  0.00  0.00    +0.000 OA
ATOM     33  C   UNL     1      51.946   8.518  12.461  0.00  0.00    +0.000 A 
ATOM     34  H   UNL     1      53.603   9.802  14.996  0.00  0.00    +0.000 HD
ENDBRANCH  21  24
ENDBRANCH  19  20
ENDBRANCH   4  19
TORSDOF 7
ENDMDL
MODEL 6
REMARK VINA RESULT:    -6.120      2.938      4.542
REMARK INTER + INTRA:          -9.857
REMARK INTER:                  -9.109
REMARK INTRA:                  -0.748
REMARK UNBOUND:                -1.232
REMARK  Name = 
REMARK  8 active torsions:
REMARK  status: ('A' for Active; 'I' for Inactive)
REMARK    1  A    between atoms: C_1  and  C_2
REMARK    2  A    between atoms: C_2  and  N_3
REMARK    3  A    between atoms: C_2  and  C_26
REMARK    4  A    between atoms: N_3  and  C_4
REMARK    5  A    between atoms: C_4  and  C_5
REMARK    6  A    between atoms: C_8  and  C_9
REMARK    7  A    between atoms: C_9  and  N_10
REMARK    8  A    between atoms: C_11  and  C_13
REMARK                            x       y       z     vdW  Elec       q    Type
REMARK                         _______ _______ _______ _____ _____    ______ ____
ROOT
ATOM      1  C   UNL     1      45.482   4.336  12.326  0.00  0.00    +0.000 A 
ATOM      2  C   UNL     1      45.997   3.516  13.333  0.00  0.00    +0.000 A 
ATOM      3  C   UNL     1      46.913   4.022  14.255  0.00  0.00    +0.000 A 
ATOM      4  C   UNL     1      47.325   5.362  14.200  0.00  0.00    +0.000 A 
ATOM      5  C   UNL     1      46.813   6.172  13.184  0.00  0.00    +0.000 A 
ATOM      6  F   UNL     1      47.196   7.452  13.082  0.00  0.00    +0.000 F 
ATOM      7  C   UNL     1      45.890   5.678  12.264  0.00  0.00    +0.000 A 
ENDROOT
BRANCH   1   8
ATOM      8  C   UNL     1      44.462   3.801  11.355  0.00  0.00    +0.000 C 
BRANCH   8   9
ATOM      9  N   UNL     1      45.016   2.725  10.530  0.00  0.00    +0.000 NA
ATOM     10  H   UNL     1      44.644   1.835  10.869  0.00  0.00    +0.000 HD
BRANCH   9  12
ATOM     11  C   UNL     1      44.247   4.311   8.789  0.00  0.00    +0.000 C 
ATOM     12  C   UNL     1      44.661   2.866   9.102  0.00  0.00    +0.000 C 
BRANCH  12  13
ATOM     13  C   UNL     1      45.819   2.447   8.189  0.00  0.00    +0.000 A 
ATOM     14  C   UNL     1      46.222   1.121   8.112  0.00  0.00    +0.000 A 
ATOM     15  N   UNL     1      47.287   0.697   7.383  0.00  0.00    +0.000 NA
ATOM     16  C   UNL     1      47.936   1.667   6.705  0.00  0.00    +0.000 A 
ATOM     17  C   UNL     1      47.535   2.990   6.746  0.00  0.00    +0.000 A 
ATOM     18  N   UNL     1      46.474   3.414   7.481  0.00  0.00    +0.000 NA
ENDBRANCH  12  13
ENDBRANCH   9  12
ENDBRANCH   8   9
ENDBRANCH   1   8
BRANCH   4  19
ATOM     19  C   UNL     1      48.294   5.893  15.218  0.00  0.00    +0.000 C 
BRANCH  19  20
ATOM     20  N   UNL     1      48.913   7.116  14.769  0.00  0.00    +0.000 N 
ATOM     21  C   UNL     1      50.212   7.426  15.063  0.00  0.00    +0.000 C 
ATOM     22  O   UNL     1      50.973   6.657  15.648  0.00  0.00    +0.000 OA
ATOM     23  H   UNL     1      48.273   7.869  14.536  0.00  0.00    +0.000 HD
BRANCH  21  24
ATOM     24  C   UNL     1      50.683   8.723  14.551  0.00  0.00    +0.000 A 
ATOM     25  C   UNL     1      51.061   9.727  15.430  0.00  0.00    +0.000 A 
ATOM     26  S   UNL     1      51.638  11.132  14.649  0.00  0.00    +0.000 S 
ATOM     27  C   UNL     1      51.352  10.464  13.109  0.00  0.00    +0.000 A 
ATOM     28  N   UNL     1      51.615  11.169  11.977  0.00  0.00    +0.000 NA
ATOM     29  C   UNL     1      51.338  10.539  10.882  0.00  0.00    +0.000 A 
ATOM     30  N   UNL     1      50.828   9.272  10.816  0.00  0.00    +0.000 N 
ATOM     31  C   UNL     1      50.558   8.517  11.932  0.00  0.00    +0.000 A 
ATOM     32  O   UNL     1      50.128   7.373  11.842  0.00  0.00    +0.000 OA
ATOM     33  C   UNL     1      50.847   9.181  13.191  0.00  0.00    +0.000 A 
ATOM     34  H   UNL     1      50.646   8.830   9.926  0.00  0.00    +0.000 HD
ENDBRANCH  21  24
ENDBRANCH  19  20
ENDBRANCH   4  19
TORSDOF 7
ENDMDL
MODEL 7
REMARK VINA RESULT:    -5.884      2.258      3.658
REMARK INTER + INTRA:          -9.524
REMARK INTER:                  -8.947
REMARK INTRA:                  -0.577
REMARK UNBOUND:                -1.232
REMARK  Name = 
REMARK  8 active torsions:
REMARK  status: ('A' for Active; 'I' for Inactive)
REMARK    1  A    between atoms: C_1  and  C_2
REMARK    2  A    between atoms: C_2  and  N_3
REMARK    3  A    between atoms: C_2  and  C_26
REMARK    4  A    between atoms: N_3  and  C_4
REMARK    5  A    between atoms: C_4  and  C_5
REMARK    6  A    between atoms: C_8  and  C_9
REMARK    7  A    between atoms: C_9  and  N_10
REMARK    8  A    between atoms: C_11  and  C_13
REMARK                            x       y       z     vdW  Elec       q    Type
REMARK                         _______ _______ _______ _____ _____    ______ ____
ROOT
ATOM      1  C   UNL     1      45.544   4.911  11.993  0.00  0.00    +0.000 A 
ATOM      2  C   UNL     1      45.648   3.592  12.444  0.00  0.00    +0.000 A 
ATOM      3  C   UNL     1      46.334   3.303  13.623  0.00  0.00    +0.000 A 
ATOM      4  C   UNL     1      46.920   4.325  14.385  0.00  0.00    +0.000 A 
ATOM      5  C   UNL     1      46.820   5.638  13.922  0.00  0.00    +0.000 A 
ATOM      6  F   UNL     1      47.384   6.642  14.608  0.00  0.00    +0.000 F 
ATOM      7  C   UNL     1      46.129   5.938  12.750  0.00  0.00    +0.000 A 
ENDROOT
BRANCH   1   8
ATOM      8  C   UNL     1      44.769   5.229  10.741  0.00  0.00    +0.000 C 
BRANCH   8   9
ATOM      9  N   UNL     1      44.618   4.049   9.887  0.00  0.00    +0.000 NA
ATOM     10  H   UNL     1      43.619   3.871   9.757  0.00  0.00    +0.000 HD
BRANCH   9  12
ATOM     11  C   UNL     1      46.264   5.371   8.590  0.00  0.00    +0.000 C 
ATOM     12  C   UNL     1      45.238   4.229   8.557  0.00  0.00    +0.000 C 
BRANCH  12  13
ATOM     13  C   UNL     1      45.910   2.941   8.069  0.00  0.00    +0.000 A 
ATOM     14  C   UNL     1      45.532   1.705   8.574  0.00  0.00    +0.000 A 
ATOM     15  N   UNL     1      46.138   0.536   8.240  0.00  0.00    +0.000 NA
ATOM     16  C   UNL     1      47.147   0.650   7.351  0.00  0.00    +0.000 A 
ATOM     17  C   UNL     1      47.522   1.869   6.814  0.00  0.00    +0.000 A 
ATOM     18  N   UNL     1      46.919   3.038   7.154  0.00  0.00    +0.000 NA
ENDBRANCH  12  13
ENDBRANCH   9  12
ENDBRANCH   8   9
ENDBRANCH   1   8
BRANCH   4  19
ATOM     19  C   UNL     1      47.634   3.993  15.665  0.00  0.00    +0.000 C 
BRANCH  19  20
ATOM     20  N   UNL     1      48.178   5.175  16.287  0.00  0.00    +0.000 N 
ATOM     21  C   UNL     1      49.330   5.147  17.022  0.00  0.00    +0.000 C 
ATOM     22  O   UNL     1      50.036   4.146  17.134  0.00  0.00    +0.000 OA
ATOM     23  H   UNL     1      47.515   5.928  16.449  0.00  0.00    +0.000 HD
BRANCH  21  24
ATOM     24  C   UNL     1      49.735   6.435  17.610  0.00  0.00    +0.000 A 
ATOM     25  C   UNL     1      49.652   6.636  18.980  0.00  0.00    +0.000 A 
ATOM     26  S   UNL     1      50.226   8.166  19.478  0.00  0.00    +0.000 S 
ATOM     27  C   UNL     1      50.556   8.629  17.874  0.00  0.00    +0.000 A 
ATOM     28  N   UNL     1      51.058   9.859  17.587  0.00  0.00    +0.000 NA
ATOM     29  C   UNL     1      51.248  10.075  16.325  0.00  0.00    +0.000 A 
ATOM     30  N   UNL     1      50.988   9.175  15.330  0.00  0.00    +0.000 N 
ATOM     31  C   UNL     1      50.492   7.916  15.573  0.00  0.00    +0.000 A 
ATOM     32  O   UNL     1      50.295   7.119  14.663  0.00  0.00    +0.000 OA
ATOM     33  C   UNL     1      50.256   7.623  16.975  0.00  0.00    +0.000 A 
ATOM     34  H   UNL     1      51.172   9.400  14.363  0.00  0.00    +0.000 HD
ENDBRANCH  21  24
ENDBRANCH  19  20
ENDBRANCH   4  19
TORSDOF 7
ENDMDL
MODEL 8
REMARK VINA RESULT:    -5.843      3.759      5.958
REMARK INTER + INTRA:          -9.466
REMARK INTER:                  -8.459
REMARK INTRA:                  -1.007
REMARK UNBOUND:                -1.232
REMARK  Name = 
REMARK  8 active torsions:
REMARK  status: ('A' for Active; 'I' for Inactive)
REMARK    1  A    between atoms: C_1  and  C_2
REMARK    2  A    between atoms: C_2  and  N_3
REMARK    3  A    between atoms: C_2  and  C_26
REMARK    4  A    between atoms: N_3  and  C_4
REMARK    5  A    between atoms: C_4  and  C_5
REMARK    6  A    between atoms: C_8  and  C_9
REMARK    7  A    between atoms: C_9  and  N_10
REMARK    8  A    between atoms: C_11  and  C_13
REMARK                            x       y       z     vdW  Elec       q    Type
REMARK                         _______ _______ _______ _____ _____    ______ ____
ROOT
ATOM      1  C   UNL     1      47.492   5.015  15.163  0.00  0.00    +0.000 A 
ATOM      2  C   UNL     1      48.353   5.875  15.851  0.00  0.00    +0.000 A 
ATOM      3  C   UNL     1      48.718   5.600  17.169  0.00  0.00    +0.000 A 
ATOM      4  C   UNL     1      48.244   4.454  17.824  0.00  0.00    +0.000 A 
ATOM      5  C   UNL     1      47.376   3.605  17.132  0.00  0.00    +0.000 A 
ATOM      6  F   UNL     1      46.883   2.511  17.728  0.00  0.00    +0.000 F 
ATOM      7  C   UNL     1      47.013   3.866  15.813  0.00  0.00    +0.000 A 
ENDROOT
BRANCH   1   8
ATOM      8  C   UNL     1      47.130   5.289  13.727  0.00  0.00    +0.000 C 
BRANCH   8   9
ATOM      9  N   UNL     1      45.679   5.347  13.539  0.00  0.00    +0.000 NA
ATOM     10  H   UNL     1      45.269   5.827  14.343  0.00  0.00    +0.000 HD
BRANCH   9  12
ATOM     11  C   UNL     1      46.294   7.209  12.024  0.00  0.00    +0.000 C 
ATOM     12  C   UNL     1      45.295   6.079  12.313  0.00  0.00    +0.000 C 
BRANCH  12  13
ATOM     13  C   UNL     1      45.202   5.144  11.103  0.00  0.00    +0.000 A 
ATOM     14  C   UNL     1      45.722   5.520   9.871  0.00  0.00    +0.000 A 
ATOM     15  N   UNL     1      45.605   4.772   8.743  0.00  0.00    +0.000 NA
ATOM     16  C   UNL     1      44.951   3.602   8.900  0.00  0.00    +0.000 A 
ATOM     17  C   UNL     1      44.449   3.196  10.124  0.00  0.00    +0.000 A 
ATOM     18  N   UNL     1      44.561   3.949  11.250  0.00  0.00    +0.000 NA
ENDBRANCH  12  13
ENDBRANCH   9  12
ENDBRANCH   8   9
ENDBRANCH   1   8
BRANCH   4  19
ATOM     19  C   UNL     1      48.669   4.164  19.236  0.00  0.00    +0.000 C 
BRANCH  19  20
ATOM     20  N   UNL     1      50.097   3.978  19.328  0.00  0.00    +0.000 N 
ATOM     21  C   UNL     1      50.940   4.985  19.704  0.00  0.00    +0.000 C 
ATOM     22  O   UNL     1      50.549   6.089  20.079  0.00  0.00    +0.000 OA
ATOM     23  H   UNL     1      50.471   3.205  18.786  0.00  0.00    +0.000 HD
BRANCH  21  24
ATOM     24  C   UNL     1      52.371   4.636  19.723  0.00  0.00    +0.000 A 
ATOM     25  C   UNL     1      52.942   4.084  20.860  0.00  0.00    +0.000 A 
ATOM     26  S   UNL     1      54.592   3.689  20.668  0.00  0.00    +0.000 S 
ATOM     27  C   UNL     1      54.611   4.291  19.075  0.00  0.00    +0.000 A 
ATOM     28  N   UNL     1      55.748   4.273  18.331  0.00  0.00    +0.000 NA
ATOM     29  C   UNL     1      55.615   4.773  17.145  0.00  0.00    +0.000 A 
ATOM     30  N   UNL     1      54.452   5.281  16.637  0.00  0.00    +0.000 N 
ATOM     31  C   UNL     1      53.275   5.309  17.347  0.00  0.00    +0.000 A 
ATOM     32  O   UNL     1      52.241   5.745  16.856  0.00  0.00    +0.000 OA
ATOM     33  C   UNL     1      53.371   4.763  18.689  0.00  0.00    +0.000 A 
ATOM     34  H   UNL     1      54.410   5.645  15.696  0.00  0.00    +0.000 HD
ENDBRANCH  21  24
ENDBRANCH  19  20
ENDBRANCH   4  19
TORSDOF 7
ENDMDL
MODEL 9
REMARK VINA RESULT:    -5.833      4.113      5.945
REMARK INTER + INTRA:          -9.452
REMARK INTER:                  -8.439
REMARK INTRA:                  -1.013
REMARK UNBOUND:                -1.232
REMARK  Name = 
REMARK  8 active torsions:
REMARK  status: ('A' for Active; 'I' for Inactive)
REMARK    1  A    between atoms: C_1  and  C_2
REMARK    2  A    between atoms: C_2  and  N_3
REMARK    3  A    between atoms: C_2  and  C_26
REMARK    4  A    between atoms: N_3  and  C_4
REMARK    5  A    between atoms: C_4  and  C_5
REMARK    6  A    between atoms: C_8  and  C_9
REMARK    7  A    between atoms: C_9  and  N_10
REMARK    8  A    between atoms: C_11  and  C_13
REMARK                            x       y       z     vdW  Elec       q    Type
REMARK                         _______ _______ _______ _____ _____    ______ ____
ROOT
ATOM      1  C   UNL     1      44.935   6.279  12.285  0.00  0.00    +0.000 A 
ATOM      2  C   UNL     1      44.483   4.995  12.603  0.00  0.00    +0.000 A 
ATOM      3  C   UNL     1      45.278   4.135  13.359  0.00  0.00    +0.000 A 
ATOM      4  C   UNL     1      46.537   4.542  13.825  0.00  0.00    +0.000 A 
ATOM      5  C   UNL     1      46.985   5.823  13.495  0.00  0.00    +0.000 A 
ATOM      6  F   UNL     1      48.191   6.243  13.902  0.00  0.00    +0.000 F 
ATOM      7  C   UNL     1      46.194   6.692  12.748  0.00  0.00    +0.000 A 
ENDROOT
BRANCH   1   8
ATOM      8  C   UNL     1      44.059   7.223  11.504  0.00  0.00    +0.000 C 
BRANCH   8   9
ATOM      9  N   UNL     1      44.820   8.365  10.992  0.00  0.00    +0.000 NA
ATOM     10  H   UNL     1      44.649   8.441   9.987  0.00  0.00    +0.000 HD
BRANCH   9  12
ATOM     11  C   UNL     1      45.649  10.556  11.800  0.00  0.00    +0.000 C 
ATOM     12  C   UNL     1      44.428   9.640  11.631  0.00  0.00    +0.000 C 
BRANCH  12  13
ATOM     13  C   UNL     1      43.342  10.364  10.828  0.00  0.00    +0.000 A 
ATOM     14  C   UNL     1      42.121  10.681  11.407  0.00  0.00    +0.000 A 
ATOM     15  N   UNL     1      41.091  11.253  10.730  0.00  0.00    +0.000 NA
ATOM     16  C   UNL     1      41.339  11.516   9.430  0.00  0.00    +0.000 A 
ATOM     17  C   UNL     1      42.558  11.232   8.840  0.00  0.00    +0.000 A 
ATOM     18  N   UNL     1      43.585  10.655   9.517  0.00  0.00    +0.000 NA
ENDBRANCH  12  13
ENDBRANCH   9  12
ENDBRANCH   8   9
ENDBRANCH   1   8
BRANCH   4  19
ATOM     19  C   UNL     1      47.368   3.607  14.659  0.00  0.00    +0.000 C 
BRANCH  19  20
ATOM     20  N   UNL     1      47.793   4.232  15.887  0.00  0.00    +0.000 N 
ATOM     21  C   UNL     1      47.211   3.946  17.090  0.00  0.00    +0.000 C 
ATOM     22  O   UNL     1      46.352   3.077  17.234  0.00  0.00    +0.000 OA
ATOM     23  H   UNL     1      48.282   5.116  15.780  0.00  0.00    +0.000 HD
BRANCH  21  24
ATOM     24  C   UNL     1      47.745   4.690  18.243  0.00  0.00    +0.000 A 
ATOM     25  C   UNL     1      46.943   5.591  18.927  0.00  0.00    +0.000 A 
ATOM     26  S   UNL     1      47.717   6.307  20.270  0.00  0.00    +0.000 S 
ATOM     27  C   UNL     1      49.168   5.475  19.950  0.00  0.00    +0.000 A 
ATOM     28  N   UNL     1      50.267   5.653  20.730  0.00  0.00    +0.000 NA
ATOM     29  C   UNL     1      51.298   4.964  20.362  0.00  0.00    +0.000 A 
ATOM     30  N   UNL     1      51.328   4.114  19.291  0.00  0.00    +0.000 N 
ATOM     31  C   UNL     1      50.239   3.892  18.482  0.00  0.00    +0.000 A 
ATOM     32  O   UNL     1      50.287   3.103  17.547  0.00  0.00    +0.000 OA
ATOM     33  C   UNL     1      49.054   4.646  18.851  0.00  0.00    +0.000 A 
ATOM     34  H   UNL     1      52.163   3.593  19.064  0.00  0.00    +0.000 HD
ENDBRANCH  21  24
ENDBRANCH  19  20
ENDBRANCH   4  19
TORSDOF 7
ENDMDL
