MODEL 1
REMARK VINA RESULT:    -8.919      0.000      0.000
REMARK INTER + INTRA:         -13.504
REMARK INTER:                 -12.569
REMARK INTRA:                  -0.936
REMARK UNBOUND:                -0.936
REMARK  Name = 
REMARK  7 active torsions:
REMARK  status: ('A' for Active; 'I' for Inactive)
REMARK    1  A    between atoms: C_2  and  C_4
REMARK    2  A    between atoms: C_7  and  N_8
REMARK    3  A    between atoms: N_8  and  C_9
REMARK    4  A    between atoms: C_9  and  C_10
REMARK    5  A    between atoms: C_10  and  C_13
REMARK    6  A    between atoms: C_18  and  O_19
REMARK    7  A    between atoms: O_19  and  C_20
REMARK                            x       y       z     vdW  Elec       q    Type
REMARK                         _______ _______ _______ _____ _____    ______ ____
ROOT
ATOM      1  C   UNL     1      43.267   5.166  12.441  0.00  0.00    +0.000 C 
ATOM      2  F   UNL     1      42.541   6.266  12.080  0.00  0.00    +0.000 F 
ATOM      3  F   UNL     1      42.622   4.650  13.533  0.00  0.00    +0.000 F 
ENDROOT
BRANCH   1   4
ATOM      4  C   UNL     1      44.712   5.521  12.749  0.00  0.00    +0.000 A 
ATOM      5  C   UNL     1      45.288   6.705  12.263  0.00  0.00    +0.000 A 
ATOM      6  C   UNL     1      46.624   7.005  12.548  0.00  0.00    +0.000 A 
ATOM      7  C   UNL     1      47.393   6.126  13.309  0.00  0.00    +0.000 A 
ATOM      8  F   UNL     1      48.664   6.463  13.570  0.00  0.00    +0.000 F 
ATOM      9  C   UNL     1      46.844   4.940  13.792  0.00  0.00    +0.000 A 
ATOM     10  C   UNL     1      45.503   4.651  13.517  0.00  0.00    +0.000 A 
BRANCH   9  11
ATOM     11  O   UNL     1      47.478   4.000  14.563  0.00  0.00    +0.000 OA
BRANCH  11  12
ATOM     12  C   UNL     1      47.387   4.081  16.001  0.00  0.00    +0.000 C 
ATOM     13  C   UNL     1      48.390   4.978  16.743  0.00  0.00    +0.000 C 
ATOM     14  O   UNL     1      48.801   3.887  17.603  0.00  0.00    +0.000 OA
ATOM     15  C   UNL     1      48.101   2.946  16.753  0.00  0.00    +0.000 C 
ENDBRANCH  11  12
ENDBRANCH   9  11
ENDBRANCH   1   4
BRANCH   1  16
ATOM     16  C   UNL     1      43.193   4.117  11.299  0.00  0.00    +0.000 C 
BRANCH  16  17
ATOM     17  N   UNL     1      43.670   4.629   9.994  0.00  0.00    +0.000 N 
ATOM     18  H   UNL     1      42.900   4.942   9.401  0.00  0.00    +0.000 HD
BRANCH  17  22
ATOM     19  C   UNL     1      46.378   2.306   7.842  0.00  0.00    +0.000 A 
ATOM     20  C   UNL     1      46.388   3.674   7.631  0.00  0.00    +0.000 A 
ATOM     21  C   UNL     1      45.501   4.465   8.360  0.00  0.00    +0.000 A 
ATOM     22  C   UNL     1      44.639   3.895   9.300  0.00  0.00    +0.000 A 
ATOM     23  C   UNL     1      44.692   2.498   9.399  0.00  0.00    +0.000 A 
ATOM     24  N   UNL     1      45.540   1.685   8.714  0.00  0.00    +0.000 NA
BRANCH  19  26
ATOM     25  N   UNL     1      48.417   2.066   6.547  0.00  0.00    +0.000 N 
ATOM     26  C   UNL     1      47.313   1.439   7.055  0.00  0.00    +0.000 C 
ATOM     27  O   UNL     1      47.114   0.243   6.878  0.00  0.00    +0.000 OA
ATOM     28  H   UNL     1      49.100   1.530   6.033  0.00  0.00    +0.000 HD
ATOM     29  H   UNL     1      48.565   3.051   6.737  0.00  0.00    +0.000 HD
ENDBRANCH  19  26
ENDBRANCH  17  22
ENDBRANCH  16  17
ENDBRANCH   1  16
TORSDOF 7
ENDMDL
MODEL 2
REMARK VINA RESULT:    -8.036      2.149      3.540
REMARK INTER + INTRA:         -12.260
REMARK INTER:                 -11.275
REMARK INTRA:                  -0.985
REMARK UNBOUND:                -0.936
REMARK  Name = 
REMARK  7 active torsions:
REMARK  status: ('A' for Active; 'I' for Inactive)
REMARK    1  A    between atoms: C_2  and  C_4
REMARK    2  A    between atoms: C_7  and  N_8
REMARK    3  A    between atoms: N_8  and  C_9
REMARK    4  A    between atoms: C_9  and  C_10
REMARK    5  A    between atoms: C_10  and  C_13
REMARK    6  A    between atoms: C_18  and  O_19
REMARK    7  A    between atoms: O_19  and  C_20
REMARK                            x       y       z     vdW  Elec       q    Type
REMARK                         _______ _______ _______ _____ _____    ______ ____
ROOT
ATOM      1  C   UNL     1      43.403   4.837  12.479  0.00  0.00    +0.000 C 
ATOM      2  F   UNL     1      42.641   5.872  12.017  0.00  0.00    +0.000 F 
ATOM      3  F   UNL     1      42.779   4.412  13.621  0.00  0.00    +0.000 F 
ENDROOT
BRANCH   1   4
ATOM      4  C   UNL     1      44.837   5.264  12.740  0.00  0.00    +0.000 A 
ATOM      5  C   UNL     1      45.686   4.497  13.553  0.00  0.00    +0.000 A 
ATOM      6  C   UNL     1      46.999   4.916  13.791  0.00  0.00    +0.000 A 
ATOM      7  C   UNL     1      47.469   6.102  13.229  0.00  0.00    +0.000 A 
ATOM      8  F   UNL     1      48.739   6.456  13.472  0.00  0.00    +0.000 F 
ATOM      9  C   UNL     1      46.640   6.884  12.428  0.00  0.00    +0.000 A 
ATOM     10  C   UNL     1      45.332   6.454  12.181  0.00  0.00    +0.000 A 
BRANCH   9  11
ATOM     11  O   UNL     1      46.976   8.056  11.802  0.00  0.00    +0.000 OA
BRANCH  11  12
ATOM     12  C   UNL     1      46.699   9.315  12.451  0.00  0.00    +0.000 C 
ATOM     13  C   UNL     1      45.437  10.086  12.034  0.00  0.00    +0.000 C 
ATOM     14  O   UNL     1      46.204  11.283  11.753  0.00  0.00    +0.000 OA
ATOM     15  C   UNL     1      47.433  10.523  11.848  0.00  0.00    +0.000 C 
ENDBRANCH  11  12
ENDBRANCH   9  11
ENDBRANCH   1   4
BRANCH   1  16
ATOM     16  C   UNL     1      43.356   3.677  11.448  0.00  0.00    +0.000 C 
BRANCH  16  17
ATOM     17  N   UNL     1      43.508   4.128  10.045  0.00  0.00    +0.000 N 
ATOM     18  H   UNL     1      42.623   4.103   9.537  0.00  0.00    +0.000 HD
BRANCH  17  22
ATOM     19  C   UNL     1      46.571   2.522   7.721  0.00  0.00    +0.000 A 
ATOM     20  C   UNL     1      46.348   3.886   7.644  0.00  0.00    +0.000 A 
ATOM     21  C   UNL     1      45.338   4.439   8.432  0.00  0.00    +0.000 A 
ATOM     22  C   UNL     1      44.588   3.641   9.299  0.00  0.00    +0.000 A 
ATOM     23  C   UNL     1      44.879   2.270   9.262  0.00  0.00    +0.000 A 
ATOM     24  N   UNL     1      45.852   1.685   8.515  0.00  0.00    +0.000 NA
BRANCH  19  26
ATOM     25  N   UNL     1      48.599   2.768   6.411  0.00  0.00    +0.000 N 
ATOM     26  C   UNL     1      47.640   1.908   6.868  0.00  0.00    +0.000 C 
ATOM     27  O   UNL     1      47.665   0.714   6.598  0.00  0.00    +0.000 OA
ATOM     28  H   UNL     1      49.363   2.410   5.856  0.00  0.00    +0.000 HD
ATOM     29  H   UNL     1      48.564   3.746   6.677  0.00  0.00    +0.000 HD
ENDBRANCH  19  26
ENDBRANCH  17  22
ENDBRANCH  16  17
ENDBRANCH   1  16
TORSDOF 7
ENDMDL
MODEL 3
REMARK VINA RESULT:    -7.751      1.503      1.890
REMARK INTER + INTRA:         -11.859
REMARK INTER:                 -11.046
REMARK INTRA:                  -0.814
REMARK UNBOUND:                -0.936
REMARK  Name = 
REMARK  7 active torsions:
REMARK  status: ('A' for Active; 'I' for Inactive)
REMARK    1  A    between atoms: C_2  and  C_4
REMARK    2  A    between atoms: C_7  and  N_8
REMARK    3  A    between atoms: N_8  and  C_9
REMARK    4  A    between atoms: C_9  and  C_10
REMARK    5  A    between atoms: C_10  and  C_13
REMARK    6  A    between atoms: C_18  and  O_19
REMARK    7  A    between atoms: O_19  and  C_20
REMARK                            x       y       z     vdW  Elec       q    Type
REMARK                         _______ _______ _______ _____ _____    ______ ____
ROOT
ATOM      1  C   UNL     1      44.839   4.232  12.648  0.00  0.00    +0.000 C 
ATOM      2  F   UNL     1      43.862   4.148  13.599  0.00  0.00    +0.000 F 
ATOM      3  F   UNL     1      45.180   2.936  12.365  0.00  0.00    +0.000 F 
ENDROOT
BRANCH   1   4
ATOM      4  C   UNL     1      46.031   5.039  13.134  0.00  0.00    +0.000 A 
ATOM      5  C   UNL     1      46.491   6.156  12.419  0.00  0.00    +0.000 A 
ATOM      6  C   UNL     1      47.599   6.877  12.877  0.00  0.00    +0.000 A 
ATOM      7  C   UNL     1      48.257   6.484  14.041  0.00  0.00    +0.000 A 
ATOM      8  F   UNL     1      49.303   7.215  14.451  0.00  0.00    +0.000 F 
ATOM      9  C   UNL     1      47.824   5.373  14.760  0.00  0.00    +0.000 A 
ATOM     10  C   UNL     1      46.707   4.663  14.307  0.00  0.00    +0.000 A 
BRANCH   9  11
ATOM     11  O   UNL     1      48.364   4.890  15.925  0.00  0.00    +0.000 OA
BRANCH  11  12
ATOM     12  C   UNL     1      48.224   5.651  17.143  0.00  0.00    +0.000 C 
ATOM     13  C   UNL     1      49.498   6.172  17.826  0.00  0.00    +0.000 C 
ATOM     14  O   UNL     1      49.134   5.551  19.084  0.00  0.00    +0.000 OA
ATOM     15  C   UNL     1      48.089   4.802  18.417  0.00  0.00    +0.000 C 
ENDBRANCH  11  12
ENDBRANCH   9  11
ENDBRANCH   1   4
BRANCH   1  16
ATOM     16  C   UNL     1      44.239   4.862  11.362  0.00  0.00    +0.000 C 
BRANCH  16  17
ATOM     17  N   UNL     1      43.766   3.860  10.379  0.00  0.00    +0.000 N 
ATOM     18  H   UNL     1      43.276   3.084  10.828  0.00  0.00    +0.000 HD
BRANCH  17  22
ATOM     19  C   UNL     1      46.545   2.772   7.472  0.00  0.00    +0.000 A 
ATOM     20  C   UNL     1      45.918   1.760   8.178  0.00  0.00    +0.000 A 
ATOM     21  C   UNL     1      44.971   2.110   9.140  0.00  0.00    +0.000 A 
ATOM     22  C   UNL     1      44.642   3.449   9.368  0.00  0.00    +0.000 A 
ATOM     23  C   UNL     1      45.370   4.385   8.620  0.00  0.00    +0.000 A 
ATOM     24  N   UNL     1      46.298   4.094   7.671  0.00  0.00    +0.000 NA
BRANCH  19  26
ATOM     25  N   UNL     1      47.399   2.968   5.208  0.00  0.00    +0.000 N 
ATOM     26  C   UNL     1      47.578   2.415   6.446  0.00  0.00    +0.000 C 
ATOM     27  O   UNL     1      48.527   1.681   6.691  0.00  0.00    +0.000 OA
ATOM     28  H   UNL     1      48.076   2.789   4.482  0.00  0.00    +0.000 HD
ATOM     29  H   UNL     1      46.618   3.593   5.047  0.00  0.00    +0.000 HD
ENDBRANCH  19  26
ENDBRANCH  17  22
ENDBRANCH  16  17
ENDBRANCH   1  16
TORSDOF 7
ENDMDL
MODEL 4
REMARK VINA RESULT:    -7.724      3.220      7.546
REMARK INTER + INTRA:         -11.820
REMARK INTER:                 -11.017
REMARK INTRA:                  -0.803
REMARK UNBOUND:                -0.936
REMARK  Name = 
REMARK  7 active torsions:
REMARK  status: ('A' for Active; 'I' for Inactive)
REMARK    1  A    between atoms: C_2  and  C_4
REMARK    2  A    between atoms: C_7  and  N_8
REMARK    3  A    between atoms: N_8  and  C_9
REMARK    4  A    between atoms: C_9  and  C_10
REMARK    5  A    between atoms: C_10  and  C_13
REMARK    6  A    between atoms: C_18  and  O_19
REMARK    7  A    between atoms: O_19  and  C_20
REMARK                            x       y       z     vdW  Elec       q    Type
REMARK                         _______ _______ _______ _____ _____    ______ ____
ROOT
ATOM      1  C   UNL     1      45.695   6.300  11.323  0.00  0.00    +0.000 C 
ATOM      2  F   UNL     1      44.958   7.362  10.882  0.00  0.00    +0.000 F 
ATOM      3  F   UNL     1      46.997   6.625  11.048  0.00  0.00    +0.000 F 
ENDROOT
BRANCH   1   4
ATOM      4  C   UNL     1      45.278   5.005  10.648  0.00  0.00    +0.000 A 
ATOM      5  C   UNL     1      44.567   4.018  11.348  0.00  0.00    +0.000 A 
ATOM      6  C   UNL     1      44.204   2.827  10.711  0.00  0.00    +0.000 A 
ATOM      7  C   UNL     1      44.556   2.610   9.380  0.00  0.00    +0.000 A 
ATOM      8  F   UNL     1      44.173   1.461   8.805  0.00  0.00    +0.000 F 
ATOM      9  C   UNL     1      45.270   3.571   8.669  0.00  0.00    +0.000 A 
ATOM     10  C   UNL     1      45.618   4.767   9.306  0.00  0.00    +0.000 A 
BRANCH   9  11
ATOM     11  O   UNL     1      45.663   3.496   7.357  0.00  0.00    +0.000 OA
BRANCH  11  12
ATOM     12  C   UNL     1      47.022   3.129   7.041  0.00  0.00    +0.000 C 
ATOM     13  C   UNL     1      47.356   2.755   5.589  0.00  0.00    +0.000 C 
ATOM     14  O   UNL     1      47.925   1.486   5.997  0.00  0.00    +0.000 OA
ATOM     15  C   UNL     1      47.371   1.659   7.324  0.00  0.00    +0.000 C 
ENDBRANCH  11  12
ENDBRANCH   9  11
ENDBRANCH   1   4
BRANCH   1  16
ATOM     16  C   UNL     1      45.545   6.187  12.864  0.00  0.00    +0.000 C 
BRANCH  16  17
ATOM     17  N   UNL     1      46.769   6.567  13.607  0.00  0.00    +0.000 N 
ATOM     18  H   UNL     1      47.488   6.948  12.990  0.00  0.00    +0.000 HD
BRANCH  17  22
ATOM     19  C   UNL     1      48.362   3.787  16.271  0.00  0.00    +0.000 A 
ATOM     20  C   UNL     1      48.727   5.113  16.425  0.00  0.00    +0.000 A 
ATOM     21  C   UNL     1      48.184   6.057  15.552  0.00  0.00    +0.000 A 
ATOM     22  C   UNL     1      47.274   5.678  14.563  0.00  0.00    +0.000 A 
ATOM     23  C   UNL     1      47.012   4.303  14.479  0.00  0.00    +0.000 A 
ATOM     24  N   UNL     1      47.512   3.347  15.306  0.00  0.00    +0.000 NA
BRANCH  19  26
ATOM     25  N   UNL     1      48.720   2.955  18.523  0.00  0.00    +0.000 N 
ATOM     26  C   UNL     1      48.948   2.758  17.189  0.00  0.00    +0.000 C 
ATOM     27  O   UNL     1      49.586   1.795  16.781  0.00  0.00    +0.000 OA
ATOM     28  H   UNL     1      49.063   2.281  19.190  0.00  0.00    +0.000 HD
ATOM     29  H   UNL     1      48.164   3.747  18.824  0.00  0.00    +0.000 HD
ENDBRANCH  19  26
ENDBRANCH  17  22
ENDBRANCH  16  17
ENDBRANCH   1  16
TORSDOF 7
ENDMDL
MODEL 5
REMARK VINA RESULT:    -7.654      2.285      3.509
REMARK INTER + INTRA:         -11.722
REMARK INTER:                 -10.842
REMARK INTRA:                  -0.880
REMARK UNBOUND:                -0.936
REMARK  Name = 
REMARK  7 active torsions:
REMARK  status: ('A' for Active; 'I' for Inactive)
REMARK    1  A    between atoms: C_2  and  C_4
REMARK    2  A    between atoms: C_7  and  N_8
REMARK    3  A    between atoms: N_8  and  C_9
REMARK    4  A    between atoms: C_9  and  C_10
REMARK    5  A    between atoms: C_10  and  C_13
REMARK    6  A    between atoms: C_18  and  O_19
REMARK    7  A    between atoms: O_19  and  C_20
REMARK                            x       y       z     vdW  Elec       q    Type
REMARK                         _______ _______ _______ _____ _____    ______ ____
ROOT
ATOM      1  C   UNL     1      44.669   4.964  12.533  0.00  0.00    +0.000 C 
ATOM      2  F   UNL     1      43.541   5.237  13.254  0.00  0.00    +0.000 F 
ATOM      3  F   UNL     1      44.674   3.605  12.371  0.00  0.00    +0.000 F 
ENDROOT
BRANCH   1   4
ATOM      4  C   UNL     1      45.921   5.457  13.238  0.00  0.00    +0.000 A 
ATOM      5  C   UNL     1      46.509   4.717  14.276  0.00  0.00    +0.000 A 
ATOM      6  C   UNL     1      47.654   5.196  14.920  0.00  0.00    +0.000 A 
ATOM      7  C   UNL     1      48.213   6.415  14.540  0.00  0.00    +0.000 A 
ATOM      8  F   UNL     1      49.320   6.827  15.174  0.00  0.00    +0.000 F 
ATOM      9  C   UNL     1      47.640   7.171  13.520  0.00  0.00    +0.000 A 
ATOM     10  C   UNL     1      46.503   6.681  12.869  0.00  0.00    +0.000 A 
BRANCH   9  11
ATOM     11  O   UNL     1      48.094   8.371  13.037  0.00  0.00    +0.000 OA
BRANCH  11  12
ATOM     12  C   UNL     1      48.774   8.414  11.764  0.00  0.00    +0.000 C 
ATOM     13  C   UNL     1      50.118   7.681  11.633  0.00  0.00    +0.000 C 
ATOM     14  O   UNL     1      50.777   8.879  11.153  0.00  0.00    +0.000 OA
ATOM     15  C   UNL     1      49.628   9.671  11.536  0.00  0.00    +0.000 C 
ENDBRANCH  11  12
ENDBRANCH   9  11
ENDBRANCH   1   4
BRANCH   1  16
ATOM     16  C   UNL     1      44.539   5.614  11.130  0.00  0.00    +0.000 C 
BRANCH  16  17
ATOM     17  N   UNL     1      43.882   4.739  10.131  0.00  0.00    +0.000 N 
ATOM     18  H   UNL     1      43.105   4.214  10.535  0.00  0.00    +0.000 HD
BRANCH  17  22
ATOM     19  C   UNL     1      46.469   2.579   7.681  0.00  0.00    +0.000 A 
ATOM     20  C   UNL     1      45.685   1.872   8.575  0.00  0.00    +0.000 A 
ATOM     21  C   UNL     1      44.800   2.582   9.387  0.00  0.00    +0.000 A 
ATOM     22  C   UNL     1      44.688   3.970   9.282  0.00  0.00    +0.000 A 
ATOM     23  C   UNL     1      45.560   4.579   8.370  0.00  0.00    +0.000 A 
ATOM     24  N   UNL     1      46.436   3.933   7.556  0.00  0.00    +0.000 NA
BRANCH  19  26
ATOM     25  N   UNL     1      48.534   2.544   6.405  0.00  0.00    +0.000 N 
ATOM     26  C   UNL     1      47.438   1.835   6.812  0.00  0.00    +0.000 C 
ATOM     27  O   UNL     1      47.270   0.667   6.486  0.00  0.00    +0.000 OA
ATOM     28  H   UNL     1      49.238   2.090   5.842  0.00  0.00    +0.000 HD
ATOM     29  H   UNL     1      48.656   3.501   6.716  0.00  0.00    +0.000 HD
ENDBRANCH  19  26
ENDBRANCH  17  22
ENDBRANCH  16  17
ENDBRANCH   1  16
TORSDOF 7
ENDMDL
MODEL 6
REMARK VINA RESULT:    -7.436      2.213      2.954
REMARK INTER + INTRA:         -11.414
REMARK INTER:                 -10.630
REMARK INTRA:                  -0.784
REMARK UNBOUND:                -0.936
REMARK  Name = 
REMARK  7 active torsions:
REMARK  status: ('A' for Active; 'I' for Inactive)
REMARK    1  A    between atoms: C_2  and  C_4
REMARK    2  A    between atoms: C_7  and  N_8
REMARK    3  A    between atoms: N_8  and  C_9
REMARK    4  A    between atoms: C_9  and  C_10
REMARK    5  A    between atoms: C_10  and  C_13
REMARK    6  A    between atoms: C_18  and  O_19
REMARK    7  A    between atoms: O_19  and  C_20
REMARK                            x       y       z     vdW  Elec       q    Type
REMARK                         _______ _______ _______ _____ _____    ______ ____
ROOT
ATOM      1  C   UNL     1      44.871   6.251  11.434  0.00  0.00    +0.000 C 
ATOM      2  F   UNL     1      45.581   6.563  10.310  0.00  0.00    +0.000 F 
ATOM      3  F   UNL     1      44.150   7.376  11.730  0.00  0.00    +0.000 F 
ENDROOT
BRANCH   1   4
ATOM      4  C   UNL     1      45.781   5.842  12.580  0.00  0.00    +0.000 A 
ATOM      5  C   UNL     1      45.727   4.549  13.124  0.00  0.00    +0.000 A 
ATOM      6  C   UNL     1      46.564   4.198  14.188  0.00  0.00    +0.000 A 
ATOM      7  C   UNL     1      47.451   5.133  14.720  0.00  0.00    +0.000 A 
ATOM      8  F   UNL     1      48.245   4.747  15.728  0.00  0.00    +0.000 F 
ATOM      9  C   UNL     1      47.513   6.425  14.202  0.00  0.00    +0.000 A 
ATOM     10  C   UNL     1      46.685   6.767  13.128  0.00  0.00    +0.000 A 
BRANCH   9  11
ATOM     11  O   UNL     1      48.347   7.432  14.615  0.00  0.00    +0.000 OA
BRANCH  11  12
ATOM     12  C   UNL     1      49.745   7.390  14.258  0.00  0.00    +0.000 C 
ATOM     13  C   UNL     1      50.617   8.611  14.589  0.00  0.00    +0.000 C 
ATOM     14  O   UNL     1      51.065   8.722  13.215  0.00  0.00    +0.000 OA
ATOM     15  C   UNL     1      50.047   7.778  12.802  0.00  0.00    +0.000 C 
ENDBRANCH  11  12
ENDBRANCH   9  11
ENDBRANCH   1   4
BRANCH   1  16
ATOM     16  C   UNL     1      43.870   5.113  11.099  0.00  0.00    +0.000 C 
BRANCH  16  17
ATOM     17  N   UNL     1      43.773   4.820   9.650  0.00  0.00    +0.000 N 
ATOM     18  H   UNL     1      42.807   4.665   9.354  0.00  0.00    +0.000 HD
BRANCH  17  22
ATOM     19  C   UNL     1      46.274   1.966   7.930  0.00  0.00    +0.000 A 
ATOM     20  C   UNL     1      46.337   3.259   7.442  0.00  0.00    +0.000 A 
ATOM     21  C   UNL     1      45.519   4.229   8.023  0.00  0.00    +0.000 A 
ATOM     22  C   UNL     1      44.676   3.909   9.089  0.00  0.00    +0.000 A 
ATOM     23  C   UNL     1      44.670   2.561   9.471  0.00  0.00    +0.000 A 
ATOM     24  N   UNL     1      45.449   1.582   8.939  0.00  0.00    +0.000 NA
BRANCH  19  26
ATOM     25  N   UNL     1      46.820  -0.381   7.640  0.00  0.00    +0.000 N 
ATOM     26  C   UNL     1      47.133   0.908   7.307  0.00  0.00    +0.000 C 
ATOM     27  O   UNL     1      48.054   1.169   6.544  0.00  0.00    +0.000 OA
ATOM     28  H   UNL     1      47.343  -1.141   7.230  0.00  0.00    +0.000 HD
ATOM     29  H   UNL     1      46.033  -0.563   8.252  0.00  0.00    +0.000 HD
ENDBRANCH  19  26
ENDBRANCH  17  22
ENDBRANCH  16  17
ENDBRANCH   1  16
TORSDOF 7
ENDMDL
MODEL 7
REMARK VINA RESULT:    -6.640      3.192      4.692
REMARK INTER + INTRA:         -10.293
REMARK INTER:                  -9.101
REMARK INTRA:                  -1.192
REMARK UNBOUND:                -0.936
REMARK  Name = 
REMARK  7 active torsions:
REMARK  status: ('A' for Active; 'I' for Inactive)
REMARK    1  A    between atoms: C_2  and  C_4
REMARK    2  A    between atoms: C_7  and  N_8
REMARK    3  A    between atoms: N_8  and  C_9
REMARK    4  A    between atoms: C_9  and  C_10
REMARK    5  A    between atoms: C_10  and  C_13
REMARK    6  A    between atoms: C_18  and  O_19
REMARK    7  A    between atoms: O_19  and  C_20
REMARK                            x       y       z     vdW  Elec       q    Type
REMARK                         _______ _______ _______ _____ _____    ______ ____
ROOT
ATOM      1  C   UNL     1      48.006   8.222  12.526  0.00  0.00    +0.000 C 
ATOM      2  F   UNL     1      48.242   7.065  11.839  0.00  0.00    +0.000 F 
ATOM      3  F   UNL     1      48.788   9.168  11.920  0.00  0.00    +0.000 F 
ENDROOT
BRANCH   1   4
ATOM      4  C   UNL     1      48.330   8.077  14.003  0.00  0.00    +0.000 A 
ATOM      5  C   UNL     1      48.328   9.189  14.859  0.00  0.00    +0.000 A 
ATOM      6  C   UNL     1      48.643   9.034  16.213  0.00  0.00    +0.000 A 
ATOM      7  C   UNL     1      48.969   7.777  16.717  0.00  0.00    +0.000 A 
ATOM      8  F   UNL     1      49.248   7.674  18.024  0.00  0.00    +0.000 F 
ATOM      9  C   UNL     1      48.988   6.662  15.883  0.00  0.00    +0.000 A 
ATOM     10  C   UNL     1      48.658   6.818  14.533  0.00  0.00    +0.000 A 
BRANCH   9  11
ATOM     11  O   UNL     1      49.272   5.371  16.249  0.00  0.00    +0.000 OA
BRANCH  11  12
ATOM     12  C   UNL     1      48.375   4.669  17.136  0.00  0.00    +0.000 C 
ATOM     13  C   UNL     1      48.645   3.183  17.417  0.00  0.00    +0.000 C 
ATOM     14  O   UNL     1      47.300   2.816  17.021  0.00  0.00    +0.000 OA
ATOM     15  C   UNL     1      47.097   4.139  16.469  0.00  0.00    +0.000 C 
ENDBRANCH  11  12
ENDBRANCH   9  11
ENDBRANCH   1   4
BRANCH   1  16
ATOM     16  C   UNL     1      46.521   8.630  12.330  0.00  0.00    +0.000 C 
BRANCH  16  17
ATOM     17  N   UNL     1      45.581   7.876  13.192  0.00  0.00    +0.000 N 
ATOM     18  H   UNL     1      45.868   7.888  14.172  0.00  0.00    +0.000 HD
BRANCH  17  22
ATOM     19  C   UNL     1      44.340   4.195  11.685  0.00  0.00    +0.000 A 
ATOM     20  C   UNL     1      45.210   4.193  12.760  0.00  0.00    +0.000 A 
ATOM     21  C   UNL     1      45.617   5.419  13.288  0.00  0.00    +0.000 A 
ATOM     22  C   UNL     1      45.139   6.620  12.760  0.00  0.00    +0.000 A 
ATOM     23  C   UNL     1      44.294   6.497  11.648  0.00  0.00    +0.000 A 
ATOM     24  N   UNL     1      43.867   5.328  11.101  0.00  0.00    +0.000 NA
BRANCH  19  26
ATOM     25  N   UNL     1      44.687   2.405  10.083  0.00  0.00    +0.000 N 
ATOM     26  C   UNL     1      43.904   2.888  11.095  0.00  0.00    +0.000 C 
ATOM     27  O   UNL     1      42.916   2.281  11.490  0.00  0.00    +0.000 OA
ATOM     28  H   UNL     1      44.463   1.514   9.665  0.00  0.00    +0.000 HD
ATOM     29  H   UNL     1      45.513   2.918   9.800  0.00  0.00    +0.000 HD
ENDBRANCH  19  26
ENDBRANCH  17  22
ENDBRANCH  16  17
ENDBRANCH   1  16
TORSDOF 7
ENDMDL
MODEL 8
REMARK VINA RESULT:    -6.519      4.075      7.598
REMARK INTER + INTRA:         -10.122
REMARK INTER:                  -9.268
REMARK INTRA:                  -0.854
REMARK UNBOUND:                -0.936
REMARK  Name = 
REMARK  7 active torsions:
REMARK  status: ('A' for Active; 'I' for Inactive)
REMARK    1  A    between atoms: C_2  and  C_4
REMARK    2  A    between atoms: C_7  and  N_8
REMARK    3  A    between atoms: N_8  and  C_9
REMARK    4  A    between atoms: C_9  and  C_10
REMARK    5  A    between atoms: C_10  and  C_13
REMARK    6  A    between atoms: C_18  and  O_19
REMARK    7  A    between atoms: O_19  and  C_20
REMARK                            x       y       z     vdW  Elec       q    Type
REMARK                         _______ _______ _______ _____ _____    ______ ____
ROOT
ATOM      1  C   UNL     1      47.915   6.501  14.275  0.00  0.00    +0.000 C 
ATOM      2  F   UNL     1      48.229   7.284  15.350  0.00  0.00    +0.000 F 
ATOM      3  F   UNL     1      49.098   6.303  13.615  0.00  0.00    +0.000 F 
ENDROOT
BRANCH   1   4
ATOM      4  C   UNL     1      46.870   7.154  13.387  0.00  0.00    +0.000 A 
ATOM      5  C   UNL     1      46.853   8.543  13.188  0.00  0.00    +0.000 A 
ATOM      6  C   UNL     1      45.874   9.125  12.376  0.00  0.00    +0.000 A 
ATOM      7  C   UNL     1      44.905   8.330  11.768  0.00  0.00    +0.000 A 
ATOM      8  F   UNL     1      43.996   8.929  10.986  0.00  0.00    +0.000 F 
ATOM      9  C   UNL     1      44.897   6.950  11.960  0.00  0.00    +0.000 A 
ATOM     10  C   UNL     1      45.887   6.370  12.761  0.00  0.00    +0.000 A 
BRANCH   9  11
ATOM     11  O   UNL     1      44.018   6.052  11.411  0.00  0.00    +0.000 OA
BRANCH  11  12
ATOM     12  C   UNL     1      44.362   4.651  11.376  0.00  0.00    +0.000 C 
ATOM     13  C   UNL     1      43.944   3.830  10.147  0.00  0.00    +0.000 C 
ATOM     14  O   UNL     1      43.267   2.850  10.973  0.00  0.00    +0.000 OA
ATOM     15  C   UNL     1      43.380   3.731  12.117  0.00  0.00    +0.000 C 
ENDBRANCH  11  12
ENDBRANCH   9  11
ENDBRANCH   1   4
BRANCH   1  16
ATOM     16  C   UNL     1      47.414   5.123  14.786  0.00  0.00    +0.000 C 
BRANCH  16  17
ATOM     17  N   UNL     1      47.598   4.930  16.243  0.00  0.00    +0.000 N 
ATOM     18  H   UNL     1      47.525   5.809  16.758  0.00  0.00    +0.000 HD
BRANCH  17  22
ATOM     19  C   UNL     1      50.757   2.437  17.324  0.00  0.00    +0.000 A 
ATOM     20  C   UNL     1      50.843   3.775  17.666  0.00  0.00    +0.000 A 
ATOM     21  C   UNL     1      49.782   4.616  17.328  0.00  0.00    +0.000 A 
ATOM     22  C   UNL     1      48.649   4.116  16.683  0.00  0.00    +0.000 A 
ATOM     23  C   UNL     1      48.693   2.754  16.354  0.00  0.00    +0.000 A 
ATOM     24  N   UNL     1      49.699   1.895  16.663  0.00  0.00    +0.000 NA
BRANCH  19  26
ATOM     25  N   UNL     1      51.540   0.275  18.101  0.00  0.00    +0.000 N 
ATOM     26  C   UNL     1      51.894   1.521  17.664  0.00  0.00    +0.000 C 
ATOM     27  O   UNL     1      53.067   1.856  17.556  0.00  0.00    +0.000 OA
ATOM     28  H   UNL     1      52.260  -0.398  18.319  0.00  0.00    +0.000 HD
ATOM     29  H   UNL     1      50.560   0.021  18.152  0.00  0.00    +0.000 HD
ENDBRANCH  19  26
ENDBRANCH  17  22
ENDBRANCH  16  17
ENDBRANCH   1  16
TORSDOF 7
ENDMDL
MODEL 9
REMARK VINA RESULT:    -6.487      3.463      7.417
REMARK INTER + INTRA:         -10.077
REMARK INTER:                  -8.990
REMARK INTRA:                  -1.087
REMARK UNBOUND:                -0.936
REMARK  Name = 
REMARK  7 active torsions:
REMARK  status: ('A' for Active; 'I' for Inactive)
REMARK    1  A    between atoms: C_2  and  C_4
REMARK    2  A    between atoms: C_7  and  N_8
REMARK    3  A    between atoms: N_8  and  C_9
REMARK    4  A    between atoms: C_9  and  C_10
REMARK    5  A    between atoms: C_10  and  C_13
REMARK    6  A    between atoms: C_18  and  O_19
REMARK    7  A    between atoms: O_19  and  C_20
REMARK                            x       y       z     vdW  Elec       q    Type
REMARK                         _______ _______ _______ _____ _____    ______ ____
ROOT
ATOM      1  C   UNL     1      47.107   7.824  11.914  0.00  0.00    +0.000 C 
ATOM      2  F   UNL     1      46.985   9.060  11.346  0.00  0.00    +0.000 F 
ATOM      3  F   UNL     1      48.255   7.296  11.386  0.00  0.00    +0.000 F 
ENDROOT
BRANCH   1   4
ATOM      4  C   UNL     1      45.897   6.951  11.631  0.00  0.00    +0.000 A 
ATOM      5  C   UNL     1      44.593   7.443  11.794  0.00  0.00    +0.000 A 
ATOM      6  C   UNL     1      43.492   6.617  11.540  0.00  0.00    +0.000 A 
ATOM      7  C   UNL     1      43.686   5.299  11.133  0.00  0.00    +0.000 A 
ATOM      8  F   UNL     1      42.602   4.549  10.886  0.00  0.00    +0.000 F 
ATOM      9  C   UNL     1      44.971   4.787  10.975  0.00  0.00    +0.000 A 
ATOM     10  C   UNL     1      46.069   5.620  11.216  0.00  0.00    +0.000 A 
BRANCH   9  11
ATOM     11  O   UNL     1      45.303   3.521  10.565  0.00  0.00    +0.000 OA
BRANCH  11  12
ATOM     12  C   UNL     1      44.936   3.083   9.240  0.00  0.00    +0.000 C 
ATOM     13  C   UNL     1      45.637   1.844   8.662  0.00  0.00    +0.000 C 
ATOM     14  O   UNL     1      46.040   2.568   7.473  0.00  0.00    +0.000 OA
ATOM     15  C   UNL     1      45.659   3.817   8.099  0.00  0.00    +0.000 C 
ENDBRANCH  11  12
ENDBRANCH   9  11
ENDBRANCH   1   4
BRANCH   1  16
ATOM     16  C   UNL     1      47.316   7.990  13.444  0.00  0.00    +0.000 C 
BRANCH  16  17
ATOM     17  N   UNL     1      48.497   7.261  13.962  0.00  0.00    +0.000 N 
ATOM     18  H   UNL     1      49.171   7.050  13.224  0.00  0.00    +0.000 HD
BRANCH  17  22
ATOM     19  C   UNL     1      47.812   4.243  16.752  0.00  0.00    +0.000 A 
ATOM     20  C   UNL     1      47.165   4.155  15.532  0.00  0.00    +0.000 A 
ATOM     21  C   UNL     1      47.401   5.148  14.581  0.00  0.00    +0.000 A 
ATOM     22  C   UNL     1      48.290   6.193  14.843  0.00  0.00    +0.000 A 
ATOM     23  C   UNL     1      48.856   6.198  16.126  0.00  0.00    +0.000 A 
ATOM     24  N   UNL     1      48.659   5.253  17.083  0.00  0.00    +0.000 NA
BRANCH  19  26
ATOM     25  N   UNL     1      48.422   3.187  18.850  0.00  0.00    +0.000 N 
ATOM     26  C   UNL     1      47.557   3.194  17.791  0.00  0.00    +0.000 C 
ATOM     27  O   UNL     1      46.633   2.394  17.710  0.00  0.00    +0.000 OA
ATOM     28  H   UNL     1      48.285   2.524  19.598  0.00  0.00    +0.000 HD
ATOM     29  H   UNL     1      49.158   3.882  18.900  0.00  0.00    +0.000 HD
ENDBRANCH  19  26
ENDBRANCH  17  22
ENDBRANCH  16  17
ENDBRANCH   1  16
TORSDOF 7
ENDMDL
