MODEL 1
REMARK VINA RESULT:    -7.604      0.000      0.000
REMARK INTER + INTRA:         -10.696
REMARK INTER:                  -9.827
REMARK INTRA:                  -0.868
REMARK UNBOUND:                -0.868
REMARK  Name = 
REMARK  7 active torsions:
REMARK  status: ('A' for Active; 'I' for Inactive)
REMARK    1  A    between atoms: C_1  and  O_2
REMARK    2  A    between atoms: O_2  and  C_3
REMARK    3  A    between atoms: C_7  and  N_8
REMARK    4  A    between atoms: N_8  and  C_9
REMARK    5  A    between atoms: C_9  and  C_10
REMARK    6  A    between atoms: C_14  and  C_15
REMARK    7  A    between atoms: C_19  and  C_20
REMARK                            x       y       z     vdW  Elec       q    Type
REMARK                         _______ _______ _______ _____ _____    ______ ____
ROOT
ATOM      1  C   UNL     1      44.174   5.585  11.432  0.00  0.00    +0.000 A 
ATOM      2  C   UNL     1      43.327   4.743  12.161  0.00  0.00    +0.000 A 
ATOM      3  C   UNL     1      43.256   3.388  11.855  0.00  0.00    +0.000 A 
ATOM      4  C   UNL     1      44.013   2.870  10.802  0.00  0.00    +0.000 A 
ATOM      5  C   UNL     1      44.851   3.692  10.024  0.00  0.00    +0.000 A 
ATOM      6  C   UNL     1      44.951   5.045  10.392  0.00  0.00    +0.000 A 
ENDROOT
BRANCH   5   7
ATOM      7  C   UNL     1      45.529   3.188   8.812  0.00  0.00    +0.000 A 
ATOM      8  C   UNL     1      45.959   4.058   7.804  0.00  0.00    +0.000 A 
ATOM      9  C   UNL     1      46.668   3.558   6.720  0.00  0.00    +0.000 A 
ATOM     10  C   UNL     1      46.932   2.197   6.655  0.00  0.00    +0.000 A 
ATOM     11  C   UNL     1      46.481   1.379   7.684  0.00  0.00    +0.000 A 
ATOM     12  C   UNL     1      46.751  -0.096   7.651  0.00  0.00    +0.000 C 
ATOM     13  N   UNL     1      45.790   1.856   8.754  0.00  0.00    +0.000 NA
ENDBRANCH   5   7
BRANCH   1  14
ATOM     14  C   UNL     1      44.219   7.063  11.732  0.00  0.00    +0.000 C 
BRANCH  14  15
ATOM     15  N   UNL     1      45.044   7.317  12.901  0.00  0.00    +0.000 N 
ATOM     16  H   UNL     1      44.651   6.936  13.759  0.00  0.00    +0.000 HD
BRANCH  15  21
ATOM     17  C   UNL     1      48.652   7.858  12.105  0.00  0.00    +0.000 A 
ATOM     18  C   UNL     1      49.170   6.851  12.910  0.00  0.00    +0.000 A 
ATOM     19  N   UNL     1      48.421   6.017  13.664  0.00  0.00    +0.000 NA
ATOM     20  C   UNL     1      47.081   6.203  13.604  0.00  0.00    +0.000 A 
ATOM     21  C   UNL     1      46.430   7.159  12.815  0.00  0.00    +0.000 A 
ATOM     22  C   UNL     1      47.265   8.011  12.079  0.00  0.00    +0.000 A 
BRANCH  17  24
ATOM     23  C   UNL     1      50.849   8.030  11.220  0.00  0.00    +0.000 C 
ATOM     24  O   UNL     1      49.561   8.608  11.415  0.00  0.00    +0.000 OA
ENDBRANCH  17  24
ENDBRANCH  15  21
ENDBRANCH  14  15
ENDBRANCH   1  14
TORSDOF 5
ENDMDL
MODEL 2
REMARK VINA RESULT:    -7.547      2.277      6.637
REMARK INTER + INTRA:         -10.621
REMARK INTER:                  -9.782
REMARK INTRA:                  -0.840
REMARK UNBOUND:                -0.868
REMARK  Name = 
REMARK  7 active torsions:
REMARK  status: ('A' for Active; 'I' for Inactive)
REMARK    1  A    between atoms: C_1  and  O_2
REMARK    2  A    between atoms: O_2  and  C_3
REMARK    3  A    between atoms: C_7  and  N_8
REMARK    4  A    between atoms: N_8  and  C_9
REMARK    5  A    between atoms: C_9  and  C_10
REMARK    6  A    between atoms: C_14  and  C_15
REMARK    7  A    between atoms: C_19  and  C_20
REMARK                            x       y       z     vdW  Elec       q    Type
REMARK                         _______ _______ _______ _____ _____    ______ ____
ROOT
ATOM      1  C   UNL     1      44.843   4.837  11.541  0.00  0.00    +0.000 A 
ATOM      2  C   UNL     1      45.264   3.844  12.433  0.00  0.00    +0.000 A 
ATOM      3  C   UNL     1      46.342   4.076  13.280  0.00  0.00    +0.000 A 
ATOM      4  C   UNL     1      47.024   5.294  13.224  0.00  0.00    +0.000 A 
ATOM      5  C   UNL     1      46.651   6.305  12.318  0.00  0.00    +0.000 A 
ATOM      6  C   UNL     1      45.521   6.069  11.516  0.00  0.00    +0.000 A 
ENDROOT
BRANCH   5   7
ATOM      7  C   UNL     1      47.460   7.528  12.139  0.00  0.00    +0.000 A 
ATOM      8  C   UNL     1      48.837   7.460  11.902  0.00  0.00    +0.000 A 
ATOM      9  C   UNL     1      49.551   8.625  11.654  0.00  0.00    +0.000 A 
ATOM     10  C   UNL     1      48.880   9.840  11.651  0.00  0.00    +0.000 A 
ATOM     11  C   UNL     1      47.512   9.850  11.893  0.00  0.00    +0.000 A 
ATOM     12  C   UNL     1      46.753  11.143  11.894  0.00  0.00    +0.000 C 
ATOM     13  N   UNL     1      46.800   8.715  12.132  0.00  0.00    +0.000 NA
ENDBRANCH   5   7
BRANCH   1  14
ATOM     14  C   UNL     1      43.703   4.571  10.590  0.00  0.00    +0.000 C 
BRANCH  14  15
ATOM     15  N   UNL     1      44.168   4.632   9.214  0.00  0.00    +0.000 N 
ATOM     16  H   UNL     1      44.523   5.549   8.952  0.00  0.00    +0.000 HD
BRANCH  15  21
ATOM     17  C   UNL     1      46.821   2.680   7.456  0.00  0.00    +0.000 A 
ATOM     18  C   UNL     1      46.458   1.421   7.918  0.00  0.00    +0.000 A 
ATOM     19  N   UNL     1      45.410   1.182   8.737  0.00  0.00    +0.000 NA
ATOM     20  C   UNL     1      44.688   2.266   9.109  0.00  0.00    +0.000 A 
ATOM     21  C   UNL     1      44.928   3.580   8.695  0.00  0.00    +0.000 A 
ATOM     22  C   UNL     1      46.046   3.765   7.870  0.00  0.00    +0.000 A 
BRANCH  17  24
ATOM     23  C   UNL     1      47.680   2.525   5.247  0.00  0.00    +0.000 C 
ATOM     24  O   UNL     1      47.913   2.732   6.638  0.00  0.00    +0.000 OA
ENDBRANCH  17  24
ENDBRANCH  15  21
ENDBRANCH  14  15
ENDBRANCH   1  14
TORSDOF 5
ENDMDL
MODEL 3
REMARK VINA RESULT:    -7.446      2.141      6.397
REMARK INTER + INTRA:         -10.491
REMARK INTER:                  -9.604
REMARK INTRA:                  -0.887
REMARK UNBOUND:                -0.868
REMARK  Name = 
REMARK  7 active torsions:
REMARK  status: ('A' for Active; 'I' for Inactive)
REMARK    1  A    between atoms: C_1  and  O_2
REMARK    2  A    between atoms: O_2  and  C_3
REMARK    3  A    between atoms: C_7  and  N_8
REMARK    4  A    between atoms: N_8  and  C_9
REMARK    5  A    between atoms: C_9  and  C_10
REMARK    6  A    between atoms: C_14  and  C_15
REMARK    7  A    between atoms: C_19  and  C_20
REMARK                            x       y       z     vdW  Elec       q    Type
REMARK                         _______ _______ _______ _____ _____    ______ ____
ROOT
ATOM      1  C   UNL     1      44.703   4.924  11.812  0.00  0.00    +0.000 A 
ATOM      2  C   UNL     1      45.208   3.969  12.701  0.00  0.00    +0.000 A 
ATOM      3  C   UNL     1      46.348   4.242  13.448  0.00  0.00    +0.000 A 
ATOM      4  C   UNL     1      47.008   5.464  13.292  0.00  0.00    +0.000 A 
ATOM      5  C   UNL     1      46.550   6.437  12.384  0.00  0.00    +0.000 A 
ATOM      6  C   UNL     1      45.361   6.161  11.687  0.00  0.00    +0.000 A 
ENDROOT
BRANCH   5   7
ATOM      7  C   UNL     1      47.328   7.660  12.095  0.00  0.00    +0.000 A 
ATOM      8  C   UNL     1      46.750   8.930  12.196  0.00  0.00    +0.000 A 
ATOM      9  C   UNL     1      47.533  10.060  12.001  0.00  0.00    +0.000 A 
ATOM     10  C   UNL     1      48.880   9.904  11.703  0.00  0.00    +0.000 A 
ATOM     11  C   UNL     1      49.402   8.620  11.615  0.00  0.00    +0.000 A 
ATOM     12  C   UNL     1      50.853   8.412  11.299  0.00  0.00    +0.000 C 
ATOM     13  N   UNL     1      48.647   7.504  11.809  0.00  0.00    +0.000 NA
ENDBRANCH   5   7
BRANCH   1  14
ATOM     14  C   UNL     1      43.492   4.613  10.968  0.00  0.00    +0.000 C 
BRANCH  14  15
ATOM     15  N   UNL     1      43.822   4.712   9.556  0.00  0.00    +0.000 N 
ATOM     16  H   UNL     1      44.057   5.658   9.265  0.00  0.00    +0.000 HD
BRANCH  15  21
ATOM     17  C   UNL     1      46.544   3.027   7.635  0.00  0.00    +0.000 A 
ATOM     18  C   UNL     1      46.280   1.726   8.046  0.00  0.00    +0.000 A 
ATOM     19  N   UNL     1      45.275   1.379   8.880  0.00  0.00    +0.000 NA
ATOM     20  C   UNL     1      44.494   2.393   9.323  0.00  0.00    +0.000 A 
ATOM     21  C   UNL     1      44.634   3.739   8.966  0.00  0.00    +0.000 A 
ATOM     22  C   UNL     1      45.712   4.036   8.121  0.00  0.00    +0.000 A 
BRANCH  17  24
ATOM     23  C   UNL     1      47.909   2.098   5.928  0.00  0.00    +0.000 C 
ATOM     24  O   UNL     1      47.605   3.190   6.792  0.00  0.00    +0.000 OA
ENDBRANCH  17  24
ENDBRANCH  15  21
ENDBRANCH  14  15
ENDBRANCH   1  14
TORSDOF 5
ENDMDL
MODEL 4
REMARK VINA RESULT:    -7.411      2.726      6.866
REMARK INTER + INTRA:         -10.446
REMARK INTER:                  -9.532
REMARK INTRA:                  -0.914
REMARK UNBOUND:                -0.868
REMARK  Name = 
REMARK  7 active torsions:
REMARK  status: ('A' for Active; 'I' for Inactive)
REMARK    1  A    between atoms: C_1  and  O_2
REMARK    2  A    between atoms: O_2  and  C_3
REMARK    3  A    between atoms: C_7  and  N_8
REMARK    4  A    between atoms: N_8  and  C_9
REMARK    5  A    between atoms: C_9  and  C_10
REMARK    6  A    between atoms: C_14  and  C_15
REMARK    7  A    between atoms: C_19  and  C_20
REMARK                            x       y       z     vdW  Elec       q    Type
REMARK                         _______ _______ _______ _____ _____    ______ ____
ROOT
ATOM      1  C   UNL     1      44.859   4.650  12.778  0.00  0.00    +0.000 A 
ATOM      2  C   UNL     1      46.001   4.004  13.262  0.00  0.00    +0.000 A 
ATOM      3  C   UNL     1      47.136   4.739  13.587  0.00  0.00    +0.000 A 
ATOM      4  C   UNL     1      47.146   6.124  13.405  0.00  0.00    +0.000 A 
ATOM      5  C   UNL     1      46.027   6.807  12.889  0.00  0.00    +0.000 A 
ATOM      6  C   UNL     1      44.873   6.049  12.627  0.00  0.00    +0.000 A 
ENDROOT
BRANCH   5   7
ATOM      7  C   UNL     1      46.082   8.242  12.544  0.00  0.00    +0.000 A 
ATOM      8  C   UNL     1      47.296   8.936  12.511  0.00  0.00    +0.000 A 
ATOM      9  C   UNL     1      47.321  10.262  12.099  0.00  0.00    +0.000 A 
ATOM     10  C   UNL     1      46.132  10.876  11.731  0.00  0.00    +0.000 A 
ATOM     11  C   UNL     1      44.955  10.140  11.782  0.00  0.00    +0.000 A 
ATOM     12  C   UNL     1      43.651  10.768  11.388  0.00  0.00    +0.000 C 
ATOM     13  N   UNL     1      44.918   8.838  12.179  0.00  0.00    +0.000 NA
ENDBRANCH   5   7
BRANCH   1  14
ATOM     14  C   UNL     1      43.642   3.851  12.382  0.00  0.00    +0.000 C 
BRANCH  14  15
ATOM     15  N   UNL     1      43.335   4.060  10.977  0.00  0.00    +0.000 N 
ATOM     16  H   UNL     1      42.902   4.962  10.792  0.00  0.00    +0.000 HD
BRANCH  15  21
ATOM     17  C   UNL     1      45.507   2.043   8.707  0.00  0.00    +0.000 A 
ATOM     18  C   UNL     1      45.957   3.087   7.908  0.00  0.00    +0.000 A 
ATOM     19  N   UNL     1      45.610   4.382   8.079  0.00  0.00    +0.000 NA
ATOM     20  C   UNL     1      44.769   4.640   9.109  0.00  0.00    +0.000 A 
ATOM     21  C   UNL     1      44.267   3.688  10.004  0.00  0.00    +0.000 A 
ATOM     22  C   UNL     1      44.641   2.361   9.754  0.00  0.00    +0.000 A 
BRANCH  17  24
ATOM     23  C   UNL     1      47.002   0.727   7.413  0.00  0.00    +0.000 C 
ATOM     24  O   UNL     1      45.960   0.796   8.383  0.00  0.00    +0.000 OA
ENDBRANCH  17  24
ENDBRANCH  15  21
ENDBRANCH  14  15
ENDBRANCH   1  14
TORSDOF 5
ENDMDL
MODEL 5
REMARK VINA RESULT:    -7.295      2.830      7.111
REMARK INTER + INTRA:         -10.295
REMARK INTER:                  -9.526
REMARK INTRA:                  -0.769
REMARK UNBOUND:                -0.868
REMARK  Name = 
REMARK  7 active torsions:
REMARK  status: ('A' for Active; 'I' for Inactive)
REMARK    1  A    between atoms: C_1  and  O_2
REMARK    2  A    between atoms: O_2  and  C_3
REMARK    3  A    between atoms: C_7  and  N_8
REMARK    4  A    between atoms: N_8  and  C_9
REMARK    5  A    between atoms: C_9  and  C_10
REMARK    6  A    between atoms: C_14  and  C_15
REMARK    7  A    between atoms: C_19  and  C_20
REMARK                            x       y       z     vdW  Elec       q    Type
REMARK                         _______ _______ _______ _____ _____    ______ ____
ROOT
ATOM      1  C   UNL     1      45.419   5.651  12.157  0.00  0.00    +0.000 A 
ATOM      2  C   UNL     1      46.178   6.596  11.459  0.00  0.00    +0.000 A 
ATOM      3  C   UNL     1      47.434   6.969  11.927  0.00  0.00    +0.000 A 
ATOM      4  C   UNL     1      47.928   6.419  13.112  0.00  0.00    +0.000 A 
ATOM      5  C   UNL     1      47.181   5.489  13.860  0.00  0.00    +0.000 A 
ATOM      6  C   UNL     1      45.942   5.083  13.333  0.00  0.00    +0.000 A 
ENDROOT
BRANCH   5   7
ATOM      7  C   UNL     1      47.623   5.024  15.190  0.00  0.00    +0.000 A 
ATOM      8  C   UNL     1      47.045   3.905  15.800  0.00  0.00    +0.000 A 
ATOM      9  C   UNL     1      47.544   3.446  17.011  0.00  0.00    +0.000 A 
ATOM     10  C   UNL     1      48.610   4.114  17.599  0.00  0.00    +0.000 A 
ATOM     11  C   UNL     1      49.146   5.220  16.950  0.00  0.00    +0.000 A 
ATOM     12  C   UNL     1      50.300   5.964  17.552  0.00  0.00    +0.000 C 
ATOM     13  N   UNL     1      48.670   5.677  15.760  0.00  0.00    +0.000 NA
ENDBRANCH   5   7
BRANCH   1  14
ATOM     14  C   UNL     1      44.039   5.278  11.676  0.00  0.00    +0.000 C 
BRANCH  14  15
ATOM     15  N   UNL     1      43.994   5.274  10.223  0.00  0.00    +0.000 N 
ATOM     16  H   UNL     1      44.204   6.182   9.814  0.00  0.00    +0.000 HD
BRANCH  15  21
ATOM     17  C   UNL     1      46.168   3.255   7.957  0.00  0.00    +0.000 A 
ATOM     18  C   UNL     1      45.734   1.998   8.359  0.00  0.00    +0.000 A 
ATOM     19  N   UNL     1      44.782   1.783   9.293  0.00  0.00    +0.000 NA
ATOM     20  C   UNL     1      44.236   2.890   9.851  0.00  0.00    +0.000 A 
ATOM     21  C   UNL     1      44.561   4.209   9.518  0.00  0.00    +0.000 A 
ATOM     22  C   UNL     1      45.576   4.364   8.563  0.00  0.00    +0.000 A 
BRANCH  17  24
ATOM     23  C   UNL     1      46.764   2.872   5.690  0.00  0.00    +0.000 C 
ATOM     24  O   UNL     1      47.143   3.280   7.002  0.00  0.00    +0.000 OA
ENDBRANCH  17  24
ENDBRANCH  15  21
ENDBRANCH  14  15
ENDBRANCH   1  14
TORSDOF 5
ENDMDL
MODEL 6
REMARK VINA RESULT:    -7.242      1.740      2.401
REMARK INTER + INTRA:         -10.228
REMARK INTER:                  -9.452
REMARK INTRA:                  -0.776
REMARK UNBOUND:                -0.868
REMARK  Name = 
REMARK  7 active torsions:
REMARK  status: ('A' for Active; 'I' for Inactive)
REMARK    1  A    between atoms: C_1  and  O_2
REMARK    2  A    between atoms: O_2  and  C_3
REMARK    3  A    between atoms: C_7  and  N_8
REMARK    4  A    between atoms: N_8  and  C_9
REMARK    5  A    between atoms: C_9  and  C_10
REMARK    6  A    between atoms: C_14  and  C_15
REMARK    7  A    between atoms: C_19  and  C_20
REMARK                            x       y       z     vdW  Elec       q    Type
REMARK                         _______ _______ _______ _____ _____    ______ ____
ROOT
ATOM      1  C   UNL     1      44.573   5.674  11.384  0.00  0.00    +0.000 A 
ATOM      2  C   UNL     1      43.477   5.018  11.955  0.00  0.00    +0.000 A 
ATOM      3  C   UNL     1      43.123   3.744  11.526  0.00  0.00    +0.000 A 
ATOM      4  C   UNL     1      43.847   3.125  10.504  0.00  0.00    +0.000 A 
ATOM      5  C   UNL     1      44.937   3.765   9.882  0.00  0.00    +0.000 A 
ATOM      6  C   UNL     1      45.311   5.027  10.376  0.00  0.00    +0.000 A 
ENDROOT
BRANCH   5   7
ATOM      7  C   UNL     1      45.605   3.189   8.698  0.00  0.00    +0.000 A 
ATOM      8  C   UNL     1      46.069   4.001   7.657  0.00  0.00    +0.000 A 
ATOM      9  C   UNL     1      46.769   3.434   6.601  0.00  0.00    +0.000 A 
ATOM     10  C   UNL     1      46.991   2.064   6.596  0.00  0.00    +0.000 A 
ATOM     11  C   UNL     1      46.509   1.305   7.655  0.00  0.00    +0.000 A 
ATOM     12  C   UNL     1      46.733  -0.178   7.687  0.00  0.00    +0.000 C 
ATOM     13  N   UNL     1      45.826   1.849   8.699  0.00  0.00    +0.000 NA
ENDBRANCH   5   7
BRANCH   1  14
ATOM     14  C   UNL     1      44.932   7.074  11.815  0.00  0.00    +0.000 C 
BRANCH  14  15
ATOM     15  N   UNL     1      46.376   7.240  11.844  0.00  0.00    +0.000 N 
ATOM     16  H   UNL     1      46.695   8.058  11.331  0.00  0.00    +0.000 HD
BRANCH  15  21
ATOM     17  C   UNL     1      47.960   5.629  14.817  0.00  0.00    +0.000 A 
ATOM     18  C   UNL     1      48.653   6.741  15.280  0.00  0.00    +0.000 A 
ATOM     19  N   UNL     1      48.616   7.959  14.697  0.00  0.00    +0.000 NA
ATOM     20  C   UNL     1      47.840   8.066  13.592  0.00  0.00    +0.000 A 
ATOM     21  C   UNL     1      47.071   7.036  13.039  0.00  0.00    +0.000 A 
ATOM     22  C   UNL     1      47.176   5.790  13.674  0.00  0.00    +0.000 A 
BRANCH  17  24
ATOM     23  C   UNL     1      47.216   4.264  16.612  0.00  0.00    +0.000 C 
ATOM     24  O   UNL     1      48.120   4.477  15.531  0.00  0.00    +0.000 OA
ENDBRANCH  17  24
ENDBRANCH  15  21
ENDBRANCH  14  15
ENDBRANCH   1  14
TORSDOF 5
ENDMDL
MODEL 7
REMARK VINA RESULT:    -6.988      2.242      2.750
REMARK INTER + INTRA:          -9.899
REMARK INTER:                  -9.372
REMARK INTRA:                  -0.527
REMARK UNBOUND:                -0.868
REMARK  Name = 
REMARK  7 active torsions:
REMARK  status: ('A' for Active; 'I' for Inactive)
REMARK    1  A    between atoms: C_1  and  O_2
REMARK    2  A    between atoms: O_2  and  C_3
REMARK    3  A    between atoms: C_7  and  N_8
REMARK    4  A    between atoms: N_8  and  C_9
REMARK    5  A    between atoms: C_9  and  C_10
REMARK    6  A    between atoms: C_14  and  C_15
REMARK    7  A    between atoms: C_19  and  C_20
REMARK                            x       y       z     vdW  Elec       q    Type
REMARK                         _______ _______ _______ _____ _____    ______ ____
ROOT
ATOM      1  C   UNL     1      44.809   5.110  12.177  0.00  0.00    +0.000 A 
ATOM      2  C   UNL     1      43.609   4.538  12.610  0.00  0.00    +0.000 A 
ATOM      3  C   UNL     1      43.069   3.449  11.934  0.00  0.00    +0.000 A 
ATOM      4  C   UNL     1      43.712   2.941  10.803  0.00  0.00    +0.000 A 
ATOM      5  C   UNL     1      44.905   3.511  10.317  0.00  0.00    +0.000 A 
ATOM      6  C   UNL     1      45.462   4.570  11.054  0.00  0.00    +0.000 A 
ENDROOT
BRANCH   5   7
ATOM      7  C   UNL     1      45.505   3.086   9.036  0.00  0.00    +0.000 A 
ATOM      8  C   UNL     1      45.811   4.012   8.033  0.00  0.00    +0.000 A 
ATOM      9  C   UNL     1      46.453   3.588   6.877  0.00  0.00    +0.000 A 
ATOM     10  C   UNL     1      46.774   2.245   6.737  0.00  0.00    +0.000 A 
ATOM     11  C   UNL     1      46.446   1.368   7.764  0.00  0.00    +0.000 A 
ATOM     12  C   UNL     1      46.781  -0.089   7.650  0.00  0.00    +0.000 C 
ATOM     13  N   UNL     1      45.823   1.771   8.904  0.00  0.00    +0.000 NA
ENDBRANCH   5   7
BRANCH   1  14
ATOM     14  C   UNL     1      45.374   6.319  12.881  0.00  0.00    +0.000 C 
BRANCH  14  15
ATOM     15  N   UNL     1      46.812   6.186  13.039  0.00  0.00    +0.000 N 
ATOM     16  H   UNL     1      47.327   7.004  12.722  0.00  0.00    +0.000 HD
BRANCH  15  21
ATOM     17  C   UNL     1      48.668   5.726  16.246  0.00  0.00    +0.000 A 
ATOM     18  C   UNL     1      48.104   4.511  16.612  0.00  0.00    +0.000 A 
ATOM     19  N   UNL     1      47.187   3.844  15.876  0.00  0.00    +0.000 NA
ATOM     20  C   UNL     1      46.821   4.429  14.711  0.00  0.00    +0.000 A 
ATOM     21  C   UNL     1      47.331   5.634  14.214  0.00  0.00    +0.000 A 
ATOM     22  C   UNL     1      48.256   6.289  15.038  0.00  0.00    +0.000 A 
BRANCH  17  24
ATOM     23  C   UNL     1      50.474   5.342  17.740  0.00  0.00    +0.000 C 
ATOM     24  O   UNL     1      49.576   6.257  17.117  0.00  0.00    +0.000 OA
ENDBRANCH  17  24
ENDBRANCH  15  21
ENDBRANCH  14  15
ENDBRANCH   1  14
TORSDOF 5
ENDMDL
MODEL 8
REMARK VINA RESULT:    -6.966      2.829      6.882
REMARK INTER + INTRA:          -9.870
REMARK INTER:                  -9.700
REMARK INTRA:                  -0.170
REMARK UNBOUND:                -0.868
REMARK  Name = 
REMARK  7 active torsions:
REMARK  status: ('A' for Active; 'I' for Inactive)
REMARK    1  A    between atoms: C_1  and  O_2
REMARK    2  A    between atoms: O_2  and  C_3
REMARK    3  A    between atoms: C_7  and  N_8
REMARK    4  A    between atoms: N_8  and  C_9
REMARK    5  A    between atoms: C_9  and  C_10
REMARK    6  A    between atoms: C_14  and  C_15
REMARK    7  A    between atoms: C_19  and  C_20
REMARK                            x       y       z     vdW  Elec       q    Type
REMARK                         _______ _______ _______ _____ _____    ______ ____
ROOT
ATOM      1  C   UNL     1      44.470   4.741  11.982  0.00  0.00    +0.000 A 
ATOM      2  C   UNL     1      44.406   6.003  11.383  0.00  0.00    +0.000 A 
ATOM      3  C   UNL     1      45.285   7.008  11.772  0.00  0.00    +0.000 A 
ATOM      4  C   UNL     1      46.218   6.766  12.783  0.00  0.00    +0.000 A 
ATOM      5  C   UNL     1      46.292   5.519  13.433  0.00  0.00    +0.000 A 
ATOM      6  C   UNL     1      45.434   4.502  12.979  0.00  0.00    +0.000 A 
ENDROOT
BRANCH   5   7
ATOM      7  C   UNL     1      47.162   5.304  14.607  0.00  0.00    +0.000 A 
ATOM      8  C   UNL     1      48.182   6.204  14.931  0.00  0.00    +0.000 A 
ATOM      9  C   UNL     1      48.924   6.016  16.090  0.00  0.00    +0.000 A 
ATOM     10  C   UNL     1      48.640   4.928  16.904  0.00  0.00    +0.000 A 
ATOM     11  C   UNL     1      47.617   4.065  16.534  0.00  0.00    +0.000 A 
ATOM     12  C   UNL     1      47.278   2.881  17.390  0.00  0.00    +0.000 C 
ATOM     13  N   UNL     1      46.878   4.241  15.404  0.00  0.00    +0.000 NA
ENDBRANCH   5   7
BRANCH   1  14
ATOM     14  C   UNL     1      43.489   3.663  11.594  0.00  0.00    +0.000 C 
BRANCH  14  15
ATOM     15  N   UNL     1      44.175   2.574  10.919  0.00  0.00    +0.000 N 
ATOM     16  H   UNL     1      43.649   1.703  10.928  0.00  0.00    +0.000 HD
BRANCH  15  21
ATOM     17  C   UNL     1      46.254   2.162   7.845  0.00  0.00    +0.000 A 
ATOM     18  C   UNL     1      45.856   3.325   7.198  0.00  0.00    +0.000 A 
ATOM     19  N   UNL     1      44.981   4.220   7.707  0.00  0.00    +0.000 NA
ATOM     20  C   UNL     1      44.483   3.932   8.933  0.00  0.00    +0.000 A 
ATOM     21  C   UNL     1      44.821   2.813   9.703  0.00  0.00    +0.000 A 
ATOM     22  C   UNL     1      45.710   1.909   9.105  0.00  0.00    +0.000 A 
BRANCH  17  24
ATOM     23  C   UNL     1      47.926   2.004   6.166  0.00  0.00    +0.000 C 
ATOM     24  O   UNL     1      47.144   1.371   7.175  0.00  0.00    +0.000 OA
ENDBRANCH  17  24
ENDBRANCH  15  21
ENDBRANCH  14  15
ENDBRANCH   1  14
TORSDOF 5
ENDMDL
MODEL 9
REMARK VINA RESULT:    -6.944      2.559      6.825
REMARK INTER + INTRA:          -9.842
REMARK INTER:                  -9.056
REMARK INTRA:                  -0.786
REMARK UNBOUND:                -0.868
REMARK  Name = 
REMARK  7 active torsions:
REMARK  status: ('A' for Active; 'I' for Inactive)
REMARK    1  A    between atoms: C_1  and  O_2
REMARK    2  A    between atoms: O_2  and  C_3
REMARK    3  A    between atoms: C_7  and  N_8
REMARK    4  A    between atoms: N_8  and  C_9
REMARK    5  A    between atoms: C_9  and  C_10
REMARK    6  A    between atoms: C_14  and  C_15
REMARK    7  A    between atoms: C_19  and  C_20
REMARK                            x       y       z     vdW  Elec       q    Type
REMARK                         _______ _______ _______ _____ _____    ______ ____
ROOT
ATOM      1  C   UNL     1      45.347   5.721  12.054  0.00  0.00    +0.000 A 
ATOM      2  C   UNL     1      45.182   4.635  12.921  0.00  0.00    +0.000 A 
ATOM      3  C   UNL     1      46.151   4.350  13.877  0.00  0.00    +0.000 A 
ATOM      4  C   UNL     1      47.305   5.133  13.956  0.00  0.00    +0.000 A 
ATOM      5  C   UNL     1      47.522   6.214  13.080  0.00  0.00    +0.000 A 
ATOM      6  C   UNL     1      46.500   6.519  12.164  0.00  0.00    +0.000 A 
ENDROOT
BRANCH   5   7
ATOM      7  C   UNL     1      48.805   6.946  13.049  0.00  0.00    +0.000 A 
ATOM      8  C   UNL     1      49.233   7.616  11.898  0.00  0.00    +0.000 A 
ATOM      9  C   UNL     1      50.402   8.364  11.932  0.00  0.00    +0.000 A 
ATOM     10  C   UNL     1      51.129   8.428  13.113  0.00  0.00    +0.000 A 
ATOM     11  C   UNL     1      50.658   7.744  14.226  0.00  0.00    +0.000 A 
ATOM     12  C   UNL     1      51.414   7.793  15.521  0.00  0.00    +0.000 C 
ATOM     13  N   UNL     1      49.511   7.011  14.208  0.00  0.00    +0.000 NA
ENDBRANCH   5   7
BRANCH   1  14
ATOM     14  C   UNL     1      44.319   6.005  10.987  0.00  0.00    +0.000 C 
BRANCH  14  15
ATOM     15  N   UNL     1      43.897   4.769  10.350  0.00  0.00    +0.000 N 
ATOM     16  H   UNL     1      42.948   4.810   9.987  0.00  0.00    +0.000 HD
BRANCH  15  21
ATOM     17  C   UNL     1      45.705   2.072   8.506  0.00  0.00    +0.000 A 
ATOM     18  C   UNL     1      46.415   2.890   7.636  0.00  0.00    +0.000 A 
ATOM     19  N   UNL     1      46.348   4.239   7.633  0.00  0.00    +0.000 NA
ATOM     20  C   UNL     1      45.527   4.796   8.554  0.00  0.00    +0.000 A 
ATOM     21  C   UNL     1      44.779   4.091   9.505  0.00  0.00    +0.000 A 
ATOM     22  C   UNL     1      44.870   2.694   9.436  0.00  0.00    +0.000 A 
BRANCH  17  24
ATOM     23  C   UNL     1      46.946   0.320   7.491  0.00  0.00    +0.000 C 
ATOM     24  O   UNL     1      45.893   0.728   8.361  0.00  0.00    +0.000 OA
ENDBRANCH  17  24
ENDBRANCH  15  21
ENDBRANCH  14  15
ENDBRANCH   1  14
TORSDOF 5
ENDMDL
