MODEL 1
REMARK VINA RESULT:    -9.081      0.000      0.000
REMARK INTER + INTRA:         -11.867
REMARK INTER:                 -11.205
REMARK INTRA:                  -0.663
REMARK UNBOUND:                -0.663
REMARK  Name = 
REMARK  4 active torsions:
REMARK  status: ('A' for Active; 'I' for Inactive)
REMARK    1  A    between atoms: C_2  and  C_4
REMARK    2  A    between atoms: C_8  and  C_9
REMARK    3  A    between atoms: C_9  and  N_10
REMARK    4  A    between atoms: C_15  and  N_16
REMARK                            x       y       z     vdW  Elec       q    Type
REMARK                         _______ _______ _______ _____ _____    ______ ____
ROOT
ATOM      1  C   UNL     1      44.112   6.200  11.373  0.00  0.00    +0.000 C 
ENDROOT
BRANCH   1   2
ATOM      2  N   UNL     1      43.797   4.880  10.846  0.00  0.00    +0.000 N 
ATOM      3  C   UNL     1      43.074   3.932  11.520  0.00  0.00    +0.000 A 
ATOM      4  N   UNL     1      43.316   2.727  11.059  0.00  0.00    +0.000 NA
ATOM      5  C   UNL     1      44.215   2.906  10.039  0.00  0.00    +0.000 A 
ATOM      6  C   UNL     1      44.932   1.948   9.314  0.00  0.00    +0.000 A 
ATOM      7  C   UNL     1      45.840   2.409   8.348  0.00  0.00    +0.000 A 
ATOM      8  C   UNL     1      45.945   3.772   8.024  0.00  0.00    +0.000 A 
ATOM      9  C   UNL     1      45.228   4.732   8.744  0.00  0.00    +0.000 A 
ATOM     10  C   UNL     1      44.428   4.261   9.792  0.00  0.00    +0.000 A 
BRANCH   7  11
ATOM     11  N   UNL     1      46.762   1.452   7.726  0.00  0.00    +0.000 N 
ATOM     12  O   UNL     1      46.606   0.250   7.980  0.00  0.00    +0.000 OA
ATOM     13  O   UNL     1      47.668   1.907   7.013  0.00  0.00    +0.000 OA
ENDBRANCH   7  11
ENDBRANCH   1   2
BRANCH   1  18
ATOM     14  C   UNL     1      46.961   5.140  13.693  0.00  0.00    +0.000 A 
ATOM     15  C   UNL     1      48.014   5.935  13.228  0.00  0.00    +0.000 A 
ATOM     16  C   UNL     1      47.792   6.851  12.197  0.00  0.00    +0.000 A 
ATOM     17  C   UNL     1      46.522   6.974  11.629  0.00  0.00    +0.000 A 
ATOM     18  C   UNL     1      45.458   6.167  12.067  0.00  0.00    +0.000 A 
ATOM     19  C   UNL     1      45.691   5.257  13.107  0.00  0.00    +0.000 A 
BRANCH  14  21
ATOM     20  N   UNL     1      46.818   4.490  16.041  0.00  0.00    +0.000 N 
ATOM     21  C   UNL     1      47.141   4.130  14.765  0.00  0.00    +0.000 C 
ATOM     22  O   UNL     1      47.532   2.996  14.512  0.00  0.00    +0.000 OA
ATOM     23  H   UNL     1      46.858   3.756  16.737  0.00  0.00    +0.000 HD
ATOM     24  H   UNL     1      46.282   5.316  16.258  0.00  0.00    +0.000 HD
ENDBRANCH  14  21
ENDBRANCH   1  18
TORSDOF 4
ENDMDL
MODEL 2
REMARK VINA RESULT:    -8.621      1.865      2.412
REMARK INTER + INTRA:         -11.299
REMARK INTER:                 -10.807
REMARK INTRA:                  -0.493
REMARK UNBOUND:                -0.663
REMARK  Name = 
REMARK  4 active torsions:
REMARK  status: ('A' for Active; 'I' for Inactive)
REMARK    1  A    between atoms: C_2  and  C_4
REMARK    2  A    between atoms: C_8  and  C_9
REMARK    3  A    between atoms: C_9  and  N_10
REMARK    4  A    between atoms: C_15  and  N_16
REMARK                            x       y       z     vdW  Elec       q    Type
REMARK                         _______ _______ _______ _____ _____    ______ ____
ROOT
ATOM      1  C   UNL     1      44.563   5.990  10.908  0.00  0.00    +0.000 C 
ENDROOT
BRANCH   1   2
ATOM      2  N   UNL     1      44.212   4.673  10.396  0.00  0.00    +0.000 N 
ATOM      3  C   UNL     1      43.425   3.770  11.062  0.00  0.00    +0.000 A 
ATOM      4  N   UNL     1      43.633   2.547  10.632  0.00  0.00    +0.000 NA
ATOM      5  C   UNL     1      44.575   2.668   9.643  0.00  0.00    +0.000 A 
ATOM      6  C   UNL     1      45.275   1.666   8.962  0.00  0.00    +0.000 A 
ATOM      7  C   UNL     1      46.235   2.069   8.021  0.00  0.00    +0.000 A 
ATOM      8  C   UNL     1      46.408   3.419   7.674  0.00  0.00    +0.000 A 
ATOM      9  C   UNL     1      45.707   4.423   8.350  0.00  0.00    +0.000 A 
ATOM     10  C   UNL     1      44.852   4.007   9.377  0.00  0.00    +0.000 A 
BRANCH   7  11
ATOM     11  N   UNL     1      47.137   1.062   7.451  0.00  0.00    +0.000 N 
ATOM     12  O   UNL     1      48.088   1.460   6.764  0.00  0.00    +0.000 OA
ATOM     13  O   UNL     1      46.871  -0.131   7.658  0.00  0.00    +0.000 OA
ENDBRANCH   7  11
ENDBRANCH   1   2
BRANCH   1  18
ATOM     14  C   UNL     1      47.932   6.633  12.598  0.00  0.00    +0.000 A 
ATOM     15  C   UNL     1      47.829   5.839  13.745  0.00  0.00    +0.000 A 
ATOM     16  C   UNL     1      46.691   5.054  13.948  0.00  0.00    +0.000 A 
ATOM     17  C   UNL     1      45.657   5.063  13.010  0.00  0.00    +0.000 A 
ATOM     18  C   UNL     1      45.732   5.873  11.864  0.00  0.00    +0.000 A 
ATOM     19  C   UNL     1      46.881   6.650  11.667  0.00  0.00    +0.000 A 
BRANCH  14  21
ATOM     20  N   UNL     1      50.165   7.420  13.191  0.00  0.00    +0.000 N 
ATOM     21  C   UNL     1      49.103   7.508  12.340  0.00  0.00    +0.000 C 
ATOM     22  O   UNL     1      49.133   8.261  11.373  0.00  0.00    +0.000 OA
ATOM     23  H   UNL     1      50.987   7.955  12.939  0.00  0.00    +0.000 HD
ATOM     24  H   UNL     1      50.280   6.664  13.848  0.00  0.00    +0.000 HD
ENDBRANCH  14  21
ENDBRANCH   1  18
TORSDOF 4
ENDMDL
MODEL 3
REMARK VINA RESULT:    -8.362      1.726      6.053
REMARK INTER + INTRA:         -10.980
REMARK INTER:                 -10.487
REMARK INTRA:                  -0.493
REMARK UNBOUND:                -0.663
REMARK  Name = 
REMARK  4 active torsions:
REMARK  status: ('A' for Active; 'I' for Inactive)
REMARK    1  A    between atoms: C_2  and  C_4
REMARK    2  A    between atoms: C_8  and  C_9
REMARK    3  A    between atoms: C_9  and  N_10
REMARK    4  A    between atoms: C_15  and  N_16
REMARK                            x       y       z     vdW  Elec       q    Type
REMARK                         _______ _______ _______ _____ _____    ______ ____
ROOT
ATOM      1  C   UNL     1      43.776   2.592  10.601  0.00  0.00    +0.000 C 
ENDROOT
BRANCH   1   2
ATOM      2  N   UNL     1      43.764   3.661  11.588  0.00  0.00    +0.000 N 
ATOM      3  C   UNL     1      42.868   4.698  11.593  0.00  0.00    +0.000 A 
ATOM      4  N   UNL     1      43.331   5.727  12.264  0.00  0.00    +0.000 NA
ATOM      5  C   UNL     1      44.562   5.334  12.722  0.00  0.00    +0.000 A 
ATOM      6  C   UNL     1      45.554   6.094  13.351  0.00  0.00    +0.000 A 
ATOM      7  C   UNL     1      46.759   5.450  13.673  0.00  0.00    +0.000 A 
ATOM      8  C   UNL     1      46.930   4.068  13.490  0.00  0.00    +0.000 A 
ATOM      9  C   UNL     1      45.939   3.305  12.864  0.00  0.00    +0.000 A 
ATOM     10  C   UNL     1      44.799   3.993  12.432  0.00  0.00    +0.000 A 
BRANCH   7  11
ATOM     11  N   UNL     1      47.895   6.258  14.130  0.00  0.00    +0.000 N 
ATOM     12  O   UNL     1      48.188   7.268  13.476  0.00  0.00    +0.000 OA
ATOM     13  O   UNL     1      48.522   5.859  15.123  0.00  0.00    +0.000 OA
ENDBRANCH   7  11
ENDBRANCH   1   2
BRANCH   1  18
ATOM     14  C   UNL     1      46.391   2.138   7.847  0.00  0.00    +0.000 A 
ATOM     15  C   UNL     1      46.501   3.439   7.346  0.00  0.00    +0.000 A 
ATOM     16  C   UNL     1      45.769   4.475   7.930  0.00  0.00    +0.000 A 
ATOM     17  C   UNL     1      44.926   4.214   9.012  0.00  0.00    +0.000 A 
ATOM     18  C   UNL     1      44.784   2.909   9.514  0.00  0.00    +0.000 A 
ATOM     19  C   UNL     1      45.529   1.880   8.925  0.00  0.00    +0.000 A 
BRANCH  14  21
ATOM     20  N   UNL     1      46.776  -0.264   7.656  0.00  0.00    +0.000 N 
ATOM     21  C   UNL     1      47.122   0.992   7.252  0.00  0.00    +0.000 C 
ATOM     22  O   UNL     1      47.984   1.162   6.397  0.00  0.00    +0.000 OA
ATOM     23  H   UNL     1      47.221  -1.031   7.166  0.00  0.00    +0.000 HD
ATOM     24  H   UNL     1      45.932  -0.462   8.170  0.00  0.00    +0.000 HD
ENDBRANCH  14  21
ENDBRANCH   1  18
TORSDOF 4
ENDMDL
MODEL 4
REMARK VINA RESULT:    -6.909      2.948      4.003
REMARK INTER + INTRA:          -9.188
REMARK INTER:                  -8.799
REMARK INTRA:                  -0.388
REMARK UNBOUND:                -0.663
REMARK  Name = 
REMARK  4 active torsions:
REMARK  status: ('A' for Active; 'I' for Inactive)
REMARK    1  A    between atoms: C_2  and  C_4
REMARK    2  A    between atoms: C_8  and  C_9
REMARK    3  A    between atoms: C_9  and  N_10
REMARK    4  A    between atoms: C_15  and  N_16
REMARK                            x       y       z     vdW  Elec       q    Type
REMARK                         _______ _______ _______ _____ _____    ______ ____
ROOT
ATOM      1  C   UNL     1      44.963   5.855  12.696  0.00  0.00    +0.000 C 
ENDROOT
BRANCH   1   2
ATOM      2  N   UNL     1      44.310   5.007  11.709  0.00  0.00    +0.000 N 
ATOM      3  C   UNL     1      43.336   4.089  12.004  0.00  0.00    +0.000 A 
ATOM      4  N   UNL     1      43.249   3.169  11.071  0.00  0.00    +0.000 NA
ATOM      5  C   UNL     1      44.188   3.515  10.134  0.00  0.00    +0.000 A 
ATOM      6  C   UNL     1      44.631   2.796   9.019  0.00  0.00    +0.000 A 
ATOM      7  C   UNL     1      45.654   3.363   8.245  0.00  0.00    +0.000 A 
ATOM      8  C   UNL     1      46.139   4.657   8.495  0.00  0.00    +0.000 A 
ATOM      9  C   UNL     1      45.697   5.381   9.607  0.00  0.00    +0.000 A 
ATOM     10  C   UNL     1      44.772   4.742  10.441  0.00  0.00    +0.000 A 
BRANCH   7  11
ATOM     11  N   UNL     1      46.292   2.548   7.205  0.00  0.00    +0.000 N 
ATOM     12  O   UNL     1      46.694   1.419   7.519  0.00  0.00    +0.000 OA
ATOM     13  O   UNL     1      46.427   3.053   6.080  0.00  0.00    +0.000 OA
ENDBRANCH   7  11
ENDBRANCH   1   2
BRANCH   1  18
ATOM     14  C   UNL     1      43.914   9.195  11.156  0.00  0.00    +0.000 A 
ATOM     15  C   UNL     1      45.030   9.993  11.427  0.00  0.00    +0.000 A 
ATOM     16  C   UNL     1      46.145   9.439  12.063  0.00  0.00    +0.000 A 
ATOM     17  C   UNL     1      46.145   8.092  12.429  0.00  0.00    +0.000 A 
ATOM     18  C   UNL     1      45.024   7.281  12.187  0.00  0.00    +0.000 A 
ATOM     19  C   UNL     1      43.915   7.845  11.542  0.00  0.00    +0.000 A 
BRANCH  14  21
ATOM     20  N   UNL     1      41.491   9.483  11.107  0.00  0.00    +0.000 N 
ATOM     21  C   UNL     1      42.691   9.731  10.509  0.00  0.00    +0.000 C 
ATOM     22  O   UNL     1      42.756  10.407   9.488  0.00  0.00    +0.000 OA
ATOM     23  H   UNL     1      40.684   9.939  10.700  0.00  0.00    +0.000 HD
ATOM     24  H   UNL     1      41.410   9.140  12.052  0.00  0.00    +0.000 HD
ENDBRANCH  14  21
ENDBRANCH   1  18
TORSDOF 4
ENDMDL
MODEL 5
REMARK VINA RESULT:    -6.875      2.532      6.537
REMARK INTER + INTRA:          -9.145
REMARK INTER:                  -8.553
REMARK INTRA:                  -0.592
REMARK UNBOUND:                -0.663
REMARK  Name = 
REMARK  4 active torsions:
REMARK  status: ('A' for Active; 'I' for Inactive)
REMARK    1  A    between atoms: C_2  and  C_4
REMARK    2  A    between atoms: C_8  and  C_9
REMARK    3  A    between atoms: C_9  and  N_10
REMARK    4  A    between atoms: C_15  and  N_16
REMARK                            x       y       z     vdW  Elec       q    Type
REMARK                         _______ _______ _______ _____ _____    ______ ____
ROOT
ATOM      1  C   UNL     1      43.925   4.574   9.098  0.00  0.00    +0.000 C 
ENDROOT
BRANCH   1   2
ATOM      2  N   UNL     1      44.136   4.749  10.527  0.00  0.00    +0.000 N 
ATOM      3  C   UNL     1      43.188   4.497  11.484  0.00  0.00    +0.000 A 
ATOM      4  N   UNL     1      43.445   5.146  12.596  0.00  0.00    +0.000 NA
ATOM      5  C   UNL     1      44.610   5.828  12.352  0.00  0.00    +0.000 A 
ATOM      6  C   UNL     1      45.244   6.800  13.134  0.00  0.00    +0.000 A 
ATOM      7  C   UNL     1      46.411   7.386  12.621  0.00  0.00    +0.000 A 
ATOM      8  C   UNL     1      47.000   6.937  11.427  0.00  0.00    +0.000 A 
ATOM      9  C   UNL     1      46.371   5.964  10.645  0.00  0.00    +0.000 A 
ATOM     10  C   UNL     1      45.140   5.487  11.110  0.00  0.00    +0.000 A 
BRANCH   7  11
ATOM     11  N   UNL     1      46.979   8.554  13.304  0.00  0.00    +0.000 N 
ATOM     12  O   UNL     1      47.572   8.367  14.375  0.00  0.00    +0.000 OA
ATOM     13  O   UNL     1      46.796   9.667  12.788  0.00  0.00    +0.000 OA
ENDBRANCH   7  11
ENDBRANCH   1   2
BRANCH   1  18
ATOM     14  C   UNL     1      46.486   2.505   7.150  0.00  0.00    +0.000 A 
ATOM     15  C   UNL     1      46.407   1.272   7.805  0.00  0.00    +0.000 A 
ATOM     16  C   UNL     1      45.491   1.091   8.843  0.00  0.00    +0.000 A 
ATOM     17  C   UNL     1      44.654   2.140   9.230  0.00  0.00    +0.000 A 
ATOM     18  C   UNL     1      44.735   3.393   8.601  0.00  0.00    +0.000 A 
ATOM     19  C   UNL     1      45.653   3.561   7.555  0.00  0.00    +0.000 A 
BRANCH  14  21
ATOM     20  N   UNL     1      48.782   2.593   6.329  0.00  0.00    +0.000 N 
ATOM     21  C   UNL     1      47.457   2.767   6.059  0.00  0.00    +0.000 C 
ATOM     22  O   UNL     1      47.081   3.093   4.938  0.00  0.00    +0.000 OA
ATOM     23  H   UNL     1      49.416   2.684   5.544  0.00  0.00    +0.000 HD
ATOM     24  H   UNL     1      49.116   2.110   7.149  0.00  0.00    +0.000 HD
ENDBRANCH  14  21
ENDBRANCH   1  18
TORSDOF 4
ENDMDL
MODEL 6
REMARK VINA RESULT:    -6.272      3.734      5.572
REMARK INTER + INTRA:          -8.401
REMARK INTER:                  -7.838
REMARK INTRA:                  -0.563
REMARK UNBOUND:                -0.663
REMARK  Name = 
REMARK  4 active torsions:
REMARK  status: ('A' for Active; 'I' for Inactive)
REMARK    1  A    between atoms: C_2  and  C_4
REMARK    2  A    between atoms: C_8  and  C_9
REMARK    3  A    between atoms: C_9  and  N_10
REMARK    4  A    between atoms: C_15  and  N_16
REMARK                            x       y       z     vdW  Elec       q    Type
REMARK                         _______ _______ _______ _____ _____    ______ ____
ROOT
ATOM      1  C   UNL     1      49.205   7.023  14.579  0.00  0.00    +0.000 C 
ENDROOT
BRANCH   1   2
ATOM      2  N   UNL     1      48.041   7.280  13.744  0.00  0.00    +0.000 N 
ATOM      3  C   UNL     1      47.484   8.518  13.557  0.00  0.00    +0.000 A 
ATOM      4  N   UNL     1      46.233   8.426  13.167  0.00  0.00    +0.000 NA
ATOM      5  C   UNL     1      45.981   7.081  13.084  0.00  0.00    +0.000 A 
ATOM      6  C   UNL     1      44.764   6.422  12.874  0.00  0.00    +0.000 A 
ATOM      7  C   UNL     1      44.775   5.019  12.888  0.00  0.00    +0.000 A 
ATOM      8  C   UNL     1      45.972   4.290  12.983  0.00  0.00    +0.000 A 
ATOM      9  C   UNL     1      47.190   4.945  13.190  0.00  0.00    +0.000 A 
ATOM     10  C   UNL     1      47.139   6.339  13.305  0.00  0.00    +0.000 A 
BRANCH   7  11
ATOM     11  N   UNL     1      43.497   4.299  12.890  0.00  0.00    +0.000 N 
ATOM     12  O   UNL     1      42.460   4.960  12.743  0.00  0.00    +0.000 OA
ATOM     13  O   UNL     1      43.527   3.074  13.080  0.00  0.00    +0.000 OA
ENDBRANCH   7  11
ENDBRANCH   1   2
BRANCH   1  18
ATOM     14  C   UNL     1      48.025   5.137  17.691  0.00  0.00    +0.000 A 
ATOM     15  C   UNL     1      48.147   6.119  18.679  0.00  0.00    +0.000 A 
ATOM     16  C   UNL     1      48.563   7.408  18.333  0.00  0.00    +0.000 A 
ATOM     17  C   UNL     1      48.858   7.716  17.003  0.00  0.00    +0.000 A 
ATOM     18  C   UNL     1      48.763   6.736  16.000  0.00  0.00    +0.000 A 
ATOM     19  C   UNL     1      48.339   5.449  16.358  0.00  0.00    +0.000 A 
BRANCH  14  21
ATOM     20  N   UNL     1      48.288   3.086  18.986  0.00  0.00    +0.000 N 
ATOM     21  C   UNL     1      47.615   3.745  18.000  0.00  0.00    +0.000 C 
ATOM     22  O   UNL     1      46.678   3.213  17.415  0.00  0.00    +0.000 OA
ATOM     23  H   UNL     1      47.928   2.175  19.243  0.00  0.00    +0.000 HD
ATOM     24  H   UNL     1      48.897   3.552  19.640  0.00  0.00    +0.000 HD
ENDBRANCH  14  21
ENDBRANCH   1  18
TORSDOF 4
ENDMDL
MODEL 7
REMARK VINA RESULT:    -6.214      3.308      6.800
REMARK INTER + INTRA:          -8.329
REMARK INTER:                  -7.724
REMARK INTRA:                  -0.605
REMARK UNBOUND:                -0.663
REMARK  Name = 
REMARK  4 active torsions:
REMARK  status: ('A' for Active; 'I' for Inactive)
REMARK    1  A    between atoms: C_2  and  C_4
REMARK    2  A    between atoms: C_8  and  C_9
REMARK    3  A    between atoms: C_9  and  N_10
REMARK    4  A    between atoms: C_15  and  N_16
REMARK                            x       y       z     vdW  Elec       q    Type
REMARK                         _______ _______ _______ _____ _____    ______ ____
ROOT
ATOM      1  C   UNL     1      45.217   6.231  12.906  0.00  0.00    +0.000 C 
ENDROOT
BRANCH   1   2
ATOM      2  N   UNL     1      46.606   6.015  13.283  0.00  0.00    +0.000 N 
ATOM      3  C   UNL     1      47.006   5.293  14.377  0.00  0.00    +0.000 A 
ATOM      4  N   UNL     1      48.221   5.622  14.749  0.00  0.00    +0.000 NA
ATOM      5  C   UNL     1      48.625   6.578  13.853  0.00  0.00    +0.000 A 
ATOM      6  C   UNL     1      49.767   7.386  13.878  0.00  0.00    +0.000 A 
ATOM      7  C   UNL     1      49.915   8.334  12.854  0.00  0.00    +0.000 A 
ATOM      8  C   UNL     1      49.023   8.397  11.771  0.00  0.00    +0.000 A 
ATOM      9  C   UNL     1      47.882   7.589  11.741  0.00  0.00    +0.000 A 
ATOM     10  C   UNL     1      47.685   6.743  12.838  0.00  0.00    +0.000 A 
BRANCH   7  11
ATOM     11  N   UNL     1      50.977   9.340  12.965  0.00  0.00    +0.000 N 
ATOM     12  O   UNL     1      52.150   8.942  12.991  0.00  0.00    +0.000 OA
ATOM     13  O   UNL     1      50.636  10.528  13.067  0.00  0.00    +0.000 OA
ENDBRANCH   7  11
ENDBRANCH   1   2
BRANCH   1  18
ATOM     14  C   UNL     1      44.769   3.997   9.835  0.00  0.00    +0.000 A 
ATOM     15  C   UNL     1      44.072   2.911  10.375  0.00  0.00    +0.000 A 
ATOM     16  C   UNL     1      43.701   2.922  11.722  0.00  0.00    +0.000 A 
ATOM     17  C   UNL     1      44.026   4.014  12.530  0.00  0.00    +0.000 A 
ATOM     18  C   UNL     1      44.746   5.103  12.011  0.00  0.00    +0.000 A 
ATOM     19  C   UNL     1      45.106   5.084  10.657  0.00  0.00    +0.000 A 
BRANCH  14  21
ATOM     20  N   UNL     1      44.529   3.272   7.517  0.00  0.00    +0.000 N 
ATOM     21  C   UNL     1      45.213   4.031   8.420  0.00  0.00    +0.000 C 
ATOM     22  O   UNL     1      46.143   4.747   8.062  0.00  0.00    +0.000 OA
ATOM     23  H   UNL     1      44.790   3.386   6.545  0.00  0.00    +0.000 HD
ATOM     24  H   UNL     1      43.631   2.859   7.717  0.00  0.00    +0.000 HD
ENDBRANCH  14  21
ENDBRANCH   1  18
TORSDOF 4
ENDMDL
