MODEL 1
REMARK VINA RESULT:    -8.143      0.000      0.000
REMARK INTER + INTRA:         -11.445
REMARK INTER:                 -11.000
REMARK INTRA:                  -0.446
REMARK UNBOUND:                -0.446
REMARK  Name = 
REMARK  6 active torsions:
REMARK  status: ('A' for Active; 'I' for Inactive)
REMARK    1  A    between atoms: C_2  and  C_3
REMARK    2  A    between atoms: N_7  and  C_8
REMARK    3  A    between atoms: C_8  and  C_9
REMARK    4  A    between atoms: C_13  and  C_14
REMARK    5  A    between atoms: C_18  and  O_19
REMARK    6  A    between atoms: O_19  and  C_20
REMARK                            x       y       z     vdW  Elec       q    Type
REMARK                         _______ _______ _______ _____ _____    ______ ____
ROOT
ATOM      1  C   UNL     1      45.451   5.206  11.739  0.00  0.00    +0.000 A 
ATOM      2  C   UNL     1      46.146   6.283  11.176  0.00  0.00    +0.000 A 
ATOM      3  C   UNL     1      47.255   6.824  11.823  0.00  0.00    +0.000 A 
ATOM      4  C   UNL     1      47.692   6.282  13.034  0.00  0.00    +0.000 A 
ATOM      5  C   UNL     1      47.069   5.155  13.595  0.00  0.00    +0.000 A 
ATOM      6  C   UNL     1      45.987   4.604  12.895  0.00  0.00    +0.000 A 
ENDROOT
BRANCH   5   7
ATOM      7  C   UNL     1      47.419   4.650  14.938  0.00  0.00    +0.000 A 
ATOM      8  C   UNL     1      47.461   3.274  15.191  0.00  0.00    +0.000 A 
ATOM      9  N   UNL     1      47.827   2.711  16.364  0.00  0.00    +0.000 NA
ATOM     10  C   UNL     1      48.194   3.559  17.347  0.00  0.00    +0.000 A 
ATOM     11  C   UNL     1      48.232   4.942  17.211  0.00  0.00    +0.000 A 
ATOM     12  C   UNL     1      47.816   5.489  15.996  0.00  0.00    +0.000 A 
BRANCH  11  13
ATOM     13  O   UNL     1      48.654   5.633  18.308  0.00  0.00    +0.000 OA
BRANCH  13  14
ATOM     14  C   UNL     1      47.645   6.304  19.041  0.00  0.00    +0.000 C 
ATOM     15  F   UNL     1      47.460   7.533  18.502  0.00  0.00    +0.000 F 
ATOM     16  F   UNL     1      46.490   5.616  18.856  0.00  0.00    +0.000 F 
ENDBRANCH  13  14
ENDBRANCH  11  13
ENDBRANCH   5   7
BRANCH   1  17
ATOM     17  C   UNL     1      44.060   4.800  11.269  0.00  0.00    +0.000 C 
ATOM     18  C   UNL     1      42.963   5.181  12.266  0.00  0.00    +0.000 C 
ATOM     19  C   UNL     1      43.035   5.877  10.949  0.00  0.00    +0.000 C 
BRANCH  17  24
ATOM     20  C   UNL     1      46.511   2.494   7.534  0.00  0.00    +0.000 A 
ATOM     21  C   UNL     1      45.988   1.568   8.404  0.00  0.00    +0.000 A 
ATOM     22  N   UNL     1      45.150   1.888   9.415  0.00  0.00    +0.000 NA
ATOM     23  C   UNL     1      44.833   3.187   9.563  0.00  0.00    +0.000 A 
ATOM     24  N   UNL     1      43.980   3.487  10.623  0.00  0.00    +0.000 N 
ATOM     25  N   UNL     1      45.289   4.153   8.749  0.00  0.00    +0.000 NA
ATOM     26  C   UNL     1      46.114   3.789   7.750  0.00  0.00    +0.000 A 
ATOM     27  H   UNL     1      43.957   2.661  11.210  0.00  0.00    +0.000 HD
BRANCH  20  29
ATOM     28  N   UNL     1      48.146   1.848   5.649  0.00  0.00    +0.000 NA
ATOM     29  C   UNL     1      47.409   2.140   6.493  0.00  0.00    +0.000 C 
ENDBRANCH  20  29
ENDBRANCH  17  24
ENDBRANCH   1  17
TORSDOF 6
ENDMDL
MODEL 2
REMARK VINA RESULT:    -8.059      2.042      2.400
REMARK INTER + INTRA:         -11.331
REMARK INTER:                 -10.767
REMARK INTRA:                  -0.565
REMARK UNBOUND:                -0.446
REMARK  Name = 
REMARK  6 active torsions:
REMARK  status: ('A' for Active; 'I' for Inactive)
REMARK    1  A    between atoms: C_2  and  C_3
REMARK    2  A    between atoms: N_7  and  C_8
REMARK    3  A    between atoms: C_8  and  C_9
REMARK    4  A    between atoms: C_13  and  C_14
REMARK    5  A    between atoms: C_18  and  O_19
REMARK    6  A    between atoms: O_19  and  C_20
REMARK                            x       y       z     vdW  Elec       q    Type
REMARK                         _______ _______ _______ _____ _____    ______ ____
ROOT
ATOM      1  C   UNL     1      45.357   5.105  11.868  0.00  0.00    +0.000 A 
ATOM      2  C   UNL     1      46.044   6.255  11.462  0.00  0.00    +0.000 A 
ATOM      3  C   UNL     1      47.136   6.722  12.191  0.00  0.00    +0.000 A 
ATOM      4  C   UNL     1      47.563   6.032  13.328  0.00  0.00    +0.000 A 
ATOM      5  C   UNL     1      46.949   4.833  13.728  0.00  0.00    +0.000 A 
ATOM      6  C   UNL     1      45.885   4.365  12.945  0.00  0.00    +0.000 A 
ENDROOT
BRANCH   5   7
ATOM      7  C   UNL     1      47.287   4.162  14.999  0.00  0.00    +0.000 A 
ATOM      8  C   UNL     1      46.541   4.417  16.157  0.00  0.00    +0.000 A 
ATOM      9  N   UNL     1      46.729   3.811  17.351  0.00  0.00    +0.000 NA
ATOM     10  C   UNL     1      47.704   2.881  17.403  0.00  0.00    +0.000 A 
ATOM     11  C   UNL     1      48.489   2.510  16.318  0.00  0.00    +0.000 A 
ATOM     12  C   UNL     1      48.288   3.179  15.109  0.00  0.00    +0.000 A 
BRANCH  11  13
ATOM     13  O   UNL     1      49.408   1.532  16.558  0.00  0.00    +0.000 OA
BRANCH  13  14
ATOM     14  C   UNL     1      50.472   1.884  17.424  0.00  0.00    +0.000 C 
ATOM     15  F   UNL     1      51.500   1.025  17.219  0.00  0.00    +0.000 F 
ATOM     16  F   UNL     1      50.906   3.113  17.048  0.00  0.00    +0.000 F 
ENDBRANCH  13  14
ENDBRANCH  11  13
ENDBRANCH   5   7
BRANCH   1  17
ATOM     17  C   UNL     1      43.979   4.746  11.328  0.00  0.00    +0.000 C 
ATOM     18  C   UNL     1      42.849   5.120  12.290  0.00  0.00    +0.000 C 
ATOM     19  C   UNL     1      42.992   5.856  11.000  0.00  0.00    +0.000 C 
BRANCH  17  24
ATOM     20  C   UNL     1      46.498   2.529   7.585  0.00  0.00    +0.000 A 
ATOM     21  C   UNL     1      45.939   1.582   8.409  0.00  0.00    +0.000 A 
ATOM     22  N   UNL     1      45.079   1.881   9.408  0.00  0.00    +0.000 NA
ATOM     23  C   UNL     1      44.775   3.179   9.590  0.00  0.00    +0.000 A 
ATOM     24  N   UNL     1      43.898   3.456  10.637  0.00  0.00    +0.000 N 
ATOM     25  N   UNL     1      45.267   4.165   8.822  0.00  0.00    +0.000 NA
ATOM     26  C   UNL     1      46.114   3.821   7.833  0.00  0.00    +0.000 A 
ATOM     27  H   UNL     1      43.848   2.612  11.195  0.00  0.00    +0.000 HD
BRANCH  20  29
ATOM     28  N   UNL     1      48.176   1.923   5.724  0.00  0.00    +0.000 NA
ATOM     29  C   UNL     1      47.419   2.196   6.557  0.00  0.00    +0.000 C 
ENDBRANCH  20  29
ENDBRANCH  17  24
ENDBRANCH   1  17
TORSDOF 6
ENDMDL
MODEL 3
REMARK VINA RESULT:    -7.907      3.750      4.862
REMARK INTER + INTRA:         -11.126
REMARK INTER:                 -10.256
REMARK INTRA:                  -0.870
REMARK UNBOUND:                -0.446
REMARK  Name = 
REMARK  6 active torsions:
REMARK  status: ('A' for Active; 'I' for Inactive)
REMARK    1  A    between atoms: C_2  and  C_3
REMARK    2  A    between atoms: N_7  and  C_8
REMARK    3  A    between atoms: C_8  and  C_9
REMARK    4  A    between atoms: C_13  and  C_14
REMARK    5  A    between atoms: C_18  and  O_19
REMARK    6  A    between atoms: O_19  and  C_20
REMARK                            x       y       z     vdW  Elec       q    Type
REMARK                         _______ _______ _______ _____ _____    ______ ____
ROOT
ATOM      1  C   UNL     1      44.963   5.079  12.321  0.00  0.00    +0.000 A 
ATOM      2  C   UNL     1      45.440   4.032  13.118  0.00  0.00    +0.000 A 
ATOM      3  C   UNL     1      46.733   4.069  13.635  0.00  0.00    +0.000 A 
ATOM      4  C   UNL     1      47.560   5.165  13.374  0.00  0.00    +0.000 A 
ATOM      5  C   UNL     1      47.095   6.270  12.643  0.00  0.00    +0.000 A 
ATOM      6  C   UNL     1      45.774   6.223  12.177  0.00  0.00    +0.000 A 
ENDROOT
BRANCH   5   7
ATOM      7  C   UNL     1      47.988   7.373  12.233  0.00  0.00    +0.000 A 
ATOM      8  C   UNL     1      47.490   8.674  12.090  0.00  0.00    +0.000 A 
ATOM      9  N   UNL     1      48.233   9.760  11.780  0.00  0.00    +0.000 NA
ATOM     10  C   UNL     1      49.556   9.554  11.619  0.00  0.00    +0.000 A 
ATOM     11  C   UNL     1      50.179   8.321  11.770  0.00  0.00    +0.000 A 
ATOM     12  C   UNL     1      49.375   7.216  12.059  0.00  0.00    +0.000 A 
BRANCH  11  13
ATOM     13  O   UNL     1      51.531   8.314  11.592  0.00  0.00    +0.000 OA
BRANCH  13  14
ATOM     14  C   UNL     1      51.980   7.989  10.289  0.00  0.00    +0.000 C 
ATOM     15  F   UNL     1      53.195   8.557  10.094  0.00  0.00    +0.000 F 
ATOM     16  F   UNL     1      52.163   6.646  10.249  0.00  0.00    +0.000 F 
ENDBRANCH  13  14
ENDBRANCH  11  13
ENDBRANCH   5   7
BRANCH   1  17
ATOM     17  C   UNL     1      43.714   4.944  11.461  0.00  0.00    +0.000 C 
ATOM     18  C   UNL     1      42.462   5.504  12.139  0.00  0.00    +0.000 C 
ATOM     19  C   UNL     1      43.023   6.195  10.942  0.00  0.00    +0.000 C 
BRANCH  17  24
ATOM     20  C   UNL     1      46.333   2.643   7.838  0.00  0.00    +0.000 A 
ATOM     21  C   UNL     1      45.657   1.719   8.597  0.00  0.00    +0.000 A 
ATOM     22  N   UNL     1      44.751   2.053   9.544  0.00  0.00    +0.000 NA
ATOM     23  C   UNL     1      44.522   3.364   9.739  0.00  0.00    +0.000 A 
ATOM     24  N   UNL     1      43.596   3.677  10.731  0.00  0.00    +0.000 N 
ATOM     25  N   UNL     1      45.130   4.331   9.032  0.00  0.00    +0.000 NA
ATOM     26  C   UNL     1      46.019   3.952   8.094  0.00  0.00    +0.000 A 
ATOM     27  H   UNL     1      43.451   2.827  11.263  0.00  0.00    +0.000 HD
BRANCH  20  29
ATOM     28  N   UNL     1      48.091   1.967   6.078  0.00  0.00    +0.000 NA
ATOM     29  C   UNL     1      47.298   2.270   6.866  0.00  0.00    +0.000 C 
ENDBRANCH  20  29
ENDBRANCH  17  24
ENDBRANCH   1  17
TORSDOF 6
ENDMDL
MODEL 4
REMARK VINA RESULT:    -7.702      4.799      8.824
REMARK INTER + INTRA:         -10.849
REMARK INTER:                 -10.133
REMARK INTRA:                  -0.716
REMARK UNBOUND:                -0.446
REMARK  Name = 
REMARK  6 active torsions:
REMARK  status: ('A' for Active; 'I' for Inactive)
REMARK    1  A    between atoms: C_2  and  C_3
REMARK    2  A    between atoms: N_7  and  C_8
REMARK    3  A    between atoms: C_8  and  C_9
REMARK    4  A    between atoms: C_13  and  C_14
REMARK    5  A    between atoms: C_18  and  O_19
REMARK    6  A    between atoms: O_19  and  C_20
REMARK                            x       y       z     vdW  Elec       q    Type
REMARK                         _______ _______ _______ _____ _____    ______ ____
ROOT
ATOM      1  C   UNL     1      47.439   7.731  12.501  0.00  0.00    +0.000 A 
ATOM      2  C   UNL     1      46.531   8.786  12.656  0.00  0.00    +0.000 A 
ATOM      3  C   UNL     1      45.235   8.682  12.154  0.00  0.00    +0.000 A 
ATOM      4  C   UNL     1      44.828   7.514  11.505  0.00  0.00    +0.000 A 
ATOM      5  C   UNL     1      45.683   6.405  11.394  0.00  0.00    +0.000 A 
ATOM      6  C   UNL     1      46.963   6.523  11.952  0.00  0.00    +0.000 A 
ENDROOT
BRANCH   5   7
ATOM      7  C   UNL     1      45.329   5.216  10.593  0.00  0.00    +0.000 A 
ATOM      8  C   UNL     1      44.548   4.194  11.146  0.00  0.00    +0.000 A 
ATOM      9  N   UNL     1      44.120   3.098  10.481  0.00  0.00    +0.000 NA
ATOM     10  C   UNL     1      44.468   3.012   9.180  0.00  0.00    +0.000 A 
ATOM     11  C   UNL     1      45.207   3.976   8.505  0.00  0.00    +0.000 A 
ATOM     12  C   UNL     1      45.659   5.079   9.232  0.00  0.00    +0.000 A 
BRANCH  11  13
ATOM     13  O   UNL     1      45.439   3.728   7.185  0.00  0.00    +0.000 OA
BRANCH  13  14
ATOM     14  C   UNL     1      46.786   3.466   6.834  0.00  0.00    +0.000 C 
ATOM     15  F   UNL     1      47.205   2.368   7.508  0.00  0.00    +0.000 F 
ATOM     16  F   UNL     1      46.804   3.148   5.515  0.00  0.00    +0.000 F 
ENDBRANCH  13  14
ENDBRANCH  11  13
ENDBRANCH   5   7
BRANCH   1  17
ATOM     17  C   UNL     1      48.937   7.909  12.714  0.00  0.00    +0.000 C 
ATOM     18  C   UNL     1      49.692   8.189  11.413  0.00  0.00    +0.000 C 
ATOM     19  C   UNL     1      49.575   9.262  12.442  0.00  0.00    +0.000 C 
BRANCH  17  24
ATOM     20  C   UNL     1      48.626   7.214  17.683  0.00  0.00    +0.000 A 
ATOM     21  C   UNL     1      48.982   6.043  17.060  0.00  0.00    +0.000 A 
ATOM     22  N   UNL     1      49.291   5.964  15.746  0.00  0.00    +0.000 NA
ATOM     23  C   UNL     1      49.233   7.102  15.032  0.00  0.00    +0.000 A 
ATOM     24  N   UNL     1      49.542   6.985  13.678  0.00  0.00    +0.000 N 
ATOM     25  N   UNL     1      48.907   8.291  15.565  0.00  0.00    +0.000 NA
ATOM     26  C   UNL     1      48.614   8.325  16.879  0.00  0.00    +0.000 A 
ATOM     27  H   UNL     1      49.529   5.994  13.469  0.00  0.00    +0.000 HD
BRANCH  20  29
ATOM     28  N   UNL     1      48.008   7.316  20.184  0.00  0.00    +0.000 NA
ATOM     29  C   UNL     1      48.281   7.271  19.059  0.00  0.00    +0.000 C 
ENDBRANCH  20  29
ENDBRANCH  17  24
ENDBRANCH   1  17
TORSDOF 6
ENDMDL
MODEL 5
REMARK VINA RESULT:    -7.601      3.355      4.346
REMARK INTER + INTRA:         -10.713
REMARK INTER:                  -9.969
REMARK INTRA:                  -0.744
REMARK UNBOUND:                -0.446
REMARK  Name = 
REMARK  6 active torsions:
REMARK  status: ('A' for Active; 'I' for Inactive)
REMARK    1  A    between atoms: C_2  and  C_3
REMARK    2  A    between atoms: N_7  and  C_8
REMARK    3  A    between atoms: C_8  and  C_9
REMARK    4  A    between atoms: C_13  and  C_14
REMARK    5  A    between atoms: C_18  and  O_19
REMARK    6  A    between atoms: O_19  and  C_20
REMARK                            x       y       z     vdW  Elec       q    Type
REMARK                         _______ _______ _______ _____ _____    ______ ____
ROOT
ATOM      1  C   UNL     1      45.040   4.817  12.286  0.00  0.00    +0.000 A 
ATOM      2  C   UNL     1      45.470   3.650  12.928  0.00  0.00    +0.000 A 
ATOM      3  C   UNL     1      46.702   3.613  13.578  0.00  0.00    +0.000 A 
ATOM      4  C   UNL     1      47.511   4.751  13.606  0.00  0.00    +0.000 A 
ATOM      5  C   UNL     1      47.085   5.964  13.039  0.00  0.00    +0.000 A 
ATOM      6  C   UNL     1      45.820   5.981  12.436  0.00  0.00    +0.000 A 
ENDROOT
BRANCH   5   7
ATOM      7  C   UNL     1      47.975   7.137  12.931  0.00  0.00    +0.000 A 
ATOM      8  C   UNL     1      49.152   7.208  13.686  0.00  0.00    +0.000 A 
ATOM      9  N   UNL     1      50.062   8.206  13.614  0.00  0.00    +0.000 NA
ATOM     10  C   UNL     1      49.804   9.189  12.727  0.00  0.00    +0.000 A 
ATOM     11  C   UNL     1      48.692   9.217  11.894  0.00  0.00    +0.000 A 
ATOM     12  C   UNL     1      47.758   8.186  12.018  0.00  0.00    +0.000 A 
BRANCH  11  13
ATOM     13  O   UNL     1      48.615  10.280  11.044  0.00  0.00    +0.000 OA
BRANCH  13  14
ATOM     14  C   UNL     1      47.718  11.308  11.423  0.00  0.00    +0.000 C 
ATOM     15  F   UNL     1      46.476  10.984  10.986  0.00  0.00    +0.000 F 
ATOM     16  F   UNL     1      47.667  11.319  12.778  0.00  0.00    +0.000 F 
ENDBRANCH  13  14
ENDBRANCH  11  13
ENDBRANCH   5   7
BRANCH   1  17
ATOM     17  C   UNL     1      43.889   4.820  11.287  0.00  0.00    +0.000 C 
ATOM     18  C   UNL     1      42.625   5.479  11.841  0.00  0.00    +0.000 C 
ATOM     19  C   UNL     1      43.379   6.143  10.738  0.00  0.00    +0.000 C 
BRANCH  17  24
ATOM     20  C   UNL     1      46.536   2.529   7.679  0.00  0.00    +0.000 A 
ATOM     21  C   UNL     1      45.789   1.611   8.378  0.00  0.00    +0.000 A 
ATOM     22  N   UNL     1      44.864   1.955   9.302  0.00  0.00    +0.000 NA
ATOM     23  C   UNL     1      44.689   3.267   9.538  0.00  0.00    +0.000 A 
ATOM     24  N   UNL     1      43.741   3.588  10.507  0.00  0.00    +0.000 N 
ATOM     25  N   UNL     1      45.368   4.228   8.891  0.00  0.00    +0.000 NA
ATOM     26  C   UNL     1      46.274   3.842   7.973  0.00  0.00    +0.000 A 
ATOM     27  H   UNL     1      43.536   2.727  10.999  0.00  0.00    +0.000 HD
BRANCH  20  29
ATOM     28  N   UNL     1      48.317   1.832   5.951  0.00  0.00    +0.000 NA
ATOM     29  C   UNL     1      47.520   2.146   6.730  0.00  0.00    +0.000 C 
ENDBRANCH  20  29
ENDBRANCH  17  24
ENDBRANCH   1  17
TORSDOF 6
ENDMDL
MODEL 6
REMARK VINA RESULT:    -6.666      2.402      3.445
REMARK INTER + INTRA:          -9.449
REMARK INTER:                  -8.653
REMARK INTRA:                  -0.796
REMARK UNBOUND:                -0.446
REMARK  Name = 
REMARK  6 active torsions:
REMARK  status: ('A' for Active; 'I' for Inactive)
REMARK    1  A    between atoms: C_2  and  C_3
REMARK    2  A    between atoms: N_7  and  C_8
REMARK    3  A    between atoms: C_8  and  C_9
REMARK    4  A    between atoms: C_13  and  C_14
REMARK    5  A    between atoms: C_18  and  O_19
REMARK    6  A    between atoms: O_19  and  C_20
REMARK                            x       y       z     vdW  Elec       q    Type
REMARK                         _______ _______ _______ _____ _____    ______ ____
ROOT
ATOM      1  C   UNL     1      46.978   7.839  12.451  0.00  0.00    +0.000 A 
ATOM      2  C   UNL     1      47.952   8.495  11.690  0.00  0.00    +0.000 A 
ATOM      3  C   UNL     1      49.281   8.518  12.110  0.00  0.00    +0.000 A 
ATOM      4  C   UNL     1      49.653   7.868  13.289  0.00  0.00    +0.000 A 
ATOM      5  C   UNL     1      48.721   7.135  14.043  0.00  0.00    +0.000 A 
ATOM      6  C   UNL     1      47.403   7.091  13.568  0.00  0.00    +0.000 A 
ENDROOT
BRANCH   5   7
ATOM      7  C   UNL     1      49.054   6.560  15.361  0.00  0.00    +0.000 A 
ATOM      8  C   UNL     1      50.094   7.099  16.129  0.00  0.00    +0.000 A 
ATOM      9  N   UNL     1      50.438   6.687  17.369  0.00  0.00    +0.000 NA
ATOM     10  C   UNL     1      49.696   5.691  17.896  0.00  0.00    +0.000 A 
ATOM     11  C   UNL     1      48.616   5.098  17.254  0.00  0.00    +0.000 A 
ATOM     12  C   UNL     1      48.310   5.527  15.961  0.00  0.00    +0.000 A 
BRANCH  11  13
ATOM     13  O   UNL     1      47.971   4.123  17.956  0.00  0.00    +0.000 OA
BRANCH  13  14
ATOM     14  C   UNL     1      47.518   3.014  17.199  0.00  0.00    +0.000 C 
ATOM     15  F   UNL     1      48.587   2.254  16.860  0.00  0.00    +0.000 F 
ATOM     16  F   UNL     1      46.742   2.260  18.017  0.00  0.00    +0.000 F 
ENDBRANCH  13  14
ENDBRANCH  11  13
ENDBRANCH   5   7
BRANCH   1  17
ATOM     17  C   UNL     1      45.487   8.065  12.235  0.00  0.00    +0.000 C 
ATOM     18  C   UNL     1      45.015   9.431  12.737  0.00  0.00    +0.000 C 
ATOM     19  C   UNL     1      45.027   9.148  11.273  0.00  0.00    +0.000 C 
BRANCH  17  24
ATOM     20  C   UNL     1      44.901   3.517  10.172  0.00  0.00    +0.000 A 
ATOM     21  C   UNL     1      44.529   3.492  11.495  0.00  0.00    +0.000 A 
ATOM     22  N   UNL     1      44.433   4.602  12.261  0.00  0.00    +0.000 NA
ATOM     23  C   UNL     1      44.730   5.778  11.680  0.00  0.00    +0.000 A 
ATOM     24  N   UNL     1      44.637   6.900  12.500  0.00  0.00    +0.000 N 
ATOM     25  N   UNL     1      45.088   5.892  10.391  0.00  0.00    +0.000 NA
ATOM     26  C   UNL     1      45.163   4.762   9.662  0.00  0.00    +0.000 A 
ATOM     27  H   UNL     1      44.577   6.553  13.450  0.00  0.00    +0.000 HD
BRANCH  20  29
ATOM     28  N   UNL     1      45.122   1.375   8.757  0.00  0.00    +0.000 NA
ATOM     29  C   UNL     1      45.019   2.337   9.391  0.00  0.00    +0.000 C 
ENDBRANCH  20  29
ENDBRANCH  17  24
ENDBRANCH   1  17
TORSDOF 6
ENDMDL
MODEL 7
REMARK VINA RESULT:    -6.489      4.331      8.246
REMARK INTER + INTRA:          -9.211
REMARK INTER:                  -8.449
REMARK INTRA:                  -0.762
REMARK UNBOUND:                -0.446
REMARK  Name = 
REMARK  6 active torsions:
REMARK  status: ('A' for Active; 'I' for Inactive)
REMARK    1  A    between atoms: C_2  and  C_3
REMARK    2  A    between atoms: N_7  and  C_8
REMARK    3  A    between atoms: C_8  and  C_9
REMARK    4  A    between atoms: C_13  and  C_14
REMARK    5  A    between atoms: C_18  and  O_19
REMARK    6  A    between atoms: O_19  and  C_20
REMARK                            x       y       z     vdW  Elec       q    Type
REMARK                         _______ _______ _______ _____ _____    ______ ____
ROOT
ATOM      1  C   UNL     1      49.146   8.377  15.111  0.00  0.00    +0.000 A 
ATOM      2  C   UNL     1      50.189   8.719  14.241  0.00  0.00    +0.000 A 
ATOM      3  C   UNL     1      50.235   8.192  12.952  0.00  0.00    +0.000 A 
ATOM      4  C   UNL     1      49.228   7.330  12.512  0.00  0.00    +0.000 A 
ATOM      5  C   UNL     1      48.125   7.021  13.326  0.00  0.00    +0.000 A 
ATOM      6  C   UNL     1      48.084   7.605  14.599  0.00  0.00    +0.000 A 
ENDROOT
BRANCH   5   7
ATOM      7  C   UNL     1      47.124   6.006  12.941  0.00  0.00    +0.000 A 
ATOM      8  C   UNL     1      46.788   4.971  13.822  0.00  0.00    +0.000 A 
ATOM      9  N   UNL     1      45.844   4.031  13.591  0.00  0.00    +0.000 NA
ATOM     10  C   UNL     1      45.174   4.129  12.425  0.00  0.00    +0.000 A 
ATOM     11  C   UNL     1      45.385   5.130  11.484  0.00  0.00    +0.000 A 
ATOM     12  C   UNL     1      46.390   6.064  11.741  0.00  0.00    +0.000 A 
BRANCH  11  13
ATOM     13  O   UNL     1      44.593   5.079  10.376  0.00  0.00    +0.000 OA
BRANCH  13  14
ATOM     14  C   UNL     1      45.138   4.399   9.259  0.00  0.00    +0.000 C 
ATOM     15  F   UNL     1      44.171   4.264   8.319  0.00  0.00    +0.000 F 
ATOM     16  F   UNL     1      46.093   5.201   8.727  0.00  0.00    +0.000 F 
ENDBRANCH  13  14
ENDBRANCH  11  13
ENDBRANCH   5   7
BRANCH   1  17
ATOM     17  C   UNL     1      49.219   8.636  16.610  0.00  0.00    +0.000 C 
ATOM     18  C   UNL     1      48.900  10.086  16.978  0.00  0.00    +0.000 C 
ATOM     19  C   UNL     1      47.953   9.002  17.368  0.00  0.00    +0.000 C 
BRANCH  17  24
ATOM     20  C   UNL     1      50.639   3.874  17.377  0.00  0.00    +0.000 A 
ATOM     21  C   UNL     1      51.728   4.710  17.428  0.00  0.00    +0.000 A 
ATOM     22  N   UNL     1      51.631   6.059  17.412  0.00  0.00    +0.000 NA
ATOM     23  C   UNL     1      50.397   6.586  17.332  0.00  0.00    +0.000 A 
ATOM     24  N   UNL     1      50.331   7.977  17.301  0.00  0.00    +0.000 N 
ATOM     25  N   UNL     1      49.279   5.841  17.291  0.00  0.00    +0.000 NA
ATOM     26  C   UNL     1      49.421   4.502  17.318  0.00  0.00    +0.000 A 
ATOM     27  H   UNL     1      51.273   8.301  17.117  0.00  0.00    +0.000 HD
BRANCH  20  29
ATOM     28  N   UNL     1      50.861   1.306  17.373  0.00  0.00    +0.000 NA
ATOM     29  C   UNL     1      50.763   2.460  17.371  0.00  0.00    +0.000 C 
ENDBRANCH  20  29
ENDBRANCH  17  24
ENDBRANCH   1  17
TORSDOF 6
ENDMDL
MODEL 8
REMARK VINA RESULT:    -6.192      3.699      5.584
REMARK INTER + INTRA:          -8.810
REMARK INTER:                  -7.784
REMARK INTRA:                  -1.025
REMARK UNBOUND:                -0.446
REMARK  Name = 
REMARK  6 active torsions:
REMARK  status: ('A' for Active; 'I' for Inactive)
REMARK    1  A    between atoms: C_2  and  C_3
REMARK    2  A    between atoms: N_7  and  C_8
REMARK    3  A    between atoms: C_8  and  C_9
REMARK    4  A    between atoms: C_13  and  C_14
REMARK    5  A    between atoms: C_18  and  O_19
REMARK    6  A    between atoms: O_19  and  C_20
REMARK                            x       y       z     vdW  Elec       q    Type
REMARK                         _______ _______ _______ _____ _____    ______ ____
ROOT
ATOM      1  C   UNL     1      49.434   8.883  13.792  0.00  0.00    +0.000 A 
ATOM      2  C   UNL     1      49.056  10.012  14.528  0.00  0.00    +0.000 A 
ATOM      3  C   UNL     1      49.046   9.977  15.921  0.00  0.00    +0.000 A 
ATOM      4  C   UNL     1      49.432   8.815  16.594  0.00  0.00    +0.000 A 
ATOM      5  C   UNL     1      49.889   7.685  15.896  0.00  0.00    +0.000 A 
ATOM      6  C   UNL     1      49.933   7.769  14.497  0.00  0.00    +0.000 A 
ENDROOT
BRANCH   5   7
ATOM      7  C   UNL     1      50.166   6.402  16.572  0.00  0.00    +0.000 A 
ATOM      8  C   UNL     1      51.474   6.059  16.937  0.00  0.00    +0.000 A 
ATOM      9  N   UNL     1      51.824   4.941  17.610  0.00  0.00    +0.000 NA
ATOM     10  C   UNL     1      50.818   4.115  17.965  0.00  0.00    +0.000 A 
ATOM     11  C   UNL     1      49.476   4.359  17.697  0.00  0.00    +0.000 A 
ATOM     12  C   UNL     1      49.155   5.508  16.970  0.00  0.00    +0.000 A 
BRANCH  11  13
ATOM     13  O   UNL     1      48.600   3.422  18.156  0.00  0.00    +0.000 OA
BRANCH  13  14
ATOM     14  C   UNL     1      47.587   3.026  17.248  0.00  0.00    +0.000 C 
ATOM     15  F   UNL     1      48.148   2.264  16.278  0.00  0.00    +0.000 F 
ATOM     16  F   UNL     1      46.727   2.227  17.927  0.00  0.00    +0.000 F 
ENDBRANCH  13  14
ENDBRANCH  11  13
ENDBRANCH   5   7
BRANCH   1  17
ATOM     17  C   UNL     1      49.142   8.746  12.303  0.00  0.00    +0.000 C 
ATOM     18  C   UNL     1      50.142   9.507  11.430  0.00  0.00    +0.000 C 
ATOM     19  C   UNL     1      50.132   8.015  11.410  0.00  0.00    +0.000 C 
BRANCH  17  24
ATOM     20  C   UNL     1      45.203   5.653  12.737  0.00  0.00    +0.000 A 
ATOM     21  C   UNL     1      44.780   6.959  12.690  0.00  0.00    +0.000 A 
ATOM     22  N   UNL     1      45.602   7.998  12.421  0.00  0.00    +0.000 NA
ATOM     23  C   UNL     1      46.898   7.714  12.199  0.00  0.00    +0.000 A 
ATOM     24  N   UNL     1      47.723   8.807  11.940  0.00  0.00    +0.000 N 
ATOM     25  N   UNL     1      47.391   6.465  12.213  0.00  0.00    +0.000 NA
ATOM     26  C   UNL     1      46.535   5.460  12.478  0.00  0.00    +0.000 A 
ATOM     27  H   UNL     1      47.193   9.630  12.201  0.00  0.00    +0.000 HD
BRANCH  20  29
ATOM     28  N   UNL     1      43.607   3.706  13.292  0.00  0.00    +0.000 NA
ATOM     29  C   UNL     1      44.327   4.579  13.045  0.00  0.00    +0.000 C 
ENDBRANCH  20  29
ENDBRANCH  17  24
ENDBRANCH   1  17
TORSDOF 6
ENDMDL
MODEL 9
REMARK VINA RESULT:    -6.189      3.892      8.308
REMARK INTER + INTRA:          -8.806
REMARK INTER:                  -8.479
REMARK INTRA:                  -0.327
REMARK UNBOUND:                -0.446
REMARK  Name = 
REMARK  6 active torsions:
REMARK  status: ('A' for Active; 'I' for Inactive)
REMARK    1  A    between atoms: C_2  and  C_3
REMARK    2  A    between atoms: N_7  and  C_8
REMARK    3  A    between atoms: C_8  and  C_9
REMARK    4  A    between atoms: C_13  and  C_14
REMARK    5  A    between atoms: C_18  and  O_19
REMARK    6  A    between atoms: O_19  and  C_20
REMARK                            x       y       z     vdW  Elec       q    Type
REMARK                         _______ _______ _______ _____ _____    ______ ____
ROOT
ATOM      1  C   UNL     1      48.707   5.857  16.396  0.00  0.00    +0.000 A 
ATOM      2  C   UNL     1      49.811   6.678  16.136  0.00  0.00    +0.000 A 
ATOM      3  C   UNL     1      49.986   7.251  14.878  0.00  0.00    +0.000 A 
ATOM      4  C   UNL     1      49.047   7.023  13.869  0.00  0.00    +0.000 A 
ATOM      5  C   UNL     1      47.887   6.267  14.109  0.00  0.00    +0.000 A 
ATOM      6  C   UNL     1      47.717   5.745  15.399  0.00  0.00    +0.000 A 
ENDROOT
BRANCH   5   7
ATOM      7  C   UNL     1      46.955   5.893  13.028  0.00  0.00    +0.000 A 
ATOM      8  C   UNL     1      46.745   6.752  11.942  0.00  0.00    +0.000 A 
ATOM      9  N   UNL     1      45.962   6.477  10.875  0.00  0.00    +0.000 NA
ATOM     10  C   UNL     1      45.361   5.270  10.867  0.00  0.00    +0.000 A 
ATOM     11  C   UNL     1      45.517   4.314  11.864  0.00  0.00    +0.000 A 
ATOM     12  C   UNL     1      46.307   4.645  12.967  0.00  0.00    +0.000 A 
BRANCH  11  13
ATOM     13  O   UNL     1      44.849   3.141  11.670  0.00  0.00    +0.000 OA
BRANCH  13  14
ATOM     14  C   UNL     1      43.437   3.214  11.755  0.00  0.00    +0.000 C 
ATOM     15  F   UNL     1      42.933   1.958  11.685  0.00  0.00    +0.000 F 
ATOM     16  F   UNL     1      43.132   3.692  12.987  0.00  0.00    +0.000 F 
ENDBRANCH  13  14
ENDBRANCH  11  13
ENDBRANCH   5   7
BRANCH   1  17
ATOM     17  C   UNL     1      48.640   4.943  17.612  0.00  0.00    +0.000 C 
ATOM     18  C   UNL     1      47.342   5.103  18.404  0.00  0.00    +0.000 C 
ATOM     19  C   UNL     1      47.599   3.836  17.660  0.00  0.00    +0.000 C 
BRANCH  17  24
ATOM     20  C   UNL     1      52.518   1.742  17.571  0.00  0.00    +0.000 A 
ATOM     21  C   UNL     1      52.917   2.968  18.045  0.00  0.00    +0.000 A 
ATOM     22  N   UNL     1      52.058   3.977  18.314  0.00  0.00    +0.000 NA
ATOM     23  C   UNL     1      50.752   3.749  18.090  0.00  0.00    +0.000 A 
ATOM     24  N   UNL     1      49.894   4.812  18.361  0.00  0.00    +0.000 N 
ATOM     25  N   UNL     1      50.276   2.576  17.640  0.00  0.00    +0.000 NA
ATOM     26  C   UNL     1      51.166   1.596  17.393  0.00  0.00    +0.000 A 
ATOM     27  H   UNL     1      50.482   5.631  18.464  0.00  0.00    +0.000 HD
BRANCH  20  29
ATOM     28  N   UNL     1      54.189  -0.141  17.020  0.00  0.00    +0.000 NA
ATOM     29  C   UNL     1      53.439   0.704  17.272  0.00  0.00    +0.000 C 
ENDBRANCH  20  29
ENDBRANCH  17  24
ENDBRANCH   1  17
TORSDOF 6
ENDMDL
