MODEL 1
REMARK VINA RESULT:    -8.710      0.000      0.000
REMARK INTER + INTRA:         -12.739
REMARK INTER:                 -12.020
REMARK INTRA:                  -0.720
REMARK UNBOUND:                -0.720
REMARK  Name = 
REMARK  7 active torsions:
REMARK  status: ('A' for Active; 'I' for Inactive)
REMARK    1  A    between atoms: C_2  and  C_20
REMARK    2  A    between atoms: N_3  and  C_4
REMARK    3  A    between atoms: C_4  and  C_5
REMARK    4  A    between atoms: C_8  and  C_9
REMARK    5  A    between atoms: C_9  and  N_10
REMARK    6  A    between atoms: N_10  and  C_11
REMARK    7  A    between atoms: C_14  and  O_15
REMARK                            x       y       z     vdW  Elec       q    Type
REMARK                         _______ _______ _______ _____ _____    ______ ____
ROOT
ATOM      1  C   UNL     1      46.602   5.731  12.865  0.00  0.00    +0.000 A 
ATOM      2  C   UNL     1      46.412   4.451  13.340  0.00  0.00    +0.000 A 
ATOM      3  N   UNL     1      45.653   3.526  12.720  0.00  0.00    +0.000 NA
ATOM      4  C   UNL     1      45.075   3.901  11.558  0.00  0.00    +0.000 A 
ATOM      5  N   UNL     1      45.212   5.119  10.996  0.00  0.00    +0.000 NA
ATOM      6  C   UNL     1      45.978   6.003  11.662  0.00  0.00    +0.000 A 
ENDROOT
BRANCH   1   7
ATOM      7  C   UNL     1      47.529   6.696  13.527  0.00  0.00    +0.000 C 
BRANCH   7  10
ATOM      8  O   UNL     1      48.342   8.160  15.864  0.00  0.00    +0.000 OA
ATOM      9  C   UNL     1      48.428   6.939  15.818  0.00  0.00    +0.000 C 
ATOM     10  N   UNL     1      47.929   6.157  14.798  0.00  0.00    +0.000 N 
ATOM     11  H   UNL     1      48.232   5.194  14.778  0.00  0.00    +0.000 HD
BRANCH   9  12
ATOM     12  C   UNL     1      49.296   6.146  16.681  0.00  0.00    +0.000 A 
ATOM     13  C   UNL     1      50.527   6.600  17.117  0.00  0.00    +0.000 A 
ATOM     14  S   UNL     1      51.579   5.290  17.477  0.00  0.00    +0.000 S 
ATOM     15  C   UNL     1      50.342   4.146  17.212  0.00  0.00    +0.000 A 
ATOM     16  N   UNL     1      50.573   2.807  17.172  0.00  0.00    +0.000 NA
ATOM     17  C   UNL     1      49.508   2.089  17.008  0.00  0.00    +0.000 A 
ATOM     18  N   UNL     1      48.228   2.583  16.937  0.00  0.00    +0.000 N 
ATOM     19  C   UNL     1      47.945   3.928  16.975  0.00  0.00    +0.000 A 
ATOM     20  O   UNL     1      46.798   4.357  16.955  0.00  0.00    +0.000 OA
ATOM     21  C   UNL     1      49.126   4.765  17.024  0.00  0.00    +0.000 A 
ATOM     22  H   UNL     1      47.432   1.962  16.890  0.00  0.00    +0.000 HD
ENDBRANCH   9  12
ENDBRANCH   7  10
ENDBRANCH   1   7
BRANCH   4  23
ATOM     23  C   UNL     1      44.139   2.907  10.890  0.00  0.00    +0.000 C 
BRANCH  23  24
ATOM     24  N   UNL     1      44.164   2.930   9.410  0.00  0.00    +0.000 NA
ATOM     25  H   UNL     1      43.887   3.876   9.138  0.00  0.00    +0.000 HD
BRANCH  24  26
ATOM     26  C   UNL     1      45.491   2.649   8.835  0.00  0.00    +0.000 C 
ATOM     27  C   UNL     1      45.631   1.190   8.370  0.00  0.00    +0.000 C 
ATOM     28  C   UNL     1      46.946   0.946   7.639  0.00  0.00    +0.000 C 
ATOM     29  C   UNL     1      47.111   1.904   6.465  0.00  0.00    +0.000 C 
ATOM     30  C   UNL     1      47.019   3.356   6.927  0.00  0.00    +0.000 C 
ATOM     31  C   UNL     1      45.710   3.624   7.661  0.00  0.00    +0.000 C 
BRANCH  29  32
ATOM     32  O   UNL     1      48.366   1.678   5.834  0.00  0.00    +0.000 OA
ATOM     33  H   UNL     1      48.320   2.038   4.933  0.00  0.00    +0.000 HD
ENDBRANCH  29  32
ENDBRANCH  24  26
ENDBRANCH  23  24
ENDBRANCH   4  23
TORSDOF 7
ENDMDL
MODEL 2
REMARK VINA RESULT:    -8.450      0.766      1.224
REMARK INTER + INTRA:         -12.380
REMARK INTER:                 -11.500
REMARK INTRA:                  -0.880
REMARK UNBOUND:                -0.720
REMARK  Name = 
REMARK  7 active torsions:
REMARK  status: ('A' for Active; 'I' for Inactive)
REMARK    1  A    between atoms: C_2  and  C_20
REMARK    2  A    between atoms: N_3  and  C_4
REMARK    3  A    between atoms: C_4  and  C_5
REMARK    4  A    between atoms: C_8  and  C_9
REMARK    5  A    between atoms: C_9  and  N_10
REMARK    6  A    between atoms: N_10  and  C_11
REMARK    7  A    between atoms: C_14  and  O_15
REMARK                            x       y       z     vdW  Elec       q    Type
REMARK                         _______ _______ _______ _____ _____    ______ ____
ROOT
ATOM      1  C   UNL     1      46.941   6.465  13.155  0.00  0.00    +0.000 A 
ATOM      2  C   UNL     1      46.656   5.150  13.452  0.00  0.00    +0.000 A 
ATOM      3  N   UNL     1      45.869   4.363  12.693  0.00  0.00    +0.000 NA
ATOM      4  C   UNL     1      45.363   4.919  11.571  0.00  0.00    +0.000 A 
ATOM      5  N   UNL     1      45.596   6.187  11.177  0.00  0.00    +0.000 NA
ATOM      6  C   UNL     1      46.384   6.929  11.977  0.00  0.00    +0.000 A 
ENDROOT
BRANCH   1   7
ATOM      7  C   UNL     1      47.895   7.277  13.967  0.00  0.00    +0.000 C 
BRANCH   7  10
ATOM      8  O   UNL     1      48.542   8.296  16.576  0.00  0.00    +0.000 OA
ATOM      9  C   UNL     1      48.692   7.111  16.302  0.00  0.00    +0.000 C 
ATOM     10  N   UNL     1      48.274   6.521  15.129  0.00  0.00    +0.000 N 
ATOM     11  H   UNL     1      48.627   5.594  14.941  0.00  0.00    +0.000 HD
BRANCH   9  12
ATOM     12  C   UNL     1      49.567   6.205  17.038  0.00  0.00    +0.000 A 
ATOM     13  C   UNL     1      50.831   6.571  17.460  0.00  0.00    +0.000 A 
ATOM     14  S   UNL     1      51.848   5.197  17.635  0.00  0.00    +0.000 S 
ATOM     15  C   UNL     1      50.559   4.128  17.313  0.00  0.00    +0.000 A 
ATOM     16  N   UNL     1      50.738   2.793  17.125  0.00  0.00    +0.000 NA
ATOM     17  C   UNL     1      49.641   2.131  16.939  0.00  0.00    +0.000 A 
ATOM     18  N   UNL     1      48.378   2.672  16.978  0.00  0.00    +0.000 N 
ATOM     19  C   UNL     1      48.148   4.014  17.167  0.00  0.00    +0.000 A 
ATOM     20  O   UNL     1      47.017   4.481  17.245  0.00  0.00    +0.000 OA
ATOM     21  C   UNL     1      49.360   4.802  17.246  0.00  0.00    +0.000 A 
ATOM     22  H   UNL     1      47.559   2.085  16.906  0.00  0.00    +0.000 HD
ENDBRANCH   9  12
ENDBRANCH   7  10
ENDBRANCH   1   7
BRANCH   4  23
ATOM     23  C   UNL     1      44.399   4.080  10.748  0.00  0.00    +0.000 C 
BRANCH  23  24
ATOM     24  N   UNL     1      44.230   4.526   9.346  0.00  0.00    +0.000 NA
ATOM     25  H   UNL     1      44.699   5.432   9.279  0.00  0.00    +0.000 HD
BRANCH  24  26
ATOM     26  C   UNL     1      44.833   3.615   8.358  0.00  0.00    +0.000 C 
ATOM     27  C   UNL     1      46.049   4.239   7.651  0.00  0.00    +0.000 C 
ATOM     28  C   UNL     1      46.758   3.239   6.745  0.00  0.00    +0.000 C 
ATOM     29  C   UNL     1      47.166   1.988   7.514  0.00  0.00    +0.000 C 
ATOM     30  C   UNL     1      45.956   1.338   8.180  0.00  0.00    +0.000 C 
ATOM     31  C   UNL     1      45.229   2.320   9.094  0.00  0.00    +0.000 C 
BRANCH  29  32
ATOM     32  O   UNL     1      47.785   1.061   6.630  0.00  0.00    +0.000 OA
ATOM     33  H   UNL     1      47.668   1.386   5.722  0.00  0.00    +0.000 HD
ENDBRANCH  29  32
ENDBRANCH  24  26
ENDBRANCH  23  24
ENDBRANCH   4  23
TORSDOF 7
ENDMDL
MODEL 3
REMARK VINA RESULT:    -8.136      2.362      3.351
REMARK INTER + INTRA:         -11.947
REMARK INTER:                 -11.182
REMARK INTRA:                  -0.765
REMARK UNBOUND:                -0.720
REMARK  Name = 
REMARK  7 active torsions:
REMARK  status: ('A' for Active; 'I' for Inactive)
REMARK    1  A    between atoms: C_2  and  C_20
REMARK    2  A    between atoms: N_3  and  C_4
REMARK    3  A    between atoms: C_4  and  C_5
REMARK    4  A    between atoms: C_8  and  C_9
REMARK    5  A    between atoms: C_9  and  N_10
REMARK    6  A    between atoms: N_10  and  C_11
REMARK    7  A    between atoms: C_14  and  O_15
REMARK                            x       y       z     vdW  Elec       q    Type
REMARK                         _______ _______ _______ _____ _____    ______ ____
ROOT
ATOM      1  C   UNL     1      46.404   4.595  13.404  0.00  0.00    +0.000 A 
ATOM      2  C   UNL     1      46.257   5.690  12.581  0.00  0.00    +0.000 A 
ATOM      3  N   UNL     1      45.637   5.652  11.385  0.00  0.00    +0.000 NA
ATOM      4  C   UNL     1      45.122   4.460  11.011  0.00  0.00    +0.000 A 
ATOM      5  N   UNL     1      45.191   3.334  11.750  0.00  0.00    +0.000 NA
ATOM      6  C   UNL     1      45.827   3.431  12.932  0.00  0.00    +0.000 A 
ENDROOT
BRANCH   1   7
ATOM      7  C   UNL     1      47.011   4.698  14.764  0.00  0.00    +0.000 C 
BRANCH   7  10
ATOM      8  O   UNL     1      49.368   5.366  16.269  0.00  0.00    +0.000 OA
ATOM      9  C   UNL     1      48.675   6.236  15.755  0.00  0.00    +0.000 C 
ATOM     10  N   UNL     1      47.618   5.993  14.905  0.00  0.00    +0.000 N 
ATOM     11  H   UNL     1      47.010   6.774  14.707  0.00  0.00    +0.000 HD
BRANCH   9  12
ATOM     12  C   UNL     1      48.677   7.634  16.169  0.00  0.00    +0.000 A 
ATOM     13  C   UNL     1      48.903   8.672  15.283  0.00  0.00    +0.000 A 
ATOM     14  S   UNL     1      49.536  10.050  16.090  0.00  0.00    +0.000 S 
ATOM     15  C   UNL     1      49.347   9.316  17.618  0.00  0.00    +0.000 A 
ATOM     16  N   UNL     1      49.847   9.855  18.761  0.00  0.00    +0.000 NA
ATOM     17  C   UNL     1      49.565   9.184  19.832  0.00  0.00    +0.000 A 
ATOM     18  N   UNL     1      48.783   8.054  19.872  0.00  0.00    +0.000 N 
ATOM     19  C   UNL     1      48.254   7.475  18.743  0.00  0.00    +0.000 A 
ATOM     20  O   UNL     1      47.521   6.494  18.792  0.00  0.00    +0.000 OA
ATOM     21  C   UNL     1      48.661   8.126  17.515  0.00  0.00    +0.000 A 
ATOM     22  H   UNL     1      48.534   7.624  20.752  0.00  0.00    +0.000 HD
ENDBRANCH   9  12
ENDBRANCH   7  10
ENDBRANCH   1   7
BRANCH   4  23
ATOM     23  C   UNL     1      44.499   4.370   9.628  0.00  0.00    +0.000 C 
BRANCH  23  24
ATOM     24  N   UNL     1      44.250   2.992   9.148  0.00  0.00    +0.000 NA
ATOM     25  H   UNL     1      43.266   2.963   8.871  0.00  0.00    +0.000 HD
BRANCH  24  26
ATOM     26  C   UNL     1      45.072   2.610   7.988  0.00  0.00    +0.000 C 
ATOM     27  C   UNL     1      45.915   3.781   7.455  0.00  0.00    +0.000 C 
ATOM     28  C   UNL     1      46.875   3.341   6.356  0.00  0.00    +0.000 C 
ATOM     29  C   UNL     1      47.772   2.203   6.828  0.00  0.00    +0.000 C 
ATOM     30  C   UNL     1      46.941   1.019   7.314  0.00  0.00    +0.000 C 
ATOM     31  C   UNL     1      45.972   1.434   8.417  0.00  0.00    +0.000 C 
BRANCH  29  32
ATOM     32  O   UNL     1      48.623   1.790   5.765  0.00  0.00    +0.000 OA
ATOM     33  H   UNL     1      48.652   2.504   5.107  0.00  0.00    +0.000 HD
ENDBRANCH  29  32
ENDBRANCH  24  26
ENDBRANCH  23  24
ENDBRANCH   4  23
TORSDOF 7
ENDMDL
MODEL 4
REMARK VINA RESULT:    -8.089      2.356      4.156
REMARK INTER + INTRA:         -11.882
REMARK INTER:                 -11.043
REMARK INTRA:                  -0.839
REMARK UNBOUND:                -0.720
REMARK  Name = 
REMARK  7 active torsions:
REMARK  status: ('A' for Active; 'I' for Inactive)
REMARK    1  A    between atoms: C_2  and  C_20
REMARK    2  A    between atoms: N_3  and  C_4
REMARK    3  A    between atoms: C_4  and  C_5
REMARK    4  A    between atoms: C_8  and  C_9
REMARK    5  A    between atoms: C_9  and  N_10
REMARK    6  A    between atoms: N_10  and  C_11
REMARK    7  A    between atoms: C_14  and  O_15
REMARK                            x       y       z     vdW  Elec       q    Type
REMARK                         _______ _______ _______ _____ _____    ______ ____
ROOT
ATOM      1  C   UNL     1      46.281   4.859  13.260  0.00  0.00    +0.000 A 
ATOM      2  C   UNL     1      46.003   5.884  12.382  0.00  0.00    +0.000 A 
ATOM      3  N   UNL     1      45.355   5.714  11.213  0.00  0.00    +0.000 NA
ATOM      4  C   UNL     1      44.951   4.458  10.925  0.00  0.00    +0.000 A 
ATOM      5  N   UNL     1      45.153   3.390  11.723  0.00  0.00    +0.000 NA
ATOM      6  C   UNL     1      45.810   3.619  12.875  0.00  0.00    +0.000 A 
ENDROOT
BRANCH   1   7
ATOM      7  C   UNL     1      46.913   5.102  14.592  0.00  0.00    +0.000 C 
BRANCH   7  10
ATOM      8  O   UNL     1      49.183   5.645  16.270  0.00  0.00    +0.000 OA
ATOM      9  C   UNL     1      48.830   6.436  15.404  0.00  0.00    +0.000 C 
ATOM     10  N   UNL     1      47.848   6.187  14.470  0.00  0.00    +0.000 N 
ATOM     11  H   UNL     1      47.517   6.981  13.942  0.00  0.00    +0.000 HD
BRANCH   9  12
ATOM     12  C   UNL     1      49.190   7.849  15.391  0.00  0.00    +0.000 A 
ATOM     13  C   UNL     1      49.312   8.597  16.548  0.00  0.00    +0.000 A 
ATOM     14  S   UNL     1      49.038  10.265  16.240  0.00  0.00    +0.000 S 
ATOM     15  C   UNL     1      48.929   9.997  14.559  0.00  0.00    +0.000 A 
ATOM     16  N   UNL     1      48.532  10.959  13.684  0.00  0.00    +0.000 NA
ATOM     17  C   UNL     1      48.554  10.590  12.443  0.00  0.00    +0.000 A 
ATOM     18  N   UNL     1      48.990   9.367  11.992  0.00  0.00    +0.000 N 
ATOM     19  C   UNL     1      49.403   8.365  12.838  0.00  0.00    +0.000 A 
ATOM     20  O   UNL     1      49.832   7.294  12.425  0.00  0.00    +0.000 OA
ATOM     21  C   UNL     1      49.264   8.700  14.240  0.00  0.00    +0.000 A 
ATOM     22  H   UNL     1      49.059   9.172  11.003  0.00  0.00    +0.000 HD
ENDBRANCH   9  12
ENDBRANCH   7  10
ENDBRANCH   1   7
BRANCH   4  23
ATOM     23  C   UNL     1      44.302   4.225   9.570  0.00  0.00    +0.000 C 
BRANCH  23  24
ATOM     24  N   UNL     1      44.223   2.806   9.156  0.00  0.00    +0.000 NA
ATOM     25  H   UNL     1      43.245   2.637   8.910  0.00  0.00    +0.000 HD
BRANCH  24  26
ATOM     26  C   UNL     1      45.059   2.482   7.988  0.00  0.00    +0.000 C 
ATOM     27  C   UNL     1      45.856   3.697   7.483  0.00  0.00    +0.000 C 
ATOM     28  C   UNL     1      46.833   3.319   6.374  0.00  0.00    +0.000 C 
ATOM     29  C   UNL     1      47.772   2.205   6.821  0.00  0.00    +0.000 C 
ATOM     30  C   UNL     1      46.987   0.979   7.279  0.00  0.00    +0.000 C 
ATOM     31  C   UNL     1      46.003   1.332   8.390  0.00  0.00    +0.000 C 
BRANCH  29  32
ATOM     32  O   UNL     1      48.638   1.850   5.749  0.00  0.00    +0.000 OA
ATOM     33  H   UNL     1      48.467   0.922   5.518  0.00  0.00    +0.000 HD
ENDBRANCH  29  32
ENDBRANCH  24  26
ENDBRANCH  23  24
ENDBRANCH   4  23
TORSDOF 7
ENDMDL
MODEL 5
REMARK VINA RESULT:    -7.812      1.967      2.324
REMARK INTER + INTRA:         -11.500
REMARK INTER:                 -10.477
REMARK INTRA:                  -1.023
REMARK UNBOUND:                -0.720
REMARK  Name = 
REMARK  7 active torsions:
REMARK  status: ('A' for Active; 'I' for Inactive)
REMARK    1  A    between atoms: C_2  and  C_20
REMARK    2  A    between atoms: N_3  and  C_4
REMARK    3  A    between atoms: C_4  and  C_5
REMARK    4  A    between atoms: C_8  and  C_9
REMARK    5  A    between atoms: C_9  and  N_10
REMARK    6  A    between atoms: N_10  and  C_11
REMARK    7  A    between atoms: C_14  and  O_15
REMARK                            x       y       z     vdW  Elec       q    Type
REMARK                         _______ _______ _______ _____ _____    ______ ____
ROOT
ATOM      1  C   UNL     1      47.484   6.362  13.105  0.00  0.00    +0.000 A 
ATOM      2  C   UNL     1      46.822   5.284  13.652  0.00  0.00    +0.000 A 
ATOM      3  N   UNL     1      45.848   4.601  13.018  0.00  0.00    +0.000 NA
ATOM      4  C   UNL     1      45.542   5.009  11.768  0.00  0.00    +0.000 A 
ATOM      5  N   UNL     1      46.141   6.036  11.132  0.00  0.00    +0.000 NA
ATOM      6  C   UNL     1      47.103   6.685  11.816  0.00  0.00    +0.000 A 
ENDROOT
BRANCH   1   7
ATOM      7  C   UNL     1      48.624   7.032  13.798  0.00  0.00    +0.000 C 
BRANCH   7  10
ATOM      8  O   UNL     1      50.318   7.622  16.045  0.00  0.00    +0.000 OA
ATOM      9  C   UNL     1      49.104   7.522  16.174  0.00  0.00    +0.000 C 
ATOM     10  N   UNL     1      48.215   7.384  15.129  0.00  0.00    +0.000 N 
ATOM     11  H   UNL     1      47.272   7.117  15.373  0.00  0.00    +0.000 HD
BRANCH   9  12
ATOM     12  C   UNL     1      48.434   7.259  17.443  0.00  0.00    +0.000 A 
ATOM     13  C   UNL     1      47.927   8.269  18.239  0.00  0.00    +0.000 A 
ATOM     14  S   UNL     1      47.859   7.785  19.886  0.00  0.00    +0.000 S 
ATOM     15  C   UNL     1      48.342   6.195  19.501  0.00  0.00    +0.000 A 
ATOM     16  N   UNL     1      48.662   5.272  20.446  0.00  0.00    +0.000 NA
ATOM     17  C   UNL     1      48.960   4.105  19.970  0.00  0.00    +0.000 A 
ATOM     18  N   UNL     1      48.912   3.761  18.640  0.00  0.00    +0.000 N 
ATOM     19  C   UNL     1      48.592   4.659  17.649  0.00  0.00    +0.000 A 
ATOM     20  O   UNL     1      48.509   4.332  16.471  0.00  0.00    +0.000 OA
ATOM     21  C   UNL     1      48.383   6.006  18.137  0.00  0.00    +0.000 A 
ATOM     22  H   UNL     1      49.078   2.810  18.343  0.00  0.00    +0.000 HD
ENDBRANCH   9  12
ENDBRANCH   7  10
ENDBRANCH   1   7
BRANCH   4  23
ATOM     23  C   UNL     1      44.384   4.314  11.069  0.00  0.00    +0.000 C 
BRANCH  23  24
ATOM     24  N   UNL     1      44.152   4.748   9.673  0.00  0.00    +0.000 NA
ATOM     25  H   UNL     1      44.649   5.635   9.567  0.00  0.00    +0.000 HD
BRANCH  24  26
ATOM     26  C   UNL     1      44.663   3.803   8.666  0.00  0.00    +0.000 C 
ATOM     27  C   UNL     1      45.947   4.308   7.987  0.00  0.00    +0.000 C 
ATOM     28  C   UNL     1      46.553   3.261   7.059  0.00  0.00    +0.000 C 
ATOM     29  C   UNL     1      46.812   1.953   7.797  0.00  0.00    +0.000 C 
ATOM     30  C   UNL     1      45.530   1.422   8.434  0.00  0.00    +0.000 C 
ATOM     31  C   UNL     1      44.905   2.453   9.368  0.00  0.00    +0.000 C 
BRANCH  29  32
ATOM     32  O   UNL     1      47.335   0.987   6.892  0.00  0.00    +0.000 OA
ATOM     33  H   UNL     1      47.113   1.268   5.989  0.00  0.00    +0.000 HD
ENDBRANCH  29  32
ENDBRANCH  24  26
ENDBRANCH  23  24
ENDBRANCH   4  23
TORSDOF 7
ENDMDL
MODEL 6
REMARK VINA RESULT:    -7.563      2.144      2.880
REMARK INTER + INTRA:         -11.156
REMARK INTER:                 -10.979
REMARK INTRA:                  -0.177
REMARK UNBOUND:                -0.720
REMARK  Name = 
REMARK  7 active torsions:
REMARK  status: ('A' for Active; 'I' for Inactive)
REMARK    1  A    between atoms: C_2  and  C_20
REMARK    2  A    between atoms: N_3  and  C_4
REMARK    3  A    between atoms: C_4  and  C_5
REMARK    4  A    between atoms: C_8  and  C_9
REMARK    5  A    between atoms: C_9  and  N_10
REMARK    6  A    between atoms: N_10  and  C_11
REMARK    7  A    between atoms: C_14  and  O_15
REMARK                            x       y       z     vdW  Elec       q    Type
REMARK                         _______ _______ _______ _____ _____    ______ ____
ROOT
ATOM      1  C   UNL     1      46.758   5.476  13.031  0.00  0.00    +0.000 A 
ATOM      2  C   UNL     1      45.686   6.030  12.366  0.00  0.00    +0.000 A 
ATOM      3  N   UNL     1      44.618   5.324  11.945  0.00  0.00    +0.000 NA
ATOM      4  C   UNL     1      44.620   4.003  12.226  0.00  0.00    +0.000 A 
ATOM      5  N   UNL     1      45.607   3.366  12.889  0.00  0.00    +0.000 NA
ATOM      6  C   UNL     1      46.650   4.120  13.280  0.00  0.00    +0.000 A 
ENDROOT
BRANCH   1   7
ATOM      7  C   UNL     1      47.877   6.306  13.569  0.00  0.00    +0.000 C 
BRANCH   7  10
ATOM      8  O   UNL     1      49.863   7.323  15.381  0.00  0.00    +0.000 OA
ATOM      9  C   UNL     1      48.951   6.607  15.775  0.00  0.00    +0.000 C 
ATOM     10  N   UNL     1      47.886   6.199  15.002  0.00  0.00    +0.000 N 
ATOM     11  H   UNL     1      47.311   5.460  15.380  0.00  0.00    +0.000 HD
BRANCH   9  12
ATOM     12  C   UNL     1      48.983   5.855  17.025  0.00  0.00    +0.000 A 
ATOM     13  C   UNL     1      49.022   4.474  17.062  0.00  0.00    +0.000 A 
ATOM     14  S   UNL     1      48.358   3.873  18.528  0.00  0.00    +0.000 S 
ATOM     15  C   UNL     1      48.182   5.446  19.162  0.00  0.00    +0.000 A 
ATOM     16  N   UNL     1      47.513   5.705  20.317  0.00  0.00    +0.000 NA
ATOM     17  C   UNL     1      47.522   6.951  20.669  0.00  0.00    +0.000 A 
ATOM     18  N   UNL     1      48.186   7.953  20.002  0.00  0.00    +0.000 N 
ATOM     19  C   UNL     1      48.876   7.740  18.832  0.00  0.00    +0.000 A 
ATOM     20  O   UNL     1      49.502   8.630  18.269  0.00  0.00    +0.000 OA
ATOM     21  C   UNL     1      48.774   6.381  18.342  0.00  0.00    +0.000 A 
ATOM     22  H   UNL     1      48.220   8.892  20.375  0.00  0.00    +0.000 HD
ENDBRANCH   9  12
ENDBRANCH   7  10
ENDBRANCH   1   7
BRANCH   4  23
ATOM     23  C   UNL     1      43.472   3.169  11.680  0.00  0.00    +0.000 C 
BRANCH  23  24
ATOM     24  N   UNL     1      43.846   2.231  10.598  0.00  0.00    +0.000 NA
ATOM     25  H   UNL     1      43.019   2.139  10.005  0.00  0.00    +0.000 HD
BRANCH  24  26
ATOM     26  C   UNL     1      44.966   2.702   9.766  0.00  0.00    +0.000 C 
ATOM     27  C   UNL     1      45.455   1.627   8.779  0.00  0.00    +0.000 C 
ATOM     28  C   UNL     1      46.508   2.170   7.819  0.00  0.00    +0.000 C 
ATOM     29  C   UNL     1      45.995   3.396   7.072  0.00  0.00    +0.000 C 
ATOM     30  C   UNL     1      45.553   4.484   8.046  0.00  0.00    +0.000 C 
ATOM     31  C   UNL     1      44.497   3.965   9.018  0.00  0.00    +0.000 C 
BRANCH  29  32
ATOM     32  O   UNL     1      47.017   3.899   6.219  0.00  0.00    +0.000 OA
ATOM     33  H   UNL     1      46.594   4.409   5.509  0.00  0.00    +0.000 HD
ENDBRANCH  29  32
ENDBRANCH  24  26
ENDBRANCH  23  24
ENDBRANCH   4  23
TORSDOF 7
ENDMDL
MODEL 7
REMARK VINA RESULT:    -7.426      3.638      8.188
REMARK INTER + INTRA:         -10.967
REMARK INTER:                  -9.839
REMARK INTRA:                  -1.127
REMARK UNBOUND:                -0.720
REMARK  Name = 
REMARK  7 active torsions:
REMARK  status: ('A' for Active; 'I' for Inactive)
REMARK    1  A    between atoms: C_2  and  C_20
REMARK    2  A    between atoms: N_3  and  C_4
REMARK    3  A    between atoms: C_4  and  C_5
REMARK    4  A    between atoms: C_8  and  C_9
REMARK    5  A    between atoms: C_9  and  N_10
REMARK    6  A    between atoms: N_10  and  C_11
REMARK    7  A    between atoms: C_14  and  O_15
REMARK                            x       y       z     vdW  Elec       q    Type
REMARK                         _______ _______ _______ _____ _____    ______ ____
ROOT
ATOM      1  C   UNL     1      47.654   8.003  13.814  0.00  0.00    +0.000 A 
ATOM      2  C   UNL     1      48.132   6.710  13.834  0.00  0.00    +0.000 A 
ATOM      3  N   UNL     1      49.020   6.252  14.738  0.00  0.00    +0.000 NA
ATOM      4  C   UNL     1      49.429   7.131  15.679  0.00  0.00    +0.000 A 
ATOM      5  N   UNL     1      49.008   8.409  15.763  0.00  0.00    +0.000 NA
ATOM      6  C   UNL     1      48.126   8.813  14.830  0.00  0.00    +0.000 A 
ENDROOT
BRANCH   1   7
ATOM      7  C   UNL     1      46.597   8.447  12.857  0.00  0.00    +0.000 C 
BRANCH   7  10
ATOM      8  O   UNL     1      44.236   7.746  11.374  0.00  0.00    +0.000 OA
ATOM      9  C   UNL     1      45.278   7.115  11.244  0.00  0.00    +0.000 C 
ATOM     10  N   UNL     1      46.484   7.472  11.807  0.00  0.00    +0.000 N 
ATOM     11  H   UNL     1      47.213   6.774  11.790  0.00  0.00    +0.000 HD
BRANCH   9  12
ATOM     12  C   UNL     1      45.352   5.759  10.713  0.00  0.00    +0.000 A 
ATOM     13  C   UNL     1      45.694   5.492   9.400  0.00  0.00    +0.000 A 
ATOM     14  S   UNL     1      45.039   3.991   8.881  0.00  0.00    +0.000 S 
ATOM     15  C   UNL     1      44.455   3.638  10.444  0.00  0.00    +0.000 A 
ATOM     16  N   UNL     1      43.634   2.586  10.704  0.00  0.00    +0.000 NA
ATOM     17  C   UNL     1      43.330   2.445  11.954  0.00  0.00    +0.000 A 
ATOM     18  N   UNL     1      43.816   3.226  12.976  0.00  0.00    +0.000 N 
ATOM     19  C   UNL     1      44.650   4.298  12.763  0.00  0.00    +0.000 A 
ATOM     20  O   UNL     1      45.113   4.961  13.683  0.00  0.00    +0.000 OA
ATOM     21  C   UNL     1      44.902   4.563  11.362  0.00  0.00    +0.000 A 
ATOM     22  H   UNL     1      43.603   3.012  13.940  0.00  0.00    +0.000 HD
ENDBRANCH   9  12
ENDBRANCH   7  10
ENDBRANCH   1   7
BRANCH   4  23
ATOM     23  C   UNL     1      50.499   6.665  16.652  0.00  0.00    +0.000 C 
BRANCH  23  24
ATOM     24  N   UNL     1      49.988   6.210  17.965  0.00  0.00    +0.000 NA
ATOM     25  H   UNL     1      48.981   6.383  17.951  0.00  0.00    +0.000 HD
BRANCH  24  26
ATOM     26  C   UNL     1      50.212   4.777  18.223  0.00  0.00    +0.000 C 
ATOM     27  C   UNL     1      49.189   3.884  17.500  0.00  0.00    +0.000 C 
ATOM     28  C   UNL     1      49.518   2.403  17.647  0.00  0.00    +0.000 C 
ATOM     29  C   UNL     1      50.933   2.101  17.167  0.00  0.00    +0.000 C 
ATOM     30  C   UNL     1      51.957   2.951  17.915  0.00  0.00    +0.000 C 
ATOM     31  C   UNL     1      51.649   4.439  17.781  0.00  0.00    +0.000 C 
BRANCH  29  32
ATOM     32  O   UNL     1      51.220   0.721  17.359  0.00  0.00    +0.000 OA
ATOM     33  H   UNL     1      51.449   0.587  18.294  0.00  0.00    +0.000 HD
ENDBRANCH  29  32
ENDBRANCH  24  26
ENDBRANCH  23  24
ENDBRANCH   4  23
TORSDOF 7
ENDMDL
MODEL 8
REMARK VINA RESULT:    -7.076      2.918      3.792
REMARK INTER + INTRA:         -10.485
REMARK INTER:                  -9.285
REMARK INTRA:                  -1.200
REMARK UNBOUND:                -0.720
REMARK  Name = 
REMARK  7 active torsions:
REMARK  status: ('A' for Active; 'I' for Inactive)
REMARK    1  A    between atoms: C_2  and  C_20
REMARK    2  A    between atoms: N_3  and  C_4
REMARK    3  A    between atoms: C_4  and  C_5
REMARK    4  A    between atoms: C_8  and  C_9
REMARK    5  A    between atoms: C_9  and  N_10
REMARK    6  A    between atoms: N_10  and  C_11
REMARK    7  A    between atoms: C_14  and  O_15
REMARK                            x       y       z     vdW  Elec       q    Type
REMARK                         _______ _______ _______ _____ _____    ______ ____
ROOT
ATOM      1  C   UNL     1      48.821   8.097  13.604  0.00  0.00    +0.000 A 
ATOM      2  C   UNL     1      47.597   8.549  14.048  0.00  0.00    +0.000 A 
ATOM      3  N   UNL     1      46.438   8.342  13.392  0.00  0.00    +0.000 NA
ATOM      4  C   UNL     1      46.513   7.629  12.247  0.00  0.00    +0.000 A 
ATOM      5  N   UNL     1      47.654   7.123  11.737  0.00  0.00    +0.000 NA
ATOM      6  C   UNL     1      48.781   7.366  12.432  0.00  0.00    +0.000 A 
ENDROOT
BRANCH   1   7
ATOM      7  C   UNL     1      50.069   8.261  14.408  0.00  0.00    +0.000 C 
BRANCH   7  10
ATOM      8  O   UNL     1      51.400   6.241  15.961  0.00  0.00    +0.000 OA
ATOM      9  C   UNL     1      50.404   6.814  16.385  0.00  0.00    +0.000 C 
ATOM     10  N   UNL     1      49.796   7.886  15.768  0.00  0.00    +0.000 N 
ATOM     11  H   UNL     1      48.880   8.142  16.108  0.00  0.00    +0.000 HD
BRANCH   9  12
ATOM     12  C   UNL     1      49.550   6.293  17.446  0.00  0.00    +0.000 A 
ATOM     13  C   UNL     1      49.725   6.630  18.775  0.00  0.00    +0.000 A 
ATOM     14  S   UNL     1      49.111   5.405  19.812  0.00  0.00    +0.000 S 
ATOM     15  C   UNL     1      48.473   4.528  18.496  0.00  0.00    +0.000 A 
ATOM     16  N   UNL     1      47.959   3.276  18.624  0.00  0.00    +0.000 NA
ATOM     17  C   UNL     1      47.478   2.784  17.527  0.00  0.00    +0.000 A 
ATOM     18  N   UNL     1      47.413   3.450  16.327  0.00  0.00    +0.000 N 
ATOM     19  C   UNL     1      47.917   4.717  16.149  0.00  0.00    +0.000 A 
ATOM     20  O   UNL     1      47.816   5.320  15.088  0.00  0.00    +0.000 OA
ATOM     21  C   UNL     1      48.581   5.243  17.323  0.00  0.00    +0.000 A 
ATOM     22  H   UNL     1      46.951   3.039  15.528  0.00  0.00    +0.000 HD
ENDBRANCH   9  12
ENDBRANCH   7  10
ENDBRANCH   1   7
BRANCH   4  23
ATOM     23  C   UNL     1      45.234   7.462  11.442  0.00  0.00    +0.000 C 
BRANCH  23  24
ATOM     24  N   UNL     1      45.297   6.427  10.386  0.00  0.00    +0.000 NA
ATOM     25  H   UNL     1      46.232   6.494   9.979  0.00  0.00    +0.000 HD
BRANCH  24  26
ATOM     26  C   UNL     1      45.105   5.056  10.888  0.00  0.00    +0.000 C 
ATOM     27  C   UNL     1      44.193   5.007  12.126  0.00  0.00    +0.000 C 
ATOM     28  C   UNL     1      43.876   3.576  12.546  0.00  0.00    +0.000 C 
ATOM     29  C   UNL     1      43.265   2.785  11.395  0.00  0.00    +0.000 C 
ATOM     30  C   UNL     1      44.186   2.790  10.179  0.00  0.00    +0.000 C 
ATOM     31  C   UNL     1      44.518   4.213   9.739  0.00  0.00    +0.000 C 
BRANCH  29  32
ATOM     32  O   UNL     1      43.022   1.445  11.810  0.00  0.00    +0.000 OA
ATOM     33  H   UNL     1      43.847   0.943  11.707  0.00  0.00    +0.000 HD
ENDBRANCH  29  32
ENDBRANCH  24  26
ENDBRANCH  23  24
ENDBRANCH   4  23
TORSDOF 7
ENDMDL
MODEL 9
REMARK VINA RESULT:    -6.006      3.109      4.344
REMARK INTER + INTRA:          -9.008
REMARK INTER:                  -8.215
REMARK INTRA:                  -0.793
REMARK UNBOUND:                -0.720
REMARK  Name = 
REMARK  7 active torsions:
REMARK  status: ('A' for Active; 'I' for Inactive)
REMARK    1  A    between atoms: C_2  and  C_20
REMARK    2  A    between atoms: N_3  and  C_4
REMARK    3  A    between atoms: C_4  and  C_5
REMARK    4  A    between atoms: C_8  and  C_9
REMARK    5  A    between atoms: C_9  and  N_10
REMARK    6  A    between atoms: N_10  and  C_11
REMARK    7  A    between atoms: C_14  and  O_15
REMARK                            x       y       z     vdW  Elec       q    Type
REMARK                         _______ _______ _______ _____ _____    ______ ____
ROOT
ATOM      1  C   UNL     1      48.953   7.639  13.927  0.00  0.00    +0.000 A 
ATOM      2  C   UNL     1      48.805   6.933  12.753  0.00  0.00    +0.000 A 
ATOM      3  N   UNL     1      47.682   6.941  12.008  0.00  0.00    +0.000 NA
ATOM      4  C   UNL     1      46.669   7.714  12.456  0.00  0.00    +0.000 A 
ATOM      5  N   UNL     1      46.716   8.460  13.578  0.00  0.00    +0.000 NA
ATOM      6  C   UNL     1      47.861   8.407  14.284  0.00  0.00    +0.000 A 
ENDROOT
BRANCH   1   7
ATOM      7  C   UNL     1      50.246   7.682  14.673  0.00  0.00    +0.000 C 
BRANCH   7  10
ATOM      8  O   UNL     1      52.064   6.204  16.338  0.00  0.00    +0.000 OA
ATOM      9  C   UNL     1      50.908   6.409  16.686  0.00  0.00    +0.000 C 
ATOM     10  N   UNL     1      50.021   7.225  16.016  0.00  0.00    +0.000 N 
ATOM     11  H   UNL     1      49.052   7.157  16.290  0.00  0.00    +0.000 HD
BRANCH   9  12
ATOM     12  C   UNL     1      50.205   5.623  17.694  0.00  0.00    +0.000 A 
ATOM     13  C   UNL     1      49.850   4.302  17.493  0.00  0.00    +0.000 A 
ATOM     14  S   UNL     1      48.494   3.870  18.456  0.00  0.00    +0.000 S 
ATOM     15  C   UNL     1      48.500   5.381  19.247  0.00  0.00    +0.000 A 
ATOM     16  N   UNL     1      47.504   5.780  20.081  0.00  0.00    +0.000 NA
ATOM     17  C   UNL     1      47.700   6.937  20.628  0.00  0.00    +0.000 A 
ATOM     18  N   UNL     1      48.827   7.707  20.461  0.00  0.00    +0.000 N 
ATOM     19  C   UNL     1      49.860   7.344  19.630  0.00  0.00    +0.000 A 
ATOM     20  O   UNL     1      50.879   8.015  19.521  0.00  0.00    +0.000 OA
ATOM     21  C   UNL     1      49.611   6.118  18.901  0.00  0.00    +0.000 A 
ATOM     22  H   UNL     1      48.952   8.564  20.981  0.00  0.00    +0.000 HD
ENDBRANCH   9  12
ENDBRANCH   7  10
ENDBRANCH   1   7
BRANCH   4  23
ATOM     23  C   UNL     1      45.360   7.667  11.684  0.00  0.00    +0.000 C 
BRANCH  23  24
ATOM     24  N   UNL     1      44.344   6.747  12.241  0.00  0.00    +0.000 NA
ATOM     25  H   UNL     1      43.501   7.308  12.383  0.00  0.00    +0.000 HD
BRANCH  24  26
ATOM     26  C   UNL     1      44.009   5.623  11.350  0.00  0.00    +0.000 C 
ATOM     27  C   UNL     1      45.077   5.397  10.265  0.00  0.00    +0.000 C 
ATOM     28  C   UNL     1      44.802   4.141   9.445  0.00  0.00    +0.000 C 
ATOM     29  C   UNL     1      44.674   2.914  10.340  0.00  0.00    +0.000 C 
ATOM     30  C   UNL     1      43.584   3.114  11.389  0.00  0.00    +0.000 C 
ATOM     31  C   UNL     1      43.838   4.365  12.224  0.00  0.00    +0.000 C 
BRANCH  29  32
ATOM     32  O   UNL     1      44.375   1.771   9.546  0.00  0.00    +0.000 OA
ATOM     33  H   UNL     1      43.973   1.100  10.122  0.00  0.00    +0.000 HD
ENDBRANCH  29  32
ENDBRANCH  24  26
ENDBRANCH  23  24
ENDBRANCH   4  23
TORSDOF 7
ENDMDL
