MODEL 1
REMARK VINA RESULT:    -7.763      0.000      0.000
REMARK INTER + INTRA:         -10.584
REMARK INTER:                 -10.032
REMARK INTRA:                  -0.552
REMARK UNBOUND:                -0.552
REMARK  Name = 
REMARK  5 active torsions:
REMARK  status: ('A' for Active; 'I' for Inactive)
REMARK    1  A    between atoms: C_7  and  C_8
REMARK    2  A    between atoms: N_10  and  C_11
REMARK    3  A    between atoms: C_11  and  C_12
REMARK    4  A    between atoms: C_15  and  C_16
REMARK    5  A    between atoms: C_16  and  N_17
REMARK                            x       y       z     vdW  Elec       q    Type
REMARK                         _______ _______ _______ _____ _____    ______ ____
ROOT
ATOM      1  C   UNL     1      48.899   7.088  14.547  0.00  0.00    +0.000 C 
ATOM      2  O   UNL     1      49.661   7.011  13.584  0.00  0.00    +0.000 OA
ATOM      3  N   UNL     1      47.615   7.543  14.398  0.00  0.00    +0.000 N 
ATOM      4  H   UNL     1      46.992   7.608  15.198  0.00  0.00    +0.000 HD
ENDROOT
BRANCH   1  11
ATOM      5  N   UNL     1      48.248   2.864  19.738  0.00  0.00    +0.000 N 
ATOM      6  C   UNL     1      48.486   3.821  18.808  0.00  0.00    +0.000 A 
ATOM      7  N   UNL     1      49.403   4.719  18.998  0.00  0.00    +0.000 NA
ATOM      8  C   UNL     1      49.573   5.602  17.978  0.00  0.00    +0.000 A 
ATOM      9  S   UNL     1      50.758   6.819  18.068  0.00  0.00    +0.000 S 
ATOM     10  C   UNL     1      50.365   7.392  16.511  0.00  0.00    +0.000 A 
ATOM     11  C   UNL     1      49.331   6.694  15.897  0.00  0.00    +0.000 A 
ATOM     12  C   UNL     1      48.876   5.644  16.783  0.00  0.00    +0.000 A 
ATOM     13  C   UNL     1      47.842   4.641  16.623  0.00  0.00    +0.000 A 
ATOM     14  O   UNL     1      47.127   4.536  15.633  0.00  0.00    +0.000 OA
ATOM     15  N   UNL     1      47.712   3.775  17.683  0.00  0.00    +0.000 N 
ATOM     16  H   UNL     1      48.664   3.057  20.644  0.00  0.00    +0.000 HD
ATOM     17  H   UNL     1      47.342   2.421  19.778  0.00  0.00    +0.000 HD
ATOM     18  H   UNL     1      47.022   3.050  17.570  0.00  0.00    +0.000 HD
ENDBRANCH   1  11
BRANCH   3  19
ATOM     19  C   UNL     1      47.101   7.947  13.114  0.00  0.00    +0.000 C 
BRANCH  19  20
ATOM     20  C   UNL     1      46.183   6.913  12.529  0.00  0.00    +0.000 A 
ATOM     21  C   UNL     1      46.474   5.550  12.608  0.00  0.00    +0.000 A 
ATOM     22  C   UNL     1      45.603   4.619  12.044  0.00  0.00    +0.000 A 
ATOM     23  C   UNL     1      44.444   5.073  11.420  0.00  0.00    +0.000 A 
ATOM     24  N   UNL     1      44.126   6.393  11.356  0.00  0.00    +0.000 NA
ATOM     25  C   UNL     1      44.991   7.272  11.912  0.00  0.00    +0.000 A 
BRANCH  23  26
ATOM     26  C   UNL     1      43.499   4.094  10.745  0.00  0.00    +0.000 C 
BRANCH  26  27
ATOM     27  N   UNL     1      44.000   3.479   9.484  0.00  0.00    +0.000 NA
ATOM     28  C   UNL     1      44.991   4.370   8.853  0.00  0.00    +0.000 C 
ATOM     29  C   UNL     1      45.695   3.729   7.655  0.00  0.00    +0.000 C 
ATOM     30  C   UNL     1      46.334   2.404   8.041  0.00  0.00    +0.000 C 
ATOM     31  C   UNL     1      45.273   1.487   8.630  0.00  0.00    +0.000 C 
ATOM     32  C   UNL     1      44.566   2.157   9.809  0.00  0.00    +0.000 C 
ENDBRANCH  26  27
ENDBRANCH  23  26
ENDBRANCH  19  20
ENDBRANCH   3  19
TORSDOF 5
ENDMDL
MODEL 2
REMARK VINA RESULT:    -7.649      3.758      4.773
REMARK INTER + INTRA:         -10.437
REMARK INTER:                  -9.548
REMARK INTRA:                  -0.890
REMARK UNBOUND:                -0.552
REMARK  Name = 
REMARK  5 active torsions:
REMARK  status: ('A' for Active; 'I' for Inactive)
REMARK    1  A    between atoms: C_7  and  C_8
REMARK    2  A    between atoms: N_10  and  C_11
REMARK    3  A    between atoms: C_11  and  C_12
REMARK    4  A    between atoms: C_15  and  C_16
REMARK    5  A    between atoms: C_16  and  N_17
REMARK                            x       y       z     vdW  Elec       q    Type
REMARK                         _______ _______ _______ _____ _____    ______ ____
ROOT
ATOM      1  C   UNL     1      45.461   8.131  12.170  0.00  0.00    +0.000 C 
ATOM      2  O   UNL     1      44.746   8.316  11.186  0.00  0.00    +0.000 OA
ATOM      3  N   UNL     1      45.145   7.181  13.106  0.00  0.00    +0.000 N 
ATOM      4  H   UNL     1      45.738   7.036  13.918  0.00  0.00    +0.000 HD
ENDROOT
BRANCH   1  11
ATOM      5  N   UNL     1      52.095   8.169  13.272  0.00  0.00    +0.000 N 
ATOM      6  C   UNL     1      50.764   8.347  13.088  0.00  0.00    +0.000 A 
ATOM      7  N   UNL     1      50.261   9.539  12.988  0.00  0.00    +0.000 NA
ATOM      8  C   UNL     1      48.919   9.588  12.768  0.00  0.00    +0.000 A 
ATOM      9  S   UNL     1      48.121  11.077  12.585  0.00  0.00    +0.000 S 
ATOM     10  C   UNL     1      46.623  10.305  12.325  0.00  0.00    +0.000 A 
ATOM     11  C   UNL     1      46.687   8.917  12.382  0.00  0.00    +0.000 A 
ATOM     12  C   UNL     1      48.052   8.515  12.649  0.00  0.00    +0.000 A 
ATOM     13  C   UNL     1      48.650   7.204  12.794  0.00  0.00    +0.000 A 
ATOM     14  O   UNL     1      48.031   6.149  12.723  0.00  0.00    +0.000 OA
ATOM     15  N   UNL     1      50.007   7.212  13.016  0.00  0.00    +0.000 N 
ATOM     16  H   UNL     1      52.589   9.011  13.551  0.00  0.00    +0.000 HD
ATOM     17  H   UNL     1      52.430   7.322  13.707  0.00  0.00    +0.000 HD
ATOM     18  H   UNL     1      50.442   6.306  13.084  0.00  0.00    +0.000 HD
ENDBRANCH   1  11
BRANCH   3  19
ATOM     19  C   UNL     1      43.968   6.360  12.981  0.00  0.00    +0.000 C 
BRANCH  19  20
ATOM     20  C   UNL     1      44.179   5.224  12.022  0.00  0.00    +0.000 A 
ATOM     21  C   UNL     1      44.997   4.140  12.342  0.00  0.00    +0.000 A 
ATOM     22  C   UNL     1      45.178   3.109  11.421  0.00  0.00    +0.000 A 
ATOM     23  C   UNL     1      44.521   3.178  10.195  0.00  0.00    +0.000 A 
ATOM     24  N   UNL     1      43.697   4.209   9.872  0.00  0.00    +0.000 NA
ATOM     25  C   UNL     1      43.542   5.195  10.787  0.00  0.00    +0.000 A 
BRANCH  23  26
ATOM     26  C   UNL     1      44.738   2.102   9.144  0.00  0.00    +0.000 C 
BRANCH  26  27
ATOM     27  N   UNL     1      45.968   2.245   8.318  0.00  0.00    +0.000 NA
ATOM     28  C   UNL     1      46.382   0.926   7.805  0.00  0.00    +0.000 C 
ATOM     29  C   UNL     1      47.526   1.010   6.792  0.00  0.00    +0.000 C 
ATOM     30  C   UNL     1      47.173   1.944   5.645  0.00  0.00    +0.000 C 
ATOM     31  C   UNL     1      46.813   3.312   6.205  0.00  0.00    +0.000 C 
ATOM     32  C   UNL     1      45.686   3.203   7.232  0.00  0.00    +0.000 C 
ENDBRANCH  26  27
ENDBRANCH  23  26
ENDBRANCH  19  20
ENDBRANCH   3  19
TORSDOF 5
ENDMDL
MODEL 3
REMARK VINA RESULT:    -7.299      3.587      8.372
REMARK INTER + INTRA:          -9.986
REMARK INTER:                  -9.176
REMARK INTRA:                  -0.809
REMARK UNBOUND:                -0.552
REMARK  Name = 
REMARK  5 active torsions:
REMARK  status: ('A' for Active; 'I' for Inactive)
REMARK    1  A    between atoms: C_7  and  C_8
REMARK    2  A    between atoms: N_10  and  C_11
REMARK    3  A    between atoms: C_11  and  C_12
REMARK    4  A    between atoms: C_15  and  C_16
REMARK    5  A    between atoms: C_16  and  N_17
REMARK                            x       y       z     vdW  Elec       q    Type
REMARK                         _______ _______ _______ _____ _____    ______ ____
ROOT
ATOM      1  C   UNL     1      48.028   6.715  13.601  0.00  0.00    +0.000 C 
ATOM      2  O   UNL     1      49.124   6.582  13.059  0.00  0.00    +0.000 OA
ATOM      3  N   UNL     1      47.928   7.159  14.894  0.00  0.00    +0.000 N 
ATOM      4  H   UNL     1      47.019   7.263  15.337  0.00  0.00    +0.000 HD
ENDROOT
BRANCH   1  11
ATOM      5  N   UNL     1      43.451   2.118  11.829  0.00  0.00    +0.000 N 
ATOM      6  C   UNL     1      44.288   3.159  12.061  0.00  0.00    +0.000 A 
ATOM      7  N   UNL     1      44.005   4.349  11.627  0.00  0.00    +0.000 NA
ATOM      8  C   UNL     1      44.902   5.317  11.955  0.00  0.00    +0.000 A 
ATOM      9  S   UNL     1      44.654   6.931  11.482  0.00  0.00    +0.000 S 
ATOM     10  C   UNL     1      46.081   7.437  12.265  0.00  0.00    +0.000 A 
ATOM     11  C   UNL     1      46.779   6.408  12.886  0.00  0.00    +0.000 A 
ATOM     12  C   UNL     1      46.067   5.163  12.686  0.00  0.00    +0.000 A 
ATOM     13  C   UNL     1      46.359   3.815  13.129  0.00  0.00    +0.000 A 
ATOM     14  O   UNL     1      47.348   3.499  13.780  0.00  0.00    +0.000 OA
ATOM     15  N   UNL     1      45.422   2.876  12.770  0.00  0.00    +0.000 N 
ATOM     16  H   UNL     1      42.751   2.303  11.117  0.00  0.00    +0.000 HD
ATOM     17  H   UNL     1      43.815   1.177  11.826  0.00  0.00    +0.000 HD
ATOM     18  H   UNL     1      45.594   1.941  13.101  0.00  0.00    +0.000 HD
ENDBRANCH   1  11
BRANCH   3  19
ATOM     19  C   UNL     1      49.095   7.490  15.672  0.00  0.00    +0.000 C 
BRANCH  19  20
ATOM     20  C   UNL     1      49.661   6.286  16.367  0.00  0.00    +0.000 A 
ATOM     21  C   UNL     1      48.838   5.268  16.854  0.00  0.00    +0.000 A 
ATOM     22  C   UNL     1      49.400   4.170  17.504  0.00  0.00    +0.000 A 
ATOM     23  C   UNL     1      50.784   4.105  17.642  0.00  0.00    +0.000 A 
ATOM     24  N   UNL     1      51.607   5.069  17.151  0.00  0.00    +0.000 NA
ATOM     25  C   UNL     1      51.032   6.122  16.526  0.00  0.00    +0.000 A 
BRANCH  23  26
ATOM     26  C   UNL     1      51.429   2.953  18.393  0.00  0.00    +0.000 C 
BRANCH  26  27
ATOM     27  N   UNL     1      52.768   2.529  17.899  0.00  0.00    +0.000 NA
ATOM     28  C   UNL     1      53.782   2.760  18.945  0.00  0.00    +0.000 C 
ATOM     29  C   UNL     1      55.151   2.175  18.590  0.00  0.00    +0.000 C 
ATOM     30  C   UNL     1      55.046   0.694  18.264  0.00  0.00    +0.000 C 
ATOM     31  C   UNL     1      54.039   0.498  17.140  0.00  0.00    +0.000 C 
ATOM     32  C   UNL     1      52.687   1.110  17.505  0.00  0.00    +0.000 C 
ENDBRANCH  26  27
ENDBRANCH  23  26
ENDBRANCH  19  20
ENDBRANCH   3  19
TORSDOF 5
ENDMDL
MODEL 4
REMARK VINA RESULT:    -7.099      2.259      4.054
REMARK INTER + INTRA:          -9.727
REMARK INTER:                  -9.419
REMARK INTRA:                  -0.308
REMARK UNBOUND:                -0.552
REMARK  Name = 
REMARK  5 active torsions:
REMARK  status: ('A' for Active; 'I' for Inactive)
REMARK    1  A    between atoms: C_7  and  C_8
REMARK    2  A    between atoms: N_10  and  C_11
REMARK    3  A    between atoms: C_11  and  C_12
REMARK    4  A    between atoms: C_15  and  C_16
REMARK    5  A    between atoms: C_16  and  N_17
REMARK                            x       y       z     vdW  Elec       q    Type
REMARK                         _______ _______ _______ _____ _____    ______ ____
ROOT
ATOM      1  C   UNL     1      48.366   5.685  15.740  0.00  0.00    +0.000 C 
ATOM      2  O   UNL     1      48.609   4.723  16.468  0.00  0.00    +0.000 OA
ATOM      3  N   UNL     1      47.434   5.598  14.740  0.00  0.00    +0.000 N 
ATOM      4  H   UNL     1      47.242   6.395  14.139  0.00  0.00    +0.000 HD
ENDROOT
BRANCH   1  11
ATOM      5  N   UNL     1      51.544  10.884  12.894  0.00  0.00    +0.000 N 
ATOM      6  C   UNL     1      50.966   9.905  13.634  0.00  0.00    +0.000 A 
ATOM      7  N   UNL     1      50.864  10.018  14.923  0.00  0.00    +0.000 NA
ATOM      8  C   UNL     1      50.232   8.989  15.549  0.00  0.00    +0.000 A 
ATOM      9  S   UNL     1      49.996   9.008  17.232  0.00  0.00    +0.000 S 
ATOM     10  C   UNL     1      49.170   7.518  17.188  0.00  0.00    +0.000 A 
ATOM     11  C   UNL     1      49.063   6.969  15.914  0.00  0.00    +0.000 A 
ATOM     12  C   UNL     1      49.701   7.853  14.962  0.00  0.00    +0.000 A 
ATOM     13  C   UNL     1      49.860   7.754  13.526  0.00  0.00    +0.000 A 
ATOM     14  O   UNL     1      49.456   6.816  12.848  0.00  0.00    +0.000 OA
ATOM     15  N   UNL     1      50.506   8.819  12.944  0.00  0.00    +0.000 N 
ATOM     16  H   UNL     1      52.074  11.555  13.442  0.00  0.00    +0.000 HD
ATOM     17  H   UNL     1      51.950  10.658  11.998  0.00  0.00    +0.000 HD
ATOM     18  H   UNL     1      50.592   8.780  11.941  0.00  0.00    +0.000 HD
ENDBRANCH   1  11
BRANCH   3  19
ATOM     19  C   UNL     1      46.698   4.383  14.496  0.00  0.00    +0.000 C 
BRANCH  19  20
ATOM     20  C   UNL     1      46.087   4.366  13.126  0.00  0.00    +0.000 A 
ATOM     21  C   UNL     1      46.217   5.448  12.254  0.00  0.00    +0.000 A 
ATOM     22  C   UNL     1      45.626   5.400  10.992  0.00  0.00    +0.000 A 
ATOM     23  C   UNL     1      44.923   4.257  10.621  0.00  0.00    +0.000 A 
ATOM     24  N   UNL     1      44.806   3.180  11.441  0.00  0.00    +0.000 NA
ATOM     25  C   UNL     1      45.391   3.257  12.660  0.00  0.00    +0.000 A 
BRANCH  23  26
ATOM     26  C   UNL     1      44.217   4.191   9.277  0.00  0.00    +0.000 C 
BRANCH  26  27
ATOM     27  N   UNL     1      44.852   3.312   8.257  0.00  0.00    +0.000 NA
ATOM     28  C   UNL     1      45.968   4.025   7.608  0.00  0.00    +0.000 C 
ATOM     29  C   UNL     1      46.795   3.128   6.684  0.00  0.00    +0.000 C 
ATOM     30  C   UNL     1      47.302   1.900   7.424  0.00  0.00    +0.000 C 
ATOM     31  C   UNL     1      46.122   1.154   8.027  0.00  0.00    +0.000 C 
ATOM     32  C   UNL     1      45.296   2.074   8.927  0.00  0.00    +0.000 C 
ENDBRANCH  26  27
ENDBRANCH  23  26
ENDBRANCH  19  20
ENDBRANCH   3  19
TORSDOF 5
ENDMDL
MODEL 5
REMARK VINA RESULT:    -6.904      1.853      2.160
REMARK INTER + INTRA:          -9.474
REMARK INTER:                  -8.596
REMARK INTRA:                  -0.878
REMARK UNBOUND:                -0.552
REMARK  Name = 
REMARK  5 active torsions:
REMARK  status: ('A' for Active; 'I' for Inactive)
REMARK    1  A    between atoms: C_7  and  C_8
REMARK    2  A    between atoms: N_10  and  C_11
REMARK    3  A    between atoms: C_11  and  C_12
REMARK    4  A    between atoms: C_15  and  C_16
REMARK    5  A    between atoms: C_16  and  N_17
REMARK                            x       y       z     vdW  Elec       q    Type
REMARK                         _______ _______ _______ _____ _____    ______ ____
ROOT
ATOM      1  C   UNL     1      48.482   9.088  16.242  0.00  0.00    +0.000 C 
ATOM      2  O   UNL     1      49.235   9.990  15.877  0.00  0.00    +0.000 OA
ATOM      3  N   UNL     1      47.618   8.488  15.363  0.00  0.00    +0.000 N 
ATOM      4  H   UNL     1      46.996   7.746  15.672  0.00  0.00    +0.000 HD
ENDROOT
BRANCH   1  11
ATOM      5  N   UNL     1      48.581   3.878  20.493  0.00  0.00    +0.000 N 
ATOM      6  C   UNL     1      48.521   5.035  19.788  0.00  0.00    +0.000 A 
ATOM      7  N   UNL     1      48.509   6.182  20.394  0.00  0.00    +0.000 NA
ATOM      8  C   UNL     1      48.485   7.271  19.578  0.00  0.00    +0.000 A 
ATOM      9  S   UNL     1      48.496   8.843  20.225  0.00  0.00    +0.000 S 
ATOM     10  C   UNL     1      48.498   9.541  18.670  0.00  0.00    +0.000 A 
ATOM     11  C   UNL     1      48.478   8.613  17.635  0.00  0.00    +0.000 A 
ATOM     12  C   UNL     1      48.466   7.278  18.195  0.00  0.00    +0.000 A 
ATOM     13  C   UNL     1      48.453   5.976  17.559  0.00  0.00    +0.000 A 
ATOM     14  O   UNL     1      48.431   5.798  16.346  0.00  0.00    +0.000 OA
ATOM     15  N   UNL     1      48.477   4.911  18.428  0.00  0.00    +0.000 N 
ATOM     16  H   UNL     1      48.380   3.987  21.482  0.00  0.00    +0.000 HD
ATOM     17  H   UNL     1      48.227   3.026  20.084  0.00  0.00    +0.000 HD
ATOM     18  H   UNL     1      48.504   4.000  17.999  0.00  0.00    +0.000 HD
ENDBRANCH   1  11
BRANCH   3  19
ATOM     19  C   UNL     1      47.554   8.882  13.979  0.00  0.00    +0.000 C 
BRANCH  19  20
ATOM     20  C   UNL     1      46.799   7.885  13.149  0.00  0.00    +0.000 A 
ATOM     21  C   UNL     1      47.176   6.542  13.098  0.00  0.00    +0.000 A 
ATOM     22  C   UNL     1      46.457   5.647  12.307  0.00  0.00    +0.000 A 
ATOM     23  C   UNL     1      45.359   6.114  11.590  0.00  0.00    +0.000 A 
ATOM     24  N   UNL     1      44.955   7.411  11.646  0.00  0.00    +0.000 NA
ATOM     25  C   UNL     1      45.674   8.255  12.422  0.00  0.00    +0.000 A 
BRANCH  23  26
ATOM     26  C   UNL     1      44.585   5.181  10.674  0.00  0.00    +0.000 C 
BRANCH  26  27
ATOM     27  N   UNL     1      45.404   4.198   9.913  0.00  0.00    +0.000 NA
ATOM     28  C   UNL     1      44.653   2.938   9.755  0.00  0.00    +0.000 C 
ATOM     29  C   UNL     1      45.344   1.942   8.822  0.00  0.00    +0.000 C 
ATOM     30  C   UNL     1      45.629   2.569   7.466  0.00  0.00    +0.000 C 
ATOM     31  C   UNL     1      46.457   3.830   7.660  0.00  0.00    +0.000 C 
ATOM     32  C   UNL     1      45.760   4.800   8.615  0.00  0.00    +0.000 C 
ENDBRANCH  26  27
ENDBRANCH  23  26
ENDBRANCH  19  20
ENDBRANCH   3  19
TORSDOF 5
ENDMDL
MODEL 6
REMARK VINA RESULT:    -6.791      2.952      7.567
REMARK INTER + INTRA:          -9.328
REMARK INTER:                  -8.679
REMARK INTRA:                  -0.649
REMARK UNBOUND:                -0.552
REMARK  Name = 
REMARK  5 active torsions:
REMARK  status: ('A' for Active; 'I' for Inactive)
REMARK    1  A    between atoms: C_7  and  C_8
REMARK    2  A    between atoms: N_10  and  C_11
REMARK    3  A    between atoms: C_11  and  C_12
REMARK    4  A    between atoms: C_15  and  C_16
REMARK    5  A    between atoms: C_16  and  N_17
REMARK                            x       y       z     vdW  Elec       q    Type
REMARK                         _______ _______ _______ _____ _____    ______ ____
ROOT
ATOM      1  C   UNL     1      47.366   7.973  13.209  0.00  0.00    +0.000 C 
ATOM      2  O   UNL     1      48.452   7.960  12.630  0.00  0.00    +0.000 OA
ATOM      3  N   UNL     1      47.217   8.599  14.418  0.00  0.00    +0.000 N 
ATOM      4  H   UNL     1      46.318   8.603  14.893  0.00  0.00    +0.000 HD
ENDROOT
BRANCH   1  11
ATOM      5  N   UNL     1      43.768   2.351  12.394  0.00  0.00    +0.000 N 
ATOM      6  C   UNL     1      44.381   3.559  12.425  0.00  0.00    +0.000 A 
ATOM      7  N   UNL     1      43.845   4.592  11.848  0.00  0.00    +0.000 NA
ATOM      8  C   UNL     1      44.536   5.756  11.980  0.00  0.00    +0.000 A 
ATOM      9  S   UNL     1      43.945   7.200  11.305  0.00  0.00    +0.000 S 
ATOM     10  C   UNL     1      45.265   8.089  11.915  0.00  0.00    +0.000 A 
ATOM     11  C   UNL     1      46.182   7.322  12.626  0.00  0.00    +0.000 A 
ATOM     12  C   UNL     1      45.733   5.946  12.648  0.00  0.00    +0.000 A 
ATOM     13  C   UNL     1      46.311   4.764  13.253  0.00  0.00    +0.000 A 
ATOM     14  O   UNL     1      47.367   4.750  13.876  0.00  0.00    +0.000 OA
ATOM     15  N   UNL     1      45.574   3.615  13.090  0.00  0.00    +0.000 N 
ATOM     16  H   UNL     1      43.020   2.285  11.710  0.00  0.00    +0.000 HD
ATOM     17  H   UNL     1      44.317   1.510  12.498  0.00  0.00    +0.000 HD
ATOM     18  H   UNL     1      45.945   2.792  13.536  0.00  0.00    +0.000 HD
ENDBRANCH   1  11
BRANCH   3  19
ATOM     19  C   UNL     1      48.318   9.268  15.064  0.00  0.00    +0.000 C 
BRANCH  19  20
ATOM     20  C   UNL     1      49.056   8.353  15.997  0.00  0.00    +0.000 A 
ATOM     21  C   UNL     1      50.186   7.646  15.585  0.00  0.00    +0.000 A 
ATOM     22  C   UNL     1      50.840   6.797  16.478  0.00  0.00    +0.000 A 
ATOM     23  C   UNL     1      50.353   6.682  17.777  0.00  0.00    +0.000 A 
ATOM     24  N   UNL     1      49.271   7.382  18.210  0.00  0.00    +0.000 NA
ATOM     25  C   UNL     1      48.659   8.198  17.320  0.00  0.00    +0.000 A 
BRANCH  23  26
ATOM     26  C   UNL     1      51.004   5.725  18.761  0.00  0.00    +0.000 C 
BRANCH  26  27
ATOM     27  N   UNL     1      50.555   4.308  18.676  0.00  0.00    +0.000 NA
ATOM     28  C   UNL     1      49.115   4.258  18.356  0.00  0.00    +0.000 C 
ATOM     29  C   UNL     1      48.617   2.842  18.062  0.00  0.00    +0.000 C 
ATOM     30  C   UNL     1      49.434   2.193  16.956  0.00  0.00    +0.000 C 
ATOM     31  C   UNL     1      50.904   2.204  17.345  0.00  0.00    +0.000 C 
ATOM     32  C   UNL     1      51.375   3.624  17.658  0.00  0.00    +0.000 C 
ENDBRANCH  26  27
ENDBRANCH  23  26
ENDBRANCH  19  20
ENDBRANCH   3  19
TORSDOF 5
ENDMDL
MODEL 7
REMARK VINA RESULT:    -6.571      3.100      4.026
REMARK INTER + INTRA:          -9.045
REMARK INTER:                  -8.901
REMARK INTRA:                  -0.144
REMARK UNBOUND:                -0.552
REMARK  Name = 
REMARK  5 active torsions:
REMARK  status: ('A' for Active; 'I' for Inactive)
REMARK    1  A    between atoms: C_7  and  C_8
REMARK    2  A    between atoms: N_10  and  C_11
REMARK    3  A    between atoms: C_11  and  C_12
REMARK    4  A    between atoms: C_15  and  C_16
REMARK    5  A    between atoms: C_16  and  N_17
REMARK                            x       y       z     vdW  Elec       q    Type
REMARK                         _______ _______ _______ _____ _____    ______ ____
ROOT
ATOM      1  C   UNL     1      47.655   7.935  12.610  0.00  0.00    +0.000 C 
ATOM      2  O   UNL     1      46.857   8.746  12.143  0.00  0.00    +0.000 OA
ATOM      3  N   UNL     1      47.224   6.760  13.169  0.00  0.00    +0.000 N 
ATOM      4  H   UNL     1      47.888   6.096  13.557  0.00  0.00    +0.000 HD
ENDROOT
BRANCH   1  11
ATOM      5  N   UNL     1      53.547   7.674  15.842  0.00  0.00    +0.000 N 
ATOM      6  C   UNL     1      52.450   7.830  15.060  0.00  0.00    +0.000 A 
ATOM      7  N   UNL     1      52.556   8.286  13.849  0.00  0.00    +0.000 NA
ATOM      8  C   UNL     1      51.391   8.363  13.152  0.00  0.00    +0.000 A 
ATOM      9  S   UNL     1      51.374   8.912  11.543  0.00  0.00    +0.000 S 
ATOM     10  C   UNL     1      49.690   8.673  11.422  0.00  0.00    +0.000 A 
ATOM     11  C   UNL     1      49.104   8.188  12.586  0.00  0.00    +0.000 A 
ATOM     12  C   UNL     1      50.127   8.017  13.596  0.00  0.00    +0.000 A 
ATOM     13  C   UNL     1      50.049   7.539  14.962  0.00  0.00    +0.000 A 
ATOM     14  O   UNL     1      49.011   7.195  15.517  0.00  0.00    +0.000 OA
ATOM     15  N   UNL     1      51.254   7.482  15.621  0.00  0.00    +0.000 N 
ATOM     16  H   UNL     1      54.373   8.149  15.492  0.00  0.00    +0.000 HD
ATOM     17  H   UNL     1      53.449   7.684  16.846  0.00  0.00    +0.000 HD
ATOM     18  H   UNL     1      51.220   7.118  16.559  0.00  0.00    +0.000 HD
ENDBRANCH   1  11
BRANCH   3  19
ATOM     19  C   UNL     1      45.825   6.423  13.233  0.00  0.00    +0.000 C 
BRANCH  19  20
ATOM     20  C   UNL     1      45.447   5.411  12.191  0.00  0.00    +0.000 A 
ATOM     21  C   UNL     1      44.969   5.796  10.938  0.00  0.00    +0.000 A 
ATOM     22  C   UNL     1      44.617   4.827   9.999  0.00  0.00    +0.000 A 
ATOM     23  C   UNL     1      44.766   3.483  10.331  0.00  0.00    +0.000 A 
ATOM     24  N   UNL     1      45.256   3.084  11.534  0.00  0.00    +0.000 NA
ATOM     25  C   UNL     1      45.587   4.048  12.424  0.00  0.00    +0.000 A 
BRANCH  23  26
ATOM     26  C   UNL     1      44.341   2.398   9.356  0.00  0.00    +0.000 C 
BRANCH  26  27
ATOM     27  N   UNL     1      45.140   2.307   8.103  0.00  0.00    +0.000 NA
ATOM     28  C   UNL     1      45.743   3.618   7.798  0.00  0.00    +0.000 C 
ATOM     29  C   UNL     1      46.734   3.564   6.633  0.00  0.00    +0.000 C 
ATOM     30  C   UNL     1      47.814   2.523   6.881  0.00  0.00    +0.000 C 
ATOM     31  C   UNL     1      47.161   1.172   7.130  0.00  0.00    +0.000 C 
ATOM     32  C   UNL     1      46.157   1.254   8.280  0.00  0.00    +0.000 C 
ENDBRANCH  26  27
ENDBRANCH  23  26
ENDBRANCH  19  20
ENDBRANCH   3  19
TORSDOF 5
ENDMDL
MODEL 8
REMARK VINA RESULT:    -6.407      1.775      2.269
REMARK INTER + INTRA:          -8.832
REMARK INTER:                  -8.488
REMARK INTRA:                  -0.344
REMARK UNBOUND:                -0.552
REMARK  Name = 
REMARK  5 active torsions:
REMARK  status: ('A' for Active; 'I' for Inactive)
REMARK    1  A    between atoms: C_7  and  C_8
REMARK    2  A    between atoms: N_10  and  C_11
REMARK    3  A    between atoms: C_11  and  C_12
REMARK    4  A    between atoms: C_15  and  C_16
REMARK    5  A    between atoms: C_16  and  N_17
REMARK                            x       y       z     vdW  Elec       q    Type
REMARK                         _______ _______ _______ _____ _____    ______ ____
ROOT
ATOM      1  C   UNL     1      47.858   8.382  13.853  0.00  0.00    +0.000 C 
ATOM      2  O   UNL     1      47.580   9.532  13.517  0.00  0.00    +0.000 OA
ATOM      3  N   UNL     1      46.990   7.347  13.623  0.00  0.00    +0.000 N 
ATOM      4  H   UNL     1      47.224   6.400  13.907  0.00  0.00    +0.000 HD
ENDROOT
BRANCH   1  11
ATOM      5  N   UNL     1      51.296   4.359  18.004  0.00  0.00    +0.000 N 
ATOM      6  C   UNL     1      50.754   5.285  17.176  0.00  0.00    +0.000 A 
ATOM      7  N   UNL     1      51.482   6.233  16.670  0.00  0.00    +0.000 NA
ATOM      8  C   UNL     1      50.833   7.078  15.825  0.00  0.00    +0.000 A 
ATOM      9  S   UNL     1      51.662   8.352  15.062  0.00  0.00    +0.000 S 
ATOM     10  C   UNL     1      50.257   8.839  14.228  0.00  0.00    +0.000 A 
ATOM     11  C   UNL     1      49.136   8.066  14.513  0.00  0.00    +0.000 A 
ATOM     12  C   UNL     1      49.499   7.035  15.462  0.00  0.00    +0.000 A 
ATOM     13  C   UNL     1      48.715   5.979  16.069  0.00  0.00    +0.000 A 
ATOM     14  O   UNL     1      47.520   5.798  15.864  0.00  0.00    +0.000 OA
ATOM     15  N   UNL     1      49.419   5.154  16.915  0.00  0.00    +0.000 N 
ATOM     16  H   UNL     1      52.214   4.611  18.359  0.00  0.00    +0.000 HD
ATOM     17  H   UNL     1      50.707   3.876  18.666  0.00  0.00    +0.000 HD
ATOM     18  H   UNL     1      48.895   4.394  17.317  0.00  0.00    +0.000 HD
ENDBRANCH   1  11
BRANCH   3  19
ATOM     19  C   UNL     1      45.718   7.558  12.979  0.00  0.00    +0.000 C 
BRANCH  19  20
ATOM     20  C   UNL     1      45.306   6.372  12.157  0.00  0.00    +0.000 A 
ATOM     21  C   UNL     1      44.138   6.382  11.392  0.00  0.00    +0.000 A 
ATOM     22  C   UNL     1      43.782   5.257  10.649  0.00  0.00    +0.000 A 
ATOM     23  C   UNL     1      44.615   4.142  10.676  0.00  0.00    +0.000 A 
ATOM     24  N   UNL     1      45.771   4.118  11.390  0.00  0.00    +0.000 NA
ATOM     25  C   UNL     1      46.089   5.225  12.101  0.00  0.00    +0.000 A 
BRANCH  23  26
ATOM     26  C   UNL     1      44.232   2.877   9.926  0.00  0.00    +0.000 C 
BRANCH  26  27
ATOM     27  N   UNL     1      44.876   2.696   8.596  0.00  0.00    +0.000 NA
ATOM     28  C   UNL     1      45.573   3.936   8.205  0.00  0.00    +0.000 C 
ATOM     29  C   UNL     1      46.421   3.772   6.941  0.00  0.00    +0.000 C 
ATOM     30  C   UNL     1      47.409   2.626   7.089  0.00  0.00    +0.000 C 
ATOM     31  C   UNL     1      46.652   1.351   7.430  0.00  0.00    +0.000 C 
ATOM     32  C   UNL     1      45.793   1.544   8.681  0.00  0.00    +0.000 C 
ENDBRANCH  26  27
ENDBRANCH  23  26
ENDBRANCH  19  20
ENDBRANCH   3  19
TORSDOF 5
ENDMDL
MODEL 9
REMARK VINA RESULT:    -5.945      3.908      5.104
REMARK INTER + INTRA:          -8.235
REMARK INTER:                  -7.234
REMARK INTRA:                  -1.001
REMARK UNBOUND:                -0.552
REMARK  Name = 
REMARK  5 active torsions:
REMARK  status: ('A' for Active; 'I' for Inactive)
REMARK    1  A    between atoms: C_7  and  C_8
REMARK    2  A    between atoms: N_10  and  C_11
REMARK    3  A    between atoms: C_11  and  C_12
REMARK    4  A    between atoms: C_15  and  C_16
REMARK    5  A    between atoms: C_16  and  N_17
REMARK                            x       y       z     vdW  Elec       q    Type
REMARK                         _______ _______ _______ _____ _____    ______ ____
ROOT
ATOM      1  C   UNL     1      48.886   9.904  13.329  0.00  0.00    +0.000 C 
ATOM      2  O   UNL     1      48.288  10.965  13.157  0.00  0.00    +0.000 OA
ATOM      3  N   UNL     1      48.206   8.744  13.595  0.00  0.00    +0.000 N 
ATOM      4  H   UNL     1      48.706   7.871  13.740  0.00  0.00    +0.000 HD
ENDROOT
BRANCH   1  11
ATOM      5  N   UNL     1      54.327   7.157  10.489  0.00  0.00    +0.000 N 
ATOM      6  C   UNL     1      53.351   7.785  11.188  0.00  0.00    +0.000 A 
ATOM      7  N   UNL     1      53.643   8.686  12.076  0.00  0.00    +0.000 NA
ATOM      8  C   UNL     1      52.576   9.271  12.684  0.00  0.00    +0.000 A 
ATOM      9  S   UNL     1      52.799  10.490  13.847  0.00  0.00    +0.000 S 
ATOM     10  C   UNL     1      51.117  10.684  14.046  0.00  0.00    +0.000 A 
ATOM     11  C   UNL     1      50.354   9.832  13.254  0.00  0.00    +0.000 A 
ATOM     12  C   UNL     1      51.237   9.004  12.461  0.00  0.00    +0.000 A 
ATOM     13  C   UNL     1      50.955   7.973  11.483  0.00  0.00    +0.000 A 
ATOM     14  O   UNL     1      49.828   7.607  11.168  0.00  0.00    +0.000 OA
ATOM     15  N   UNL     1      52.067   7.414  10.900  0.00  0.00    +0.000 N 
ATOM     16  H   UNL     1      55.257   7.278  10.879  0.00  0.00    +0.000 HD
ATOM     17  H   UNL     1      54.152   6.243  10.097  0.00  0.00    +0.000 HD
ATOM     18  H   UNL     1      51.886   6.721  10.192  0.00  0.00    +0.000 HD
ENDBRANCH   1  11
BRANCH   3  19
ATOM     19  C   UNL     1      46.768   8.714  13.682  0.00  0.00    +0.000 C 
BRANCH  19  20
ATOM     20  C   UNL     1      46.174   7.683  12.767  0.00  0.00    +0.000 A 
ATOM     21  C   UNL     1      45.014   7.938  12.033  0.00  0.00    +0.000 A 
ATOM     22  C   UNL     1      44.487   6.952  11.201  0.00  0.00    +0.000 A 
ATOM     23  C   UNL     1      45.143   5.727  11.108  0.00  0.00    +0.000 A 
ATOM     24  N   UNL     1      46.289   5.466  11.790  0.00  0.00    +0.000 NA
ATOM     25  C   UNL     1      46.776   6.443  12.590  0.00  0.00    +0.000 A 
BRANCH  23  26
ATOM     26  C   UNL     1      44.567   4.609  10.256  0.00  0.00    +0.000 C 
BRANCH  26  27
ATOM     27  N   UNL     1      45.561   3.795   9.502  0.00  0.00    +0.000 NA
ATOM     28  C   UNL     1      45.034   2.434   9.289  0.00  0.00    +0.000 C 
ATOM     29  C   UNL     1      45.909   1.593   8.358  0.00  0.00    +0.000 C 
ATOM     30  C   UNL     1      46.127   2.296   7.028  0.00  0.00    +0.000 C 
ATOM     31  C   UNL     1      46.729   3.670   7.280  0.00  0.00    +0.000 C 
ATOM     32  C   UNL     1      45.852   4.485   8.231  0.00  0.00    +0.000 C 
ENDBRANCH  26  27
ENDBRANCH  23  26
ENDBRANCH  19  20
ENDBRANCH   3  19
TORSDOF 5
ENDMDL
