MODEL 1
REMARK VINA RESULT:    -8.581      0.000      0.000
REMARK INTER + INTRA:         -12.361
REMARK INTER:                 -11.591
REMARK INTRA:                  -0.770
REMARK UNBOUND:                -0.770
REMARK  Name = 
REMARK  6 active torsions:
REMARK  status: ('A' for Active; 'I' for Inactive)
REMARK    1  A    between atoms: C_2  and  C_3
REMARK    2  A    between atoms: C_6  and  N_7
REMARK    3  A    between atoms: N_7  and  C_8
REMARK    4  A    between atoms: C_8  and  C_9
REMARK    5  A    between atoms: C_11  and  C_12
REMARK    6  A    between atoms: C_16  and  C_17
REMARK                            x       y       z     vdW  Elec       q    Type
REMARK                         _______ _______ _______ _____ _____    ______ ____
ROOT
ATOM      1  C   UNL     1      44.572   4.502  11.937  0.00  0.00    +0.000 A 
ATOM      2  C   UNL     1      45.501   4.360  12.970  0.00  0.00    +0.000 A 
ATOM      3  C   UNL     1      46.195   5.480  13.462  0.00  0.00    +0.000 A 
ATOM      4  C   UNL     1      45.916   6.715  12.868  0.00  0.00    +0.000 A 
ATOM      5  C   UNL     1      44.987   6.775  11.842  0.00  0.00    +0.000 A 
ATOM      6  N   UNL     1      44.315   5.706  11.373  0.00  0.00    +0.000 NA
ENDROOT
BRANCH   3   7
ATOM      7  C   UNL     1      47.168   5.352  14.567  0.00  0.00    +0.000 A 
ATOM      8  C   UNL     1      48.141   6.319  14.835  0.00  0.00    +0.000 A 
ATOM      9  N   UNL     1      49.047   6.252  15.841  0.00  0.00    +0.000 NA
ATOM     10  C   UNL     1      48.996   5.165  16.638  0.00  0.00    +0.000 A 
ATOM     11  C   UNL     1      48.083   4.136  16.480  0.00  0.00    +0.000 A 
ATOM     12  C   UNL     1      47.163   4.245  15.429  0.00  0.00    +0.000 A 
BRANCH  11  13
ATOM     13  C   UNL     1      48.080   2.964  17.410  0.00  0.00    +0.000 C 
ATOM     14  F   UNL     1      46.834   2.498  17.693  0.00  0.00    +0.000 F 
ATOM     15  F   UNL     1      48.772   1.904  16.910  0.00  0.00    +0.000 F 
ATOM     16  F   UNL     1      48.654   3.251  18.610  0.00  0.00    +0.000 F 
ENDBRANCH  11  13
ENDBRANCH   3   7
BRANCH   1  17
ATOM     17  C   UNL     1      43.834   3.291  11.388  0.00  0.00    +0.000 C 
BRANCH  17  18
ATOM     18  N   UNL     1      43.676   3.337   9.938  0.00  0.00    +0.000 N 
ATOM     19  H   UNL     1      42.752   3.114   9.583  0.00  0.00    +0.000 HD
BRANCH  18  23
ATOM     20  C   UNL     1      46.744   2.365   7.204  0.00  0.00    +0.000 A 
ATOM     21  C   UNL     1      46.251   3.670   7.250  0.00  0.00    +0.000 A 
ATOM     22  C   UNL     1      45.242   4.012   8.162  0.00  0.00    +0.000 A 
ATOM     23  C   UNL     1      44.726   3.075   9.066  0.00  0.00    +0.000 A 
ATOM     24  C   UNL     1      45.223   1.764   8.989  0.00  0.00    +0.000 A 
ATOM     25  C   UNL     1      46.223   1.408   8.074  0.00  0.00    +0.000 A 
BRANCH  20  27
ATOM     26  N   UNL     1      48.598   1.728   5.506  0.00  0.00    +0.000 NA
ATOM     27  C   UNL     1      47.771   2.010   6.265  0.00  0.00    +0.000 C 
ENDBRANCH  20  27
ENDBRANCH  18  23
ENDBRANCH  17  18
ENDBRANCH   1  17
TORSDOF 6
ENDMDL
MODEL 2
REMARK VINA RESULT:    -8.408      4.342      5.618
REMARK INTER + INTRA:         -12.128
REMARK INTER:                 -11.195
REMARK INTRA:                  -0.933
REMARK UNBOUND:                -0.770
REMARK  Name = 
REMARK  6 active torsions:
REMARK  status: ('A' for Active; 'I' for Inactive)
REMARK    1  A    between atoms: C_2  and  C_3
REMARK    2  A    between atoms: C_6  and  N_7
REMARK    3  A    between atoms: N_7  and  C_8
REMARK    4  A    between atoms: C_8  and  C_9
REMARK    5  A    between atoms: C_11  and  C_12
REMARK    6  A    between atoms: C_16  and  C_17
REMARK                            x       y       z     vdW  Elec       q    Type
REMARK                         _______ _______ _______ _____ _____    ______ ____
ROOT
ATOM      1  C   UNL     1      45.005   4.140  12.346  0.00  0.00    +0.000 A 
ATOM      2  C   UNL     1      45.003   5.507  12.061  0.00  0.00    +0.000 A 
ATOM      3  C   UNL     1      45.940   6.363  12.670  0.00  0.00    +0.000 A 
ATOM      4  C   UNL     1      46.847   5.783  13.562  0.00  0.00    +0.000 A 
ATOM      5  C   UNL     1      46.781   4.420  13.800  0.00  0.00    +0.000 A 
ATOM      6  N   UNL     1      45.892   3.596  13.213  0.00  0.00    +0.000 NA
ENDROOT
BRANCH   3   7
ATOM      7  C   UNL     1      45.964   7.808  12.367  0.00  0.00    +0.000 A 
ATOM      8  C   UNL     1      47.064   8.623  12.652  0.00  0.00    +0.000 A 
ATOM      9  N   UNL     1      47.139   9.950  12.383  0.00  0.00    +0.000 NA
ATOM     10  C   UNL     1      46.064  10.516  11.797  0.00  0.00    +0.000 A 
ATOM     11  C   UNL     1      44.913   9.823  11.465  0.00  0.00    +0.000 A 
ATOM     12  C   UNL     1      44.877   8.453  11.758  0.00  0.00    +0.000 A 
BRANCH  11  13
ATOM     13  C   UNL     1      43.763  10.517  10.808  0.00  0.00    +0.000 C 
ATOM     14  F   UNL     1      44.131  11.320   9.773  0.00  0.00    +0.000 F 
ATOM     15  F   UNL     1      42.853   9.643  10.297  0.00  0.00    +0.000 F 
ATOM     16  F   UNL     1      43.072  11.311  11.671  0.00  0.00    +0.000 F 
ENDBRANCH  11  13
ENDBRANCH   3   7
BRANCH   1  17
ATOM     17  C   UNL     1      43.983   3.214  11.705  0.00  0.00    +0.000 C 
BRANCH  17  18
ATOM     18  N   UNL     1      43.773   3.499  10.290  0.00  0.00    +0.000 N 
ATOM     19  H   UNL     1      42.808   3.582   9.990  0.00  0.00    +0.000 HD
BRANCH  18  23
ATOM     20  C   UNL     1      46.642   2.405   7.390  0.00  0.00    +0.000 A 
ATOM     21  C   UNL     1      46.052   1.418   8.181  0.00  0.00    +0.000 A 
ATOM     22  C   UNL     1      45.087   1.764   9.139  0.00  0.00    +0.000 A 
ATOM     23  C   UNL     1      44.667   3.090   9.308  0.00  0.00    +0.000 A 
ATOM     24  C   UNL     1      45.288   4.068   8.515  0.00  0.00    +0.000 A 
ATOM     25  C   UNL     1      46.261   3.735   7.563  0.00  0.00    +0.000 A 
BRANCH  20  27
ATOM     26  N   UNL     1      48.438   1.769   5.631  0.00  0.00    +0.000 NA
ATOM     27  C   UNL     1      47.636   2.056   6.415  0.00  0.00    +0.000 C 
ENDBRANCH  20  27
ENDBRANCH  18  23
ENDBRANCH  17  18
ENDBRANCH   1  17
TORSDOF 6
ENDMDL
MODEL 3
REMARK VINA RESULT:    -8.378      3.975      5.011
REMARK INTER + INTRA:         -12.087
REMARK INTER:                 -11.185
REMARK INTRA:                  -0.901
REMARK UNBOUND:                -0.770
REMARK  Name = 
REMARK  6 active torsions:
REMARK  status: ('A' for Active; 'I' for Inactive)
REMARK    1  A    between atoms: C_2  and  C_3
REMARK    2  A    between atoms: C_6  and  N_7
REMARK    3  A    between atoms: N_7  and  C_8
REMARK    4  A    between atoms: C_8  and  C_9
REMARK    5  A    between atoms: C_11  and  C_12
REMARK    6  A    between atoms: C_16  and  C_17
REMARK                            x       y       z     vdW  Elec       q    Type
REMARK                         _______ _______ _______ _____ _____    ______ ____
ROOT
ATOM      1  C   UNL     1      44.998   4.359  12.344  0.00  0.00    +0.000 A 
ATOM      2  C   UNL     1      45.304   5.694  12.073  0.00  0.00    +0.000 A 
ATOM      3  C   UNL     1      46.417   6.307  12.678  0.00  0.00    +0.000 A 
ATOM      4  C   UNL     1      47.178   5.524  13.552  0.00  0.00    +0.000 A 
ATOM      5  C   UNL     1      46.807   4.208  13.777  0.00  0.00    +0.000 A 
ATOM      6  N   UNL     1      45.747   3.616  13.194  0.00  0.00    +0.000 NA
ENDROOT
BRANCH   3   7
ATOM      7  C   UNL     1      46.767   7.712  12.389  0.00  0.00    +0.000 A 
ATOM      8  C   UNL     1      45.833   8.751  12.448  0.00  0.00    +0.000 A 
ATOM      9  N   UNL     1      46.107  10.057  12.203  0.00  0.00    +0.000 NA
ATOM     10  C   UNL     1      47.380  10.364  11.878  0.00  0.00    +0.000 A 
ATOM     11  C   UNL     1      48.397   9.431  11.785  0.00  0.00    +0.000 A 
ATOM     12  C   UNL     1      48.073   8.092  12.047  0.00  0.00    +0.000 A 
BRANCH  11  13
ATOM     13  C   UNL     1      49.789   9.847  11.428  0.00  0.00    +0.000 C 
ATOM     14  F   UNL     1      49.841  10.789  10.448  0.00  0.00    +0.000 F 
ATOM     15  F   UNL     1      50.462  10.372  12.489  0.00  0.00    +0.000 F 
ATOM     16  F   UNL     1      50.546   8.805  10.986  0.00  0.00    +0.000 F 
ENDBRANCH  11  13
ENDBRANCH   3   7
BRANCH   1  17
ATOM     17  C   UNL     1      43.785   3.698  11.708  0.00  0.00    +0.000 C 
BRANCH  17  18
ATOM     18  N   UNL     1      43.685   3.962  10.276  0.00  0.00    +0.000 N 
ATOM     19  H   UNL     1      42.753   4.143   9.921  0.00  0.00    +0.000 HD
BRANCH  18  23
ATOM     20  C   UNL     1      46.557   2.477   7.559  0.00  0.00    +0.000 A 
ATOM     21  C   UNL     1      45.877   1.590   8.395  0.00  0.00    +0.000 A 
ATOM     22  C   UNL     1      44.910   2.066   9.293  0.00  0.00    +0.000 A 
ATOM     23  C   UNL     1      44.577   3.425   9.356  0.00  0.00    +0.000 A 
ATOM     24  C   UNL     1      45.288   4.302   8.521  0.00  0.00    +0.000 A 
ATOM     25  C   UNL     1      46.264   3.839   7.628  0.00  0.00    +0.000 A 
BRANCH  20  27
ATOM     26  N   UNL     1      48.355   1.609   5.905  0.00  0.00    +0.000 NA
ATOM     27  C   UNL     1      47.553   1.994   6.645  0.00  0.00    +0.000 C 
ENDBRANCH  20  27
ENDBRANCH  18  23
ENDBRANCH  17  18
ENDBRANCH   1  17
TORSDOF 6
ENDMDL
MODEL 4
REMARK VINA RESULT:    -8.115      3.969      4.820
REMARK INTER + INTRA:         -11.732
REMARK INTER:                 -10.940
REMARK INTRA:                  -0.791
REMARK UNBOUND:                -0.770
REMARK  Name = 
REMARK  6 active torsions:
REMARK  status: ('A' for Active; 'I' for Inactive)
REMARK    1  A    between atoms: C_2  and  C_3
REMARK    2  A    between atoms: C_6  and  N_7
REMARK    3  A    between atoms: N_7  and  C_8
REMARK    4  A    between atoms: C_8  and  C_9
REMARK    5  A    between atoms: C_11  and  C_12
REMARK    6  A    between atoms: C_16  and  C_17
REMARK                            x       y       z     vdW  Elec       q    Type
REMARK                         _______ _______ _______ _____ _____    ______ ____
ROOT
ATOM      1  C   UNL     1      45.049   5.465  11.757  0.00  0.00    +0.000 A 
ATOM      2  C   UNL     1      45.977   6.484  11.532  0.00  0.00    +0.000 A 
ATOM      3  C   UNL     1      47.064   6.664  12.409  0.00  0.00    +0.000 A 
ATOM      4  C   UNL     1      47.155   5.791  13.498  0.00  0.00    +0.000 A 
ATOM      5  C   UNL     1      46.190   4.810  13.658  0.00  0.00    +0.000 A 
ATOM      6  N   UNL     1      45.154   4.629  12.817  0.00  0.00    +0.000 NA
ENDROOT
BRANCH   3   7
ATOM      7  C   UNL     1      48.065   7.725  12.177  0.00  0.00    +0.000 A 
ATOM      8  C   UNL     1      47.813   9.074  12.440  0.00  0.00    +0.000 A 
ATOM      9  N   UNL     1      48.701  10.082  12.254  0.00  0.00    +0.000 NA
ATOM     10  C   UNL     1      49.917   9.744  11.779  0.00  0.00    +0.000 A 
ATOM     11  C   UNL     1      50.294   8.447  11.477  0.00  0.00    +0.000 A 
ATOM     12  C   UNL     1      49.347   7.434  11.685  0.00  0.00    +0.000 A 
BRANCH  11  13
ATOM     13  C   UNL     1      51.665   8.146  10.962  0.00  0.00    +0.000 C 
ATOM     14  F   UNL     1      51.783   6.902  10.422  0.00  0.00    +0.000 F 
ATOM     15  F   UNL     1      52.057   9.015   9.991  0.00  0.00    +0.000 F 
ATOM     16  F   UNL     1      52.614   8.222  11.935  0.00  0.00    +0.000 F 
ENDBRANCH  11  13
ENDBRANCH   3   7
BRANCH   1  17
ATOM     17  C   UNL     1      43.863   5.279  10.823  0.00  0.00    +0.000 C 
BRANCH  17  18
ATOM     18  N   UNL     1      43.753   3.915  10.317  0.00  0.00    +0.000 N 
ATOM     19  H   UNL     1      43.348   3.235  10.952  0.00  0.00    +0.000 HD
BRANCH  18  23
ATOM     20  C   UNL     1      46.594   2.491   7.535  0.00  0.00    +0.000 A 
ATOM     21  C   UNL     1      45.967   1.593   8.400  0.00  0.00    +0.000 A 
ATOM     22  C   UNL     1      45.011   2.047   9.320  0.00  0.00    +0.000 A 
ATOM     23  C   UNL     1      44.636   3.396   9.378  0.00  0.00    +0.000 A 
ATOM     24  C   UNL     1      45.294   4.285   8.513  0.00  0.00    +0.000 A 
ATOM     25  C   UNL     1      46.259   3.844   7.598  0.00  0.00    +0.000 A 
BRANCH  20  27
ATOM     26  N   UNL     1      48.377   1.657   5.847  0.00  0.00    +0.000 NA
ATOM     27  C   UNL     1      47.579   2.030   6.598  0.00  0.00    +0.000 C 
ENDBRANCH  20  27
ENDBRANCH  18  23
ENDBRANCH  17  18
ENDBRANCH   1  17
TORSDOF 6
ENDMDL
MODEL 5
REMARK VINA RESULT:    -7.736      2.987      3.811
REMARK INTER + INTRA:         -11.220
REMARK INTER:                 -10.371
REMARK INTRA:                  -0.849
REMARK UNBOUND:                -0.770
REMARK  Name = 
REMARK  6 active torsions:
REMARK  status: ('A' for Active; 'I' for Inactive)
REMARK    1  A    between atoms: C_2  and  C_3
REMARK    2  A    between atoms: C_6  and  N_7
REMARK    3  A    between atoms: N_7  and  C_8
REMARK    4  A    between atoms: C_8  and  C_9
REMARK    5  A    between atoms: C_11  and  C_12
REMARK    6  A    between atoms: C_16  and  C_17
REMARK                            x       y       z     vdW  Elec       q    Type
REMARK                         _______ _______ _______ _____ _____    ______ ____
ROOT
ATOM      1  C   UNL     1      45.050   5.101  11.937  0.00  0.00    +0.000 A 
ATOM      2  C   UNL     1      46.090   6.031  11.869  0.00  0.00    +0.000 A 
ATOM      3  C   UNL     1      47.143   5.991  12.802  0.00  0.00    +0.000 A 
ATOM      4  C   UNL     1      47.087   4.998  13.784  0.00  0.00    +0.000 A 
ATOM      5  C   UNL     1      46.018   4.117  13.793  0.00  0.00    +0.000 A 
ATOM      6  N   UNL     1      45.012   4.145  12.897  0.00  0.00    +0.000 NA
ENDROOT
BRANCH   3   7
ATOM      7  C   UNL     1      48.260   6.955  12.733  0.00  0.00    +0.000 A 
ATOM      8  C   UNL     1      48.423   7.851  11.673  0.00  0.00    +0.000 A 
ATOM      9  N   UNL     1      49.423   8.760  11.570  0.00  0.00    +0.000 NA
ATOM     10  C   UNL     1      50.325   8.792  12.572  0.00  0.00    +0.000 A 
ATOM     11  C   UNL     1      50.280   7.960  13.676  0.00  0.00    +0.000 A 
ATOM     12  C   UNL     1      49.228   7.035  13.746  0.00  0.00    +0.000 A 
BRANCH  11  13
ATOM     13  C   UNL     1      51.311   8.059  14.755  0.00  0.00    +0.000 C 
ATOM     14  F   UNL     1      51.109   9.102  15.606  0.00  0.00    +0.000 F 
ATOM     15  F   UNL     1      51.356   6.944  15.534  0.00  0.00    +0.000 F 
ATOM     16  F   UNL     1      52.569   8.218  14.259  0.00  0.00    +0.000 F 
ENDBRANCH  11  13
ENDBRANCH   3   7
BRANCH   1  17
ATOM     17  C   UNL     1      43.900   5.151  10.944  0.00  0.00    +0.000 C 
BRANCH  17  18
ATOM     18  N   UNL     1      43.685   3.877  10.266  0.00  0.00    +0.000 N 
ATOM     19  H   UNL     1      43.152   3.183  10.779  0.00  0.00    +0.000 HD
BRANCH  18  23
ATOM     20  C   UNL     1      46.577   2.477   7.525  0.00  0.00    +0.000 A 
ATOM     21  C   UNL     1      45.936   1.571   8.372  0.00  0.00    +0.000 A 
ATOM     22  C   UNL     1      44.963   2.018   9.279  0.00  0.00    +0.000 A 
ATOM     23  C   UNL     1      44.585   3.366   9.339  0.00  0.00    +0.000 A 
ATOM     24  C   UNL     1      45.257   4.262   8.492  0.00  0.00    +0.000 A 
ATOM     25  C   UNL     1      46.239   3.828   7.591  0.00  0.00    +0.000 A 
BRANCH  20  27
ATOM     26  N   UNL     1      48.391   1.661   5.862  0.00  0.00    +0.000 NA
ATOM     27  C   UNL     1      47.580   2.023   6.603  0.00  0.00    +0.000 C 
ENDBRANCH  20  27
ENDBRANCH  18  23
ENDBRANCH  17  18
ENDBRANCH   1  17
TORSDOF 6
ENDMDL
MODEL 6
REMARK VINA RESULT:    -7.667      1.791      2.420
REMARK INTER + INTRA:         -11.127
REMARK INTER:                 -10.377
REMARK INTRA:                  -0.749
REMARK UNBOUND:                -0.770
REMARK  Name = 
REMARK  6 active torsions:
REMARK  status: ('A' for Active; 'I' for Inactive)
REMARK    1  A    between atoms: C_2  and  C_3
REMARK    2  A    between atoms: C_6  and  N_7
REMARK    3  A    between atoms: N_7  and  C_8
REMARK    4  A    between atoms: C_8  and  C_9
REMARK    5  A    between atoms: C_11  and  C_12
REMARK    6  A    between atoms: C_16  and  C_17
REMARK                            x       y       z     vdW  Elec       q    Type
REMARK                         _______ _______ _______ _____ _____    ______ ____
ROOT
ATOM      1  C   UNL     1      44.746   4.910  12.069  0.00  0.00    +0.000 A 
ATOM      2  C   UNL     1      45.519   4.572  13.181  0.00  0.00    +0.000 A 
ATOM      3  C   UNL     1      46.483   5.469  13.677  0.00  0.00    +0.000 A 
ATOM      4  C   UNL     1      46.626   6.687  13.005  0.00  0.00    +0.000 A 
ATOM      5  C   UNL     1      45.828   6.947  11.903  0.00  0.00    +0.000 A 
ATOM      6  N   UNL     1      44.898   6.095  11.430  0.00  0.00    +0.000 NA
ENDROOT
BRANCH   3   7
ATOM      7  C   UNL     1      47.298   5.136  14.863  0.00  0.00    +0.000 A 
ATOM      8  C   UNL     1      47.155   3.936  15.567  0.00  0.00    +0.000 A 
ATOM      9  N   UNL     1      47.885   3.580  16.653  0.00  0.00    +0.000 NA
ATOM     10  C   UNL     1      48.816   4.458  17.078  0.00  0.00    +0.000 A 
ATOM     11  C   UNL     1      49.057   5.679  16.472  0.00  0.00    +0.000 A 
ATOM     12  C   UNL     1      48.282   6.009  15.352  0.00  0.00    +0.000 A 
BRANCH  11  13
ATOM     13  C   UNL     1      50.114   6.599  16.994  0.00  0.00    +0.000 C 
ATOM     14  F   UNL     1      50.666   6.184  18.167  0.00  0.00    +0.000 F 
ATOM     15  F   UNL     1      51.150   6.746  16.124  0.00  0.00    +0.000 F 
ATOM     16  F   UNL     1      49.642   7.855  17.227  0.00  0.00    +0.000 F 
ENDBRANCH  11  13
ENDBRANCH   3   7
BRANCH   1  17
ATOM     17  C   UNL     1      43.716   3.937  11.516  0.00  0.00    +0.000 C 
BRANCH  17  18
ATOM     18  N   UNL     1      43.580   4.023  10.066  0.00  0.00    +0.000 N 
ATOM     19  H   UNL     1      42.632   4.082   9.710  0.00  0.00    +0.000 HD
BRANCH  18  23
ATOM     20  C   UNL     1      46.550   2.467   7.498  0.00  0.00    +0.000 A 
ATOM     21  C   UNL     1      45.878   1.611   8.372  0.00  0.00    +0.000 A 
ATOM     22  C   UNL     1      44.880   2.109   9.222  0.00  0.00    +0.000 A 
ATOM     23  C   UNL     1      44.507   3.460   9.197  0.00  0.00    +0.000 A 
ATOM     24  C   UNL     1      45.209   4.306   8.325  0.00  0.00    +0.000 A 
ATOM     25  C   UNL     1      46.217   3.821   7.480  0.00  0.00    +0.000 A 
BRANCH  20  27
ATOM     26  N   UNL     1      48.408   1.558   5.934  0.00  0.00    +0.000 NA
ATOM     27  C   UNL     1      47.579   1.961   6.634  0.00  0.00    +0.000 C 
ENDBRANCH  20  27
ENDBRANCH  18  23
ENDBRANCH  17  18
ENDBRANCH   1  17
TORSDOF 6
ENDMDL
MODEL 7
REMARK VINA RESULT:    -7.044      3.979      8.043
REMARK INTER + INTRA:         -10.285
REMARK INTER:                  -9.514
REMARK INTRA:                  -0.771
REMARK UNBOUND:                -0.770
REMARK  Name = 
REMARK  6 active torsions:
REMARK  status: ('A' for Active; 'I' for Inactive)
REMARK    1  A    between atoms: C_2  and  C_3
REMARK    2  A    between atoms: C_6  and  N_7
REMARK    3  A    between atoms: N_7  and  C_8
REMARK    4  A    between atoms: C_8  and  C_9
REMARK    5  A    between atoms: C_11  and  C_12
REMARK    6  A    between atoms: C_16  and  C_17
REMARK                            x       y       z     vdW  Elec       q    Type
REMARK                         _______ _______ _______ _____ _____    ______ ____
ROOT
ATOM      1  C   UNL     1      48.001   6.699  14.269  0.00  0.00    +0.000 A 
ATOM      2  C   UNL     1      47.047   5.754  13.884  0.00  0.00    +0.000 A 
ATOM      3  C   UNL     1      46.519   5.767  12.579  0.00  0.00    +0.000 A 
ATOM      4  C   UNL     1      46.985   6.761  11.713  0.00  0.00    +0.000 A 
ATOM      5  C   UNL     1      47.925   7.669  12.171  0.00  0.00    +0.000 A 
ATOM      6  N   UNL     1      48.440   7.655  13.416  0.00  0.00    +0.000 NA
ENDROOT
BRANCH   3   7
ATOM      7  C   UNL     1      45.524   4.764  12.149  0.00  0.00    +0.000 A 
ATOM      8  C   UNL     1      44.413   4.418  12.924  0.00  0.00    +0.000 A 
ATOM      9  N   UNL     1      43.468   3.514  12.568  0.00  0.00    +0.000 NA
ATOM     10  C   UNL     1      43.622   2.907  11.373  0.00  0.00    +0.000 A 
ATOM     11  C   UNL     1      44.675   3.158  10.512  0.00  0.00    +0.000 A 
ATOM     12  C   UNL     1      45.630   4.101  10.916  0.00  0.00    +0.000 A 
BRANCH  11  13
ATOM     13  C   UNL     1      44.775   2.453   9.196  0.00  0.00    +0.000 C 
ATOM     14  F   UNL     1      46.056   2.246   8.786  0.00  0.00    +0.000 F 
ATOM     15  F   UNL     1      44.186   1.226   9.218  0.00  0.00    +0.000 F 
ATOM     16  F   UNL     1      44.167   3.141   8.191  0.00  0.00    +0.000 F 
ENDBRANCH  11  13
ENDBRANCH   3   7
BRANCH   1  17
ATOM     17  C   UNL     1      48.561   6.701  15.683  0.00  0.00    +0.000 C 
BRANCH  17  18
ATOM     18  N   UNL     1      48.116   5.554  16.467  0.00  0.00    +0.000 N 
ATOM     19  H   UNL     1      47.338   5.720  17.097  0.00  0.00    +0.000 HD
BRANCH  18  23
ATOM     20  C   UNL     1      50.705   2.352  17.404  0.00  0.00    +0.000 A 
ATOM     21  C   UNL     1      51.141   3.666  17.586  0.00  0.00    +0.000 A 
ATOM     22  C   UNL     1      50.288   4.740  17.293  0.00  0.00    +0.000 A 
ATOM     23  C   UNL     1      48.977   4.531  16.844  0.00  0.00    +0.000 A 
ATOM     24  C   UNL     1      48.567   3.203  16.650  0.00  0.00    +0.000 A 
ATOM     25  C   UNL     1      49.415   2.122  16.928  0.00  0.00    +0.000 A 
BRANCH  20  27
ATOM     26  N   UNL     1      52.286   0.366  17.931  0.00  0.00    +0.000 NA
ATOM     27  C   UNL     1      51.579   1.251  17.695  0.00  0.00    +0.000 C 
ENDBRANCH  20  27
ENDBRANCH  18  23
ENDBRANCH  17  18
ENDBRANCH   1  17
TORSDOF 6
ENDMDL
MODEL 8
REMARK VINA RESULT:    -6.830      4.197      8.575
REMARK INTER + INTRA:          -9.995
REMARK INTER:                  -9.368
REMARK INTRA:                  -0.628
REMARK UNBOUND:                -0.770
REMARK  Name = 
REMARK  6 active torsions:
REMARK  status: ('A' for Active; 'I' for Inactive)
REMARK    1  A    between atoms: C_2  and  C_3
REMARK    2  A    between atoms: C_6  and  N_7
REMARK    3  A    between atoms: N_7  and  C_8
REMARK    4  A    between atoms: C_8  and  C_9
REMARK    5  A    between atoms: C_11  and  C_12
REMARK    6  A    between atoms: C_16  and  C_17
REMARK                            x       y       z     vdW  Elec       q    Type
REMARK                         _______ _______ _______ _____ _____    ______ ____
ROOT
ATOM      1  C   UNL     1      47.618   4.659  15.535  0.00  0.00    +0.000 A 
ATOM      2  C   UNL     1      46.553   4.457  14.654  0.00  0.00    +0.000 A 
ATOM      3  C   UNL     1      46.340   5.341  13.581  0.00  0.00    +0.000 A 
ATOM      4  C   UNL     1      47.228   6.414  13.453  0.00  0.00    +0.000 A 
ATOM      5  C   UNL     1      48.255   6.553  14.372  0.00  0.00    +0.000 A 
ATOM      6  N   UNL     1      48.467   5.705  15.396  0.00  0.00    +0.000 NA
ENDROOT
BRANCH   3   7
ATOM      7  C   UNL     1      45.231   5.133  12.628  0.00  0.00    +0.000 A 
ATOM      8  C   UNL     1      43.924   5.557  12.884  0.00  0.00    +0.000 A 
ATOM      9  N   UNL     1      42.876   5.399  12.038  0.00  0.00    +0.000 NA
ATOM     10  C   UNL     1      43.125   4.783  10.864  0.00  0.00    +0.000 A 
ATOM     11  C   UNL     1      44.373   4.315  10.489  0.00  0.00    +0.000 A 
ATOM     12  C   UNL     1      45.430   4.500  11.391  0.00  0.00    +0.000 A 
BRANCH  11  13
ATOM     13  C   UNL     1      44.577   3.651   9.165  0.00  0.00    +0.000 C 
ATOM     14  F   UNL     1      44.001   4.316   8.128  0.00  0.00    +0.000 F 
ATOM     15  F   UNL     1      45.894   3.526   8.844  0.00  0.00    +0.000 F 
ATOM     16  F   UNL     1      44.064   2.390   9.132  0.00  0.00    +0.000 F 
ENDBRANCH  11  13
ENDBRANCH   3   7
BRANCH   1  17
ATOM     17  C   UNL     1      47.841   3.717  16.709  0.00  0.00    +0.000 C 
BRANCH  17  18
ATOM     18  N   UNL     1      48.913   4.163  17.592  0.00  0.00    +0.000 N 
ATOM     19  H   UNL     1      48.977   5.163  17.745  0.00  0.00    +0.000 HD
BRANCH  18  23
ATOM     20  C   UNL     1      52.520   1.974  17.777  0.00  0.00    +0.000 A 
ATOM     21  C   UNL     1      52.508   3.316  18.163  0.00  0.00    +0.000 A 
ATOM     22  C   UNL     1      51.315   4.053  18.121  0.00  0.00    +0.000 A 
ATOM     23  C   UNL     1      50.107   3.464  17.726  0.00  0.00    +0.000 A 
ATOM     24  C   UNL     1      50.146   2.120  17.322  0.00  0.00    +0.000 A 
ATOM     25  C   UNL     1      51.335   1.378  17.349  0.00  0.00    +0.000 A 
BRANCH  20  27
ATOM     26  N   UNL     1      54.726   0.613  17.842  0.00  0.00    +0.000 NA
ATOM     27  C   UNL     1      53.742   1.220  17.810  0.00  0.00    +0.000 C 
ENDBRANCH  20  27
ENDBRANCH  18  23
ENDBRANCH  17  18
ENDBRANCH   1  17
TORSDOF 6
ENDMDL
MODEL 9
REMARK VINA RESULT:    -6.675      3.928      8.558
REMARK INTER + INTRA:          -9.787
REMARK INTER:                  -9.041
REMARK INTRA:                  -0.745
REMARK UNBOUND:                -0.770
REMARK  Name = 
REMARK  6 active torsions:
REMARK  status: ('A' for Active; 'I' for Inactive)
REMARK    1  A    between atoms: C_2  and  C_3
REMARK    2  A    between atoms: C_6  and  N_7
REMARK    3  A    between atoms: N_7  and  C_8
REMARK    4  A    between atoms: C_8  and  C_9
REMARK    5  A    between atoms: C_11  and  C_12
REMARK    6  A    between atoms: C_16  and  C_17
REMARK                            x       y       z     vdW  Elec       q    Type
REMARK                         _______ _______ _______ _____ _____    ______ ____
ROOT
ATOM      1  C   UNL     1      46.741   8.144  13.039  0.00  0.00    +0.000 A 
ATOM      2  C   UNL     1      46.402   6.933  12.430  0.00  0.00    +0.000 A 
ATOM      3  C   UNL     1      45.301   6.859  11.557  0.00  0.00    +0.000 A 
ATOM      4  C   UNL     1      44.577   8.036  11.343  0.00  0.00    +0.000 A 
ATOM      5  C   UNL     1      44.970   9.197  11.989  0.00  0.00    +0.000 A 
ATOM      6  N   UNL     1      46.027   9.274  12.820  0.00  0.00    +0.000 NA
ENDROOT
BRANCH   3   7
ATOM      7  C   UNL     1      44.939   5.592  10.890  0.00  0.00    +0.000 A 
ATOM      8  C   UNL     1      43.892   4.777  11.330  0.00  0.00    +0.000 A 
ATOM      9  N   UNL     1      43.515   3.613  10.747  0.00  0.00    +0.000 NA
ATOM     10  C   UNL     1      44.211   3.221   9.660  0.00  0.00    +0.000 A 
ATOM     11  C   UNL     1      45.269   3.933   9.124  0.00  0.00    +0.000 A 
ATOM     12  C   UNL     1      45.626   5.133   9.756  0.00  0.00    +0.000 A 
BRANCH  11  13
ATOM     13  C   UNL     1      45.989   3.441   7.909  0.00  0.00    +0.000 C 
ATOM     14  F   UNL     1      47.036   4.227   7.541  0.00  0.00    +0.000 F 
ATOM     15  F   UNL     1      46.500   2.191   8.080  0.00  0.00    +0.000 F 
ATOM     16  F   UNL     1      45.177   3.365   6.818  0.00  0.00    +0.000 F 
ENDBRANCH  11  13
ENDBRANCH   3   7
BRANCH   1  17
ATOM     17  C   UNL     1      47.918   8.225  13.999  0.00  0.00    +0.000 C 
BRANCH  17  18
ATOM     18  N   UNL     1      48.554   6.931  14.221  0.00  0.00    +0.000 N 
ATOM     19  H   UNL     1      48.537   6.286  13.438  0.00  0.00    +0.000 HD
BRANCH  18  23
ATOM     20  C   UNL     1      48.686   5.334  18.128  0.00  0.00    +0.000 A 
ATOM     21  C   UNL     1      47.940   4.684  17.144  0.00  0.00    +0.000 A 
ATOM     22  C   UNL     1      47.897   5.193  15.838  0.00  0.00    +0.000 A 
ATOM     23  C   UNL     1      48.619   6.339  15.477  0.00  0.00    +0.000 A 
ATOM     24  C   UNL     1      49.345   6.988  16.488  0.00  0.00    +0.000 A 
ATOM     25  C   UNL     1      49.386   6.494  17.798  0.00  0.00    +0.000 A 
BRANCH  20  27
ATOM     26  N   UNL     1      48.750   4.405  20.548  0.00  0.00    +0.000 NA
ATOM     27  C   UNL     1      48.724   4.820  19.468  0.00  0.00    +0.000 C 
ENDBRANCH  20  27
ENDBRANCH  18  23
ENDBRANCH  17  18
ENDBRANCH   1  17
TORSDOF 6
ENDMDL
