MODEL 1
REMARK VINA RESULT:    -8.241      0.000      0.000
REMARK INTER + INTRA:         -11.776
REMARK INTER:                 -11.131
REMARK INTRA:                  -0.644
REMARK UNBOUND:                -0.644
REMARK  Name = 
REMARK  9 active torsions:
REMARK  status: ('A' for Active; 'I' for Inactive)
REMARK    1  A    between atoms: C_1  and  C_2
REMARK    2  A    between atoms: C_2  and  C_3
REMARK    3  A    between atoms: C_2  and  C_4
REMARK    4  A    between atoms: C_2  and  O_5
REMARK    5  A    between atoms: O_5  and  C_6
REMARK    6  A    between atoms: C_6  and  C_7
REMARK    7  A    between atoms: N_14  and  C_15
REMARK    8  A    between atoms: C_15  and  C_16
REMARK    9  A    between atoms: C_19  and  C_20
REMARK                            x       y       z     vdW  Elec       q    Type
REMARK                         _______ _______ _______ _____ _____    ______ ____
ROOT
ATOM      1  C   UNL     1      47.127   4.859  14.495  0.00  0.00    +0.000 A 
ATOM      2  C   UNL     1      46.776   3.663  13.872  0.00  0.00    +0.000 A 
ATOM      3  N   UNL     1      45.908   3.521  12.838  0.00  0.00    +0.000 NA
ATOM      4  C   UNL     1      45.390   4.695  12.420  0.00  0.00    +0.000 A 
ATOM      5  C   UNL     1      45.662   5.959  12.935  0.00  0.00    +0.000 A 
ATOM      6  C   UNL     1      44.897   6.893  12.189  0.00  0.00    +0.000 A 
ATOM      7  C   UNL     1      44.177   6.186  11.250  0.00  0.00    +0.000 A 
ATOM      8  N   UNL     1      44.475   4.850  11.406  0.00  0.00    +0.000 N 
ATOM      9  C   UNL     1      46.560   6.044  14.011  0.00  0.00    +0.000 A 
ENDROOT
BRANCH   1  10
ATOM     10  C   UNL     1      48.031   4.873  15.697  0.00  0.00    +0.000 C 
BRANCH  10  11
ATOM     11  O   UNL     1      48.371   3.542  16.071  0.00  0.00    +0.000 OA
BRANCH  11  13
ATOM     12  C   UNL     1      48.299   3.190  18.501  0.00  0.00    +0.000 C 
ATOM     13  C   UNL     1      49.172   3.397  17.257  0.00  0.00    +0.000 C 
ATOM     14  C   UNL     1      50.126   4.583  17.451  0.00  0.00    +0.000 C 
ATOM     15  C   UNL     1      50.013   2.130  17.037  0.00  0.00    +0.000 C 
ENDBRANCH  11  13
ENDBRANCH  10  11
ENDBRANCH   1  10
BRANCH   8  16
ATOM     16  C   UNL     1      43.923   3.772  10.600  0.00  0.00    +0.000 C 
BRANCH  16  17
ATOM     17  C   UNL     1      44.846   3.404   9.463  0.00  0.00    +0.000 A 
ATOM     18  C   UNL     1      45.315   4.377   8.582  0.00  0.00    +0.000 A 
ATOM     19  C   UNL     1      46.192   4.014   7.560  0.00  0.00    +0.000 A 
ATOM     20  C   UNL     1      46.580   2.681   7.425  0.00  0.00    +0.000 A 
ATOM     21  C   UNL     1      46.045   1.769   8.328  0.00  0.00    +0.000 A 
ATOM     22  N   UNL     1      45.193   2.098   9.337  0.00  0.00    +0.000 NA
BRANCH  20  23
ATOM     23  C   UNL     1      47.520   2.183   6.394  0.00  0.00    +0.000 C 
ATOM     24  N   UNL     1      47.849   3.010   5.354  0.00  0.00    +0.000 N 
ATOM     25  O   UNL     1      48.009   1.063   6.465  0.00  0.00    +0.000 OA
ATOM     26  H   UNL     1      47.517   3.951   5.226  0.00  0.00    +0.000 HD
ATOM     27  H   UNL     1      48.511   2.648   4.681  0.00  0.00    +0.000 HD
ENDBRANCH  20  23
ENDBRANCH  16  17
ENDBRANCH   8  16
TORSDOF 6
ENDMDL
MODEL 2
REMARK VINA RESULT:    -8.065      1.665      2.285
REMARK INTER + INTRA:         -11.538
REMARK INTER:                 -10.764
REMARK INTRA:                  -0.774
REMARK UNBOUND:                -0.644
REMARK  Name = 
REMARK  9 active torsions:
REMARK  status: ('A' for Active; 'I' for Inactive)
REMARK    1  A    between atoms: C_1  and  C_2
REMARK    2  A    between atoms: C_2  and  C_3
REMARK    3  A    between atoms: C_2  and  C_4
REMARK    4  A    between atoms: C_2  and  O_5
REMARK    5  A    between atoms: O_5  and  C_6
REMARK    6  A    between atoms: C_6  and  C_7
REMARK    7  A    between atoms: N_14  and  C_15
REMARK    8  A    between atoms: C_15  and  C_16
REMARK    9  A    between atoms: C_19  and  C_20
REMARK                            x       y       z     vdW  Elec       q    Type
REMARK                         _______ _______ _______ _____ _____    ______ ____
ROOT
ATOM      1  C   UNL     1      47.149   6.088  13.487  0.00  0.00    +0.000 A 
ATOM      2  C   UNL     1      47.039   6.394  12.132  0.00  0.00    +0.000 A 
ATOM      3  N   UNL     1      46.098   5.920  11.276  0.00  0.00    +0.000 NA
ATOM      4  C   UNL     1      45.212   5.094  11.871  0.00  0.00    +0.000 A 
ATOM      5  C   UNL     1      45.191   4.716  13.211  0.00  0.00    +0.000 A 
ATOM      6  C   UNL     1      44.087   3.841  13.386  0.00  0.00    +0.000 A 
ATOM      7  C   UNL     1      43.470   3.700  12.162  0.00  0.00    +0.000 A 
ATOM      8  N   UNL     1      44.167   4.456  11.246  0.00  0.00    +0.000 N 
ATOM      9  C   UNL     1      46.195   5.229  14.048  0.00  0.00    +0.000 A 
ENDROOT
BRANCH   1  10
ATOM     10  C   UNL     1      48.296   6.605  14.310  0.00  0.00    +0.000 C 
BRANCH  10  11
ATOM     11  O   UNL     1      48.607   5.685  15.351  0.00  0.00    +0.000 OA
BRANCH  11  13
ATOM     12  C   UNL     1      48.824   7.768  16.636  0.00  0.00    +0.000 C 
ATOM     13  C   UNL     1      49.067   6.253  16.590  0.00  0.00    +0.000 C 
ATOM     14  C   UNL     1      50.544   5.930  16.854  0.00  0.00    +0.000 C 
ATOM     15  C   UNL     1      48.223   5.592  17.690  0.00  0.00    +0.000 C 
ENDBRANCH  11  13
ENDBRANCH  10  11
ENDBRANCH   1  10
BRANCH   8  16
ATOM     16  C   UNL     1      43.831   4.579   9.835  0.00  0.00    +0.000 C 
BRANCH  16  17
ATOM     17  C   UNL     1      44.860   3.903   8.961  0.00  0.00    +0.000 A 
ATOM     18  C   UNL     1      45.051   2.523   9.022  0.00  0.00    +0.000 A 
ATOM     19  C   UNL     1      45.987   1.921   8.180  0.00  0.00    +0.000 A 
ATOM     20  C   UNL     1      46.727   2.707   7.298  0.00  0.00    +0.000 A 
ATOM     21  C   UNL     1      46.496   4.079   7.321  0.00  0.00    +0.000 A 
ATOM     22  N   UNL     1      45.586   4.689   8.126  0.00  0.00    +0.000 NA
BRANCH  20  23
ATOM     23  C   UNL     1      47.731   2.177   6.345  0.00  0.00    +0.000 C 
ATOM     24  N   UNL     1      48.000   2.895   5.212  0.00  0.00    +0.000 N 
ATOM     25  O   UNL     1      48.323   1.127   6.561  0.00  0.00    +0.000 OA
ATOM     26  H   UNL     1      47.583   3.777   4.964  0.00  0.00    +0.000 HD
ATOM     27  H   UNL     1      48.708   2.518   4.595  0.00  0.00    +0.000 HD
ENDBRANCH  20  23
ENDBRANCH  16  17
ENDBRANCH   8  16
TORSDOF 6
ENDMDL
MODEL 3
REMARK VINA RESULT:    -7.592      2.670      3.729
REMARK INTER + INTRA:         -10.899
REMARK INTER:                 -10.281
REMARK INTRA:                  -0.618
REMARK UNBOUND:                -0.644
REMARK  Name = 
REMARK  9 active torsions:
REMARK  status: ('A' for Active; 'I' for Inactive)
REMARK    1  A    between atoms: C_1  and  C_2
REMARK    2  A    between atoms: C_2  and  C_3
REMARK    3  A    between atoms: C_2  and  C_4
REMARK    4  A    between atoms: C_2  and  O_5
REMARK    5  A    between atoms: O_5  and  C_6
REMARK    6  A    between atoms: C_6  and  C_7
REMARK    7  A    between atoms: N_14  and  C_15
REMARK    8  A    between atoms: C_15  and  C_16
REMARK    9  A    between atoms: C_19  and  C_20
REMARK                            x       y       z     vdW  Elec       q    Type
REMARK                         _______ _______ _______ _____ _____    ______ ____
ROOT
ATOM      1  C   UNL     1      47.403   6.619  13.025  0.00  0.00    +0.000 A 
ATOM      2  C   UNL     1      47.138   6.734  11.661  0.00  0.00    +0.000 A 
ATOM      3  N   UNL     1      46.148   6.104  10.980  0.00  0.00    +0.000 NA
ATOM      4  C   UNL     1      45.379   5.323  11.769  0.00  0.00    +0.000 A 
ATOM      5  C   UNL     1      45.517   5.129  13.140  0.00  0.00    +0.000 A 
ATOM      6  C   UNL     1      44.492   4.234  13.545  0.00  0.00    +0.000 A 
ATOM      7  C   UNL     1      43.765   3.898  12.424  0.00  0.00    +0.000 A 
ATOM      8  N   UNL     1      44.319   4.557  11.348  0.00  0.00    +0.000 N 
ATOM      9  C   UNL     1      46.565   5.798  13.791  0.00  0.00    +0.000 A 
ENDROOT
BRANCH   1  10
ATOM     10  C   UNL     1      48.592   7.298  13.646  0.00  0.00    +0.000 C 
BRANCH  10  11
ATOM     11  O   UNL     1      49.719   7.200  12.782  0.00  0.00    +0.000 OA
BRANCH  11  13
ATOM     12  C   UNL     1      51.392   8.794  13.617  0.00  0.00    +0.000 C 
ATOM     13  C   UNL     1      50.412   8.427  12.494  0.00  0.00    +0.000 C 
ATOM     14  C   UNL     1      49.440   9.583  12.220  0.00  0.00    +0.000 C 
ATOM     15  C   UNL     1      51.218   8.160  11.214  0.00  0.00    +0.000 C 
ENDBRANCH  11  13
ENDBRANCH  10  11
ENDBRANCH   1  10
BRANCH   8  16
ATOM     16  C   UNL     1      43.836   4.472   9.977  0.00  0.00    +0.000 C 
BRANCH  16  17
ATOM     17  C   UNL     1      44.855   3.823   9.072  0.00  0.00    +0.000 A 
ATOM     18  C   UNL     1      45.122   2.458   9.161  0.00  0.00    +0.000 A 
ATOM     19  C   UNL     1      46.046   1.879   8.290  0.00  0.00    +0.000 A 
ATOM     20  C   UNL     1      46.699   2.675   7.350  0.00  0.00    +0.000 A 
ATOM     21  C   UNL     1      46.397   4.033   7.346  0.00  0.00    +0.000 A 
ATOM     22  N   UNL     1      45.496   4.620   8.179  0.00  0.00    +0.000 NA
BRANCH  20  23
ATOM     23  C   UNL     1      47.681   2.169   6.363  0.00  0.00    +0.000 C 
ATOM     24  N   UNL     1      47.883   2.884   5.214  0.00  0.00    +0.000 N 
ATOM     25  O   UNL     1      48.315   1.140   6.563  0.00  0.00    +0.000 OA
ATOM     26  H   UNL     1      47.428   3.749   4.975  0.00  0.00    +0.000 HD
ATOM     27  H   UNL     1      48.577   2.524   4.573  0.00  0.00    +0.000 HD
ENDBRANCH  20  23
ENDBRANCH  16  17
ENDBRANCH   8  16
TORSDOF 6
ENDMDL
MODEL 4
REMARK VINA RESULT:    -7.032      2.746      3.772
REMARK INTER + INTRA:         -10.142
REMARK INTER:                  -9.441
REMARK INTRA:                  -0.702
REMARK UNBOUND:                -0.644
REMARK  Name = 
REMARK  9 active torsions:
REMARK  status: ('A' for Active; 'I' for Inactive)
REMARK    1  A    between atoms: C_1  and  C_2
REMARK    2  A    between atoms: C_2  and  C_3
REMARK    3  A    between atoms: C_2  and  C_4
REMARK    4  A    between atoms: C_2  and  O_5
REMARK    5  A    between atoms: O_5  and  C_6
REMARK    6  A    between atoms: C_6  and  C_7
REMARK    7  A    between atoms: N_14  and  C_15
REMARK    8  A    between atoms: C_15  and  C_16
REMARK    9  A    between atoms: C_19  and  C_20
REMARK                            x       y       z     vdW  Elec       q    Type
REMARK                         _______ _______ _______ _____ _____    ______ ____
ROOT
ATOM      1  C   UNL     1      47.250   7.162  13.307  0.00  0.00    +0.000 A 
ATOM      2  C   UNL     1      47.335   5.791  13.068  0.00  0.00    +0.000 A 
ATOM      3  N   UNL     1      46.416   5.031  12.419  0.00  0.00    +0.000 NA
ATOM      4  C   UNL     1      45.358   5.744  11.980  0.00  0.00    +0.000 A 
ATOM      5  C   UNL     1      45.150   7.111  12.132  0.00  0.00    +0.000 A 
ATOM      6  C   UNL     1      43.910   7.422  11.514  0.00  0.00    +0.000 A 
ATOM      7  C   UNL     1      43.390   6.249  11.012  0.00  0.00    +0.000 A 
ATOM      8  N   UNL     1      44.272   5.233  11.309  0.00  0.00    +0.000 N 
ATOM      9  C   UNL     1      46.128   7.846  12.820  0.00  0.00    +0.000 A 
ENDROOT
BRANCH   1  10
ATOM     10  C   UNL     1      48.292   7.875  14.123  0.00  0.00    +0.000 C 
BRANCH  10  11
ATOM     11  O   UNL     1      48.360   9.245  13.743  0.00  0.00    +0.000 OA
BRANCH  11  13
ATOM     12  C   UNL     1      48.979   9.939  11.469  0.00  0.00    +0.000 C 
ATOM     13  C   UNL     1      49.457   9.618  12.891  0.00  0.00    +0.000 C 
ATOM     14  C   UNL     1      50.554   8.545  12.868  0.00  0.00    +0.000 C 
ATOM     15  C   UNL     1      50.044  10.898  13.507  0.00  0.00    +0.000 C 
ENDBRANCH  11  13
ENDBRANCH  10  11
ENDBRANCH   1  10
BRANCH   8  16
ATOM     16  C   UNL     1      44.090   3.836  10.945  0.00  0.00    +0.000 C 
BRANCH  16  17
ATOM     17  C   UNL     1      44.905   3.474   9.725  0.00  0.00    +0.000 A 
ATOM     18  C   UNL     1      45.361   4.461   8.853  0.00  0.00    +0.000 A 
ATOM     19  C   UNL     1      46.138   4.101   7.752  0.00  0.00    +0.000 A 
ATOM     20  C   UNL     1      46.440   2.758   7.531  0.00  0.00    +0.000 A 
ATOM     21  C   UNL     1      45.923   1.833   8.433  0.00  0.00    +0.000 A 
ATOM     22  N   UNL     1      45.168   2.159   9.517  0.00  0.00    +0.000 NA
BRANCH  20  23
ATOM     23  C   UNL     1      47.272   2.259   6.411  0.00  0.00    +0.000 C 
ATOM     24  N   UNL     1      47.334   3.000   5.262  0.00  0.00    +0.000 N 
ATOM     25  O   UNL     1      47.904   1.215   6.502  0.00  0.00    +0.000 OA
ATOM     26  H   UNL     1      46.869   3.880   5.106  0.00  0.00    +0.000 HD
ATOM     27  H   UNL     1      47.929   2.645   4.526  0.00  0.00    +0.000 HD
ENDBRANCH  20  23
ENDBRANCH  16  17
ENDBRANCH   8  16
TORSDOF 6
ENDMDL
MODEL 5
REMARK VINA RESULT:    -6.552      3.585      8.415
REMARK INTER + INTRA:          -9.495
REMARK INTER:                  -8.763
REMARK INTRA:                  -0.732
REMARK UNBOUND:                -0.644
REMARK  Name = 
REMARK  9 active torsions:
REMARK  status: ('A' for Active; 'I' for Inactive)
REMARK    1  A    between atoms: C_1  and  C_2
REMARK    2  A    between atoms: C_2  and  C_3
REMARK    3  A    between atoms: C_2  and  C_4
REMARK    4  A    between atoms: C_2  and  O_5
REMARK    5  A    between atoms: O_5  and  C_6
REMARK    6  A    between atoms: C_6  and  C_7
REMARK    7  A    between atoms: N_14  and  C_15
REMARK    8  A    between atoms: C_15  and  C_16
REMARK    9  A    between atoms: C_19  and  C_20
REMARK                            x       y       z     vdW  Elec       q    Type
REMARK                         _______ _______ _______ _____ _____    ______ ____
ROOT
ATOM      1  C   UNL     1      46.728   5.589  12.771  0.00  0.00    +0.000 A 
ATOM      2  C   UNL     1      46.545   4.934  13.987  0.00  0.00    +0.000 A 
ATOM      3  N   UNL     1      47.271   5.123  15.119  0.00  0.00    +0.000 NA
ATOM      4  C   UNL     1      48.231   6.062  14.978  0.00  0.00    +0.000 A 
ATOM      5  C   UNL     1      48.513   6.803  13.834  0.00  0.00    +0.000 A 
ATOM      6  C   UNL     1      49.596   7.666  14.147  0.00  0.00    +0.000 A 
ATOM      7  C   UNL     1      49.952   7.430  15.457  0.00  0.00    +0.000 A 
ATOM      8  N   UNL     1      49.124   6.445  15.950  0.00  0.00    +0.000 N 
ATOM      9  C   UNL     1      47.737   6.558  12.691  0.00  0.00    +0.000 A 
ENDROOT
BRANCH   1  10
ATOM     10  C   UNL     1      45.916   5.222  11.560  0.00  0.00    +0.000 C 
BRANCH  10  11
ATOM     11  O   UNL     1      45.298   3.953  11.750  0.00  0.00    +0.000 OA
BRANCH  11  13
ATOM     12  C   UNL     1      44.465   3.096   9.604  0.00  0.00    +0.000 C 
ATOM     13  C   UNL     1      44.116   3.696  10.972  0.00  0.00    +0.000 C 
ATOM     14  C   UNL     1      43.251   4.953  10.812  0.00  0.00    +0.000 C 
ATOM     15  C   UNL     1      43.313   2.655  11.768  0.00  0.00    +0.000 C 
ENDBRANCH  11  13
ENDBRANCH  10  11
ENDBRANCH   1  10
BRANCH   8  16
ATOM     16  C   UNL     1      49.172   5.913  17.303  0.00  0.00    +0.000 C 
BRANCH  16  17
ATOM     17  C   UNL     1      50.067   4.699  17.387  0.00  0.00    +0.000 A 
ATOM     18  C   UNL     1      51.427   4.833  17.660  0.00  0.00    +0.000 A 
ATOM     19  C   UNL     1      52.224   3.693  17.763  0.00  0.00    +0.000 A 
ATOM     20  C   UNL     1      51.653   2.434  17.580  0.00  0.00    +0.000 A 
ATOM     21  C   UNL     1      50.294   2.389  17.283  0.00  0.00    +0.000 A 
ATOM     22  N   UNL     1      49.495   3.485  17.184  0.00  0.00    +0.000 NA
BRANCH  20  23
ATOM     23  C   UNL     1      52.394   1.155  17.686  0.00  0.00    +0.000 C 
ATOM     24  N   UNL     1      51.738   0.057  18.173  0.00  0.00    +0.000 N 
ATOM     25  O   UNL     1      53.564   1.066  17.338  0.00  0.00    +0.000 OA
ATOM     26  H   UNL     1      50.774   0.030  18.459  0.00  0.00    +0.000 HD
ATOM     27  H   UNL     1      52.265  -0.805  18.209  0.00  0.00    +0.000 HD
ENDBRANCH  20  23
ENDBRANCH  16  17
ENDBRANCH   8  16
TORSDOF 6
ENDMDL
MODEL 6
REMARK VINA RESULT:    -5.707      3.595      8.802
REMARK INTER + INTRA:          -8.353
REMARK INTER:                  -7.582
REMARK INTRA:                  -0.771
REMARK UNBOUND:                -0.644
REMARK  Name = 
REMARK  9 active torsions:
REMARK  status: ('A' for Active; 'I' for Inactive)
REMARK    1  A    between atoms: C_1  and  C_2
REMARK    2  A    between atoms: C_2  and  C_3
REMARK    3  A    between atoms: C_2  and  C_4
REMARK    4  A    between atoms: C_2  and  O_5
REMARK    5  A    between atoms: O_5  and  C_6
REMARK    6  A    between atoms: C_6  and  C_7
REMARK    7  A    between atoms: N_14  and  C_15
REMARK    8  A    between atoms: C_15  and  C_16
REMARK    9  A    between atoms: C_19  and  C_20
REMARK                            x       y       z     vdW  Elec       q    Type
REMARK                         _______ _______ _______ _____ _____    ______ ____
ROOT
ATOM      1  C   UNL     1      46.415   6.816  12.108  0.00  0.00    +0.000 A 
ATOM      2  C   UNL     1      47.232   5.880  12.738  0.00  0.00    +0.000 A 
ATOM      3  N   UNL     1      48.300   6.150  13.531  0.00  0.00    +0.000 NA
ATOM      4  C   UNL     1      48.517   7.473  13.690  0.00  0.00    +0.000 A 
ATOM      5  C   UNL     1      47.775   8.513  13.138  0.00  0.00    +0.000 A 
ATOM      6  C   UNL     1      48.363   9.729  13.575  0.00  0.00    +0.000 A 
ATOM      7  C   UNL     1      49.443   9.408  14.369  0.00  0.00    +0.000 A 
ATOM      8  N   UNL     1      49.535   8.035  14.423  0.00  0.00    +0.000 N 
ATOM      9  C   UNL     1      46.688   8.174  12.318  0.00  0.00    +0.000 A 
ENDROOT
BRANCH   1  10
ATOM     10  C   UNL     1      45.316   6.388  11.175  0.00  0.00    +0.000 C 
BRANCH  10  11
ATOM     11  O   UNL     1      45.593   5.092  10.654  0.00  0.00    +0.000 OA
BRANCH  11  13
ATOM     12  C   UNL     1      44.763   3.283  12.094  0.00  0.00    +0.000 C 
ATOM     13  C   UNL     1      44.560   4.105  10.814  0.00  0.00    +0.000 C 
ATOM     14  C   UNL     1      44.451   3.187   9.589  0.00  0.00    +0.000 C 
ATOM     15  C   UNL     1      43.248   4.893  10.946  0.00  0.00    +0.000 C 
ENDBRANCH  11  13
ENDBRANCH  10  11
ENDBRANCH   1  10
BRANCH   8  16
ATOM     16  C   UNL     1      50.542   7.293  15.167  0.00  0.00    +0.000 C 
BRANCH  16  17
ATOM     17  C   UNL     1      49.978   6.730  16.450  0.00  0.00    +0.000 A 
ATOM     18  C   UNL     1      49.335   7.557  17.369  0.00  0.00    +0.000 A 
ATOM     19  C   UNL     1      48.796   7.005  18.532  0.00  0.00    +0.000 A 
ATOM     20  C   UNL     1      48.916   5.636  18.764  0.00  0.00    +0.000 A 
ATOM     21  C   UNL     1      49.598   4.886  17.811  0.00  0.00    +0.000 A 
ATOM     22  N   UNL     1      50.127   5.399  16.667  0.00  0.00    +0.000 NA
BRANCH  20  23
ATOM     23  C   UNL     1      48.367   4.936  19.949  0.00  0.00    +0.000 C 
ATOM     24  N   UNL     1      48.503   3.577  20.029  0.00  0.00    +0.000 N 
ATOM     25  O   UNL     1      47.811   5.550  20.851  0.00  0.00    +0.000 OA
ATOM     26  H   UNL     1      48.965   2.994  19.351  0.00  0.00    +0.000 HD
ATOM     27  H   UNL     1      48.139   3.134  20.862  0.00  0.00    +0.000 HD
ENDBRANCH  20  23
ENDBRANCH  16  17
ENDBRANCH   8  16
TORSDOF 6
ENDMDL
MODEL 7
REMARK VINA RESULT:    -5.538      3.387      4.886
REMARK INTER + INTRA:          -8.125
REMARK INTER:                  -7.385
REMARK INTRA:                  -0.740
REMARK UNBOUND:                -0.644
REMARK  Name = 
REMARK  9 active torsions:
REMARK  status: ('A' for Active; 'I' for Inactive)
REMARK    1  A    between atoms: C_1  and  C_2
REMARK    2  A    between atoms: C_2  and  C_3
REMARK    3  A    between atoms: C_2  and  C_4
REMARK    4  A    between atoms: C_2  and  O_5
REMARK    5  A    between atoms: O_5  and  C_6
REMARK    6  A    between atoms: C_6  and  C_7
REMARK    7  A    between atoms: N_14  and  C_15
REMARK    8  A    between atoms: C_15  and  C_16
REMARK    9  A    between atoms: C_19  and  C_20
REMARK                            x       y       z     vdW  Elec       q    Type
REMARK                         _______ _______ _______ _____ _____    ______ ____
ROOT
ATOM      1  C   UNL     1      50.049   6.983  15.670  0.00  0.00    +0.000 A 
ATOM      2  C   UNL     1      48.656   6.957  15.630  0.00  0.00    +0.000 A 
ATOM      3  N   UNL     1      47.871   7.467  14.647  0.00  0.00    +0.000 NA
ATOM      4  C   UNL     1      48.580   8.019  13.640  0.00  0.00    +0.000 A 
ATOM      5  C   UNL     1      49.965   8.100  13.540  0.00  0.00    +0.000 A 
ATOM      6  C   UNL     1      50.263   8.757  12.317  0.00  0.00    +0.000 A 
ATOM      7  C   UNL     1      49.067   9.067  11.709  0.00  0.00    +0.000 A 
ATOM      8  N   UNL     1      48.049   8.625  12.526  0.00  0.00    +0.000 N 
ATOM      9  C   UNL     1      50.727   7.565  14.591  0.00  0.00    +0.000 A 
ENDROOT
BRANCH   1  10
ATOM     10  C   UNL     1      50.802   6.467  16.864  0.00  0.00    +0.000 C 
BRANCH  10  11
ATOM     11  O   UNL     1      51.080   5.079  16.706  0.00  0.00    +0.000 OA
BRANCH  11  13
ATOM     12  C   UNL     1      49.192   3.675  17.411  0.00  0.00    +0.000 C 
ATOM     13  C   UNL     1      50.592   4.208  17.741  0.00  0.00    +0.000 C 
ATOM     14  C   UNL     1      50.606   4.890  19.116  0.00  0.00    +0.000 C 
ATOM     15  C   UNL     1      51.567   3.021  17.780  0.00  0.00    +0.000 C 
ENDBRANCH  11  13
ENDBRANCH  10  11
ENDBRANCH   1  10
BRANCH   8  16
ATOM     16  C   UNL     1      46.629   8.756  12.237  0.00  0.00    +0.000 C 
BRANCH  16  17
ATOM     17  C   UNL     1      45.972   7.406  12.074  0.00  0.00    +0.000 A 
ATOM     18  C   UNL     1      46.416   6.509  11.104  0.00  0.00    +0.000 A 
ATOM     19  C   UNL     1      45.811   5.256  10.997  0.00  0.00    +0.000 A 
ATOM     20  C   UNL     1      44.763   4.921  11.853  0.00  0.00    +0.000 A 
ATOM     21  C   UNL     1      44.362   5.883  12.774  0.00  0.00    +0.000 A 
ATOM     22  N   UNL     1      44.939   7.109  12.903  0.00  0.00    +0.000 NA
BRANCH  20  23
ATOM     23  C   UNL     1      44.061   3.616  11.846  0.00  0.00    +0.000 C 
ATOM     24  N   UNL     1      44.668   2.543  12.440  0.00  0.00    +0.000 N 
ATOM     25  O   UNL     1      42.956   3.490  11.334  0.00  0.00    +0.000 OA
ATOM     26  H   UNL     1      45.560   2.558  12.905  0.00  0.00    +0.000 HD
ATOM     27  H   UNL     1      44.151   1.674  12.439  0.00  0.00    +0.000 HD
ENDBRANCH  20  23
ENDBRANCH  16  17
ENDBRANCH   8  16
TORSDOF 6
ENDMDL
MODEL 8
REMARK VINA RESULT:    -5.516      4.812      8.387
REMARK INTER + INTRA:          -8.095
REMARK INTER:                  -7.320
REMARK INTRA:                  -0.775
REMARK UNBOUND:                -0.644
REMARK  Name = 
REMARK  9 active torsions:
REMARK  status: ('A' for Active; 'I' for Inactive)
REMARK    1  A    between atoms: C_1  and  C_2
REMARK    2  A    between atoms: C_2  and  C_3
REMARK    3  A    between atoms: C_2  and  C_4
REMARK    4  A    between atoms: C_2  and  O_5
REMARK    5  A    between atoms: O_5  and  C_6
REMARK    6  A    between atoms: C_6  and  C_7
REMARK    7  A    between atoms: N_14  and  C_15
REMARK    8  A    between atoms: C_15  and  C_16
REMARK    9  A    between atoms: C_19  and  C_20
REMARK                            x       y       z     vdW  Elec       q    Type
REMARK                         _______ _______ _______ _____ _____    ______ ____
ROOT
ATOM      1  C   UNL     1      49.299   7.705  12.655  0.00  0.00    +0.000 A 
ATOM      2  C   UNL     1      49.783   7.699  13.962  0.00  0.00    +0.000 A 
ATOM      3  N   UNL     1      49.334   6.922  14.981  0.00  0.00    +0.000 NA
ATOM      4  C   UNL     1      48.336   6.093  14.611  0.00  0.00    +0.000 A 
ATOM      5  C   UNL     1      47.769   5.980  13.345  0.00  0.00    +0.000 A 
ATOM      6  C   UNL     1      46.760   4.985  13.420  0.00  0.00    +0.000 A 
ATOM      7  C   UNL     1      46.727   4.523  14.718  0.00  0.00    +0.000 A 
ATOM      8  N   UNL     1      47.682   5.210  15.436  0.00  0.00    +0.000 N 
ATOM      9  C   UNL     1      48.266   6.816  12.332  0.00  0.00    +0.000 A 
ENDROOT
BRANCH   1  10
ATOM     10  C   UNL     1      49.818   8.684  11.638  0.00  0.00    +0.000 C 
BRANCH  10  11
ATOM     11  O   UNL     1      50.864   8.090  10.876  0.00  0.00    +0.000 OA
BRANCH  11  13
ATOM     12  C   UNL     1      52.855   8.459   9.485  0.00  0.00    +0.000 C 
ATOM     13  C   UNL     1      52.072   8.860  10.742  0.00  0.00    +0.000 C 
ATOM     14  C   UNL     1      52.957   8.757  11.991  0.00  0.00    +0.000 C 
ATOM     15  C   UNL     1      51.620  10.320  10.588  0.00  0.00    +0.000 C 
ENDBRANCH  11  13
ENDBRANCH  10  11
ENDBRANCH   1  10
BRANCH   8  16
ATOM     16  C   UNL     1      47.969   5.010  16.849  0.00  0.00    +0.000 C 
BRANCH  16  17
ATOM     17  C   UNL     1      49.154   4.095  17.047  0.00  0.00    +0.000 A 
ATOM     18  C   UNL     1      50.378   4.599  17.485  0.00  0.00    +0.000 A 
ATOM     19  C   UNL     1      51.447   3.726  17.690  0.00  0.00    +0.000 A 
ATOM     20  C   UNL     1      51.282   2.364  17.443  0.00  0.00    +0.000 A 
ATOM     21  C   UNL     1      50.038   1.947  16.981  0.00  0.00    +0.000 A 
ATOM     22  N   UNL     1      48.978   2.776  16.779  0.00  0.00    +0.000 NA
BRANCH  20  23
ATOM     23  C   UNL     1      52.337   1.343  17.644  0.00  0.00    +0.000 C 
ATOM     24  N   UNL     1      51.988   0.141  18.198  0.00  0.00    +0.000 N 
ATOM     25  O   UNL     1      53.498   1.552  17.315  0.00  0.00    +0.000 OA
ATOM     26  H   UNL     1      51.059  -0.128  18.476  0.00  0.00    +0.000 HD
ATOM     27  H   UNL     1      52.726  -0.542  18.299  0.00  0.00    +0.000 HD
ENDBRANCH  20  23
ENDBRANCH  16  17
ENDBRANCH   8  16
TORSDOF 6
ENDMDL
