MODEL 1
REMARK VINA RESULT:    -9.433      0.000      0.000
REMARK INTER + INTRA:         -13.618
REMARK INTER:                 -12.190
REMARK INTRA:                  -1.428
REMARK UNBOUND:                -1.428
REMARK  Name = 
REMARK  5 active torsions:
REMARK  status: ('A' for Active; 'I' for Inactive)
REMARK    1  A    between atoms: C_2  and  C_4
REMARK    2  A    between atoms: N_8  and  C_9
REMARK    3  A    between atoms: C_9  and  C_10
REMARK    4  A    between atoms: C_14  and  C_15
REMARK    5  A    between atoms: C_19  and  C_20
REMARK                            x       y       z     vdW  Elec       q    Type
REMARK                         _______ _______ _______ _____ _____    ______ ____
ROOT
ATOM      1  C   UNL     1      43.861   4.918  11.396  0.00  0.00    +0.000 C 
ATOM      2  C   UNL     1      42.515   5.138  12.071  0.00  0.00    +0.000 C 
ATOM      3  C   UNL     1      43.005   6.131  11.074  0.00  0.00    +0.000 C 
ENDROOT
BRANCH   1   8
ATOM      4  C   UNL     1      46.596   2.781   7.487  0.00  0.00    +0.000 A 
ATOM      5  C   UNL     1      46.329   4.125   7.731  0.00  0.00    +0.000 A 
ATOM      6  C   UNL     1      45.468   4.471   8.776  0.00  0.00    +0.000 A 
ATOM      7  C   UNL     1      44.879   3.476   9.547  0.00  0.00    +0.000 A 
ATOM      8  N   UNL     1      43.932   3.725  10.540  0.00  0.00    +0.000 N 
ATOM      9  N   UNL     1      45.130   2.169   9.314  0.00  0.00    +0.000 NA
ATOM     10  C   UNL     1      45.970   1.847   8.296  0.00  0.00    +0.000 A 
ATOM     11  H   UNL     1      43.733   2.829  10.980  0.00  0.00    +0.000 HD
BRANCH   4  13
ATOM     12  N   UNL     1      47.413   2.998   5.207  0.00  0.00    +0.000 N 
ATOM     13  C   UNL     1      47.468   2.313   6.390  0.00  0.00    +0.000 C 
ATOM     14  O   UNL     1      48.228   1.366   6.534  0.00  0.00    +0.000 OA
ATOM     15  H   UNL     1      48.072   2.715   4.491  0.00  0.00    +0.000 HD
ATOM     16  H   UNL     1      46.985   3.908   5.114  0.00  0.00    +0.000 HD
ENDBRANCH   4  13
ENDBRANCH   1   8
BRANCH   1  17
ATOM     17  C   UNL     1      45.119   5.183  12.224  0.00  0.00    +0.000 A 
ATOM     18  C   UNL     1      45.572   4.271  13.188  0.00  0.00    +0.000 A 
ATOM     19  C   UNL     1      46.789   4.458  13.840  0.00  0.00    +0.000 A 
ATOM     20  C   UNL     1      47.583   5.565  13.534  0.00  0.00    +0.000 A 
ATOM     21  C   UNL     1      47.174   6.517  12.586  0.00  0.00    +0.000 A 
ATOM     22  C   UNL     1      45.921   6.317  11.979  0.00  0.00    +0.000 A 
BRANCH  21  23
ATOM     23  C   UNL     1      48.045   7.649  12.191  0.00  0.00    +0.000 A 
ATOM     24  C   UNL     1      47.591   8.980  12.213  0.00  0.00    +0.000 A 
ATOM     25  C   UNL     1      48.406  10.038  11.801  0.00  0.00    +0.000 A 
ATOM     26  C   UNL     1      49.711   9.794  11.381  0.00  0.00    +0.000 A 
ATOM     27  C   UNL     1      50.209   8.487  11.362  0.00  0.00    +0.000 A 
ATOM     28  C   UNL     1      49.362   7.430  11.744  0.00  0.00    +0.000 A 
BRANCH  27  29
ATOM     29  C   UNL     1      51.630   8.191  10.958  0.00  0.00    +0.000 C 
ATOM     30  F   UNL     1      52.487   8.079  12.011  0.00  0.00    +0.000 F 
ATOM     31  F   UNL     1      51.737   7.022  10.267  0.00  0.00    +0.000 F 
ATOM     32  F   UNL     1      52.157   9.151  10.148  0.00  0.00    +0.000 F 
ENDBRANCH  27  29
ENDBRANCH  21  23
ENDBRANCH   1  17
TORSDOF 5
ENDMDL
MODEL 2
REMARK VINA RESULT:    -9.080      3.441      5.059
REMARK INTER + INTRA:         -13.162
REMARK INTER:                 -11.993
REMARK INTRA:                  -1.169
REMARK UNBOUND:                -1.428
REMARK  Name = 
REMARK  5 active torsions:
REMARK  status: ('A' for Active; 'I' for Inactive)
REMARK    1  A    between atoms: C_2  and  C_4
REMARK    2  A    between atoms: N_8  and  C_9
REMARK    3  A    between atoms: C_9  and  C_10
REMARK    4  A    between atoms: C_14  and  C_15
REMARK    5  A    between atoms: C_19  and  C_20
REMARK                            x       y       z     vdW  Elec       q    Type
REMARK                         _______ _______ _______ _____ _____    ______ ____
ROOT
ATOM      1  C   UNL     1      44.031   4.904  11.542  0.00  0.00    +0.000 C 
ATOM      2  C   UNL     1      42.784   5.044  12.405  0.00  0.00    +0.000 C 
ATOM      3  C   UNL     1      43.034   6.026  11.312  0.00  0.00    +0.000 C 
ENDROOT
BRANCH   1   8
ATOM      4  C   UNL     1      46.486   2.736   7.469  0.00  0.00    +0.000 A 
ATOM      5  C   UNL     1      46.178   4.075   7.689  0.00  0.00    +0.000 A 
ATOM      6  C   UNL     1      45.403   4.424   8.798  0.00  0.00    +0.000 A 
ATOM      7  C   UNL     1      44.940   3.435   9.658  0.00  0.00    +0.000 A 
ATOM      8  N   UNL     1      44.080   3.681  10.728  0.00  0.00    +0.000 N 
ATOM      9  N   UNL     1      45.231   2.133   9.449  0.00  0.00    +0.000 NA
ATOM     10  C   UNL     1      45.987   1.808   8.368  0.00  0.00    +0.000 A 
ATOM     11  H   UNL     1      43.968   2.796  11.218  0.00  0.00    +0.000 HD
BRANCH   4  13
ATOM     12  N   UNL     1      47.261   3.039   5.184  0.00  0.00    +0.000 N 
ATOM     13  C   UNL     1      47.273   2.264   6.311  0.00  0.00    +0.000 C 
ATOM     14  O   UNL     1      47.929   1.233   6.358  0.00  0.00    +0.000 OA
ATOM     15  H   UNL     1      47.867   2.745   4.427  0.00  0.00    +0.000 HD
ATOM     16  H   UNL     1      46.933   3.995   5.173  0.00  0.00    +0.000 HD
ENDBRANCH   4  13
ENDBRANCH   1   8
BRANCH   1  17
ATOM     17  C   UNL     1      45.369   5.309  12.163  0.00  0.00    +0.000 A 
ATOM     18  C   UNL     1      46.093   6.415  11.695  0.00  0.00    +0.000 A 
ATOM     19  C   UNL     1      47.240   6.853  12.353  0.00  0.00    +0.000 A 
ATOM     20  C   UNL     1      47.683   6.195  13.501  0.00  0.00    +0.000 A 
ATOM     21  C   UNL     1      47.005   5.074  14.007  0.00  0.00    +0.000 A 
ATOM     22  C   UNL     1      45.875   4.635  13.293  0.00  0.00    +0.000 A 
BRANCH  21  23
ATOM     23  C   UNL     1      47.415   4.418  15.271  0.00  0.00    +0.000 A 
ATOM     24  C   UNL     1      47.782   3.062  15.320  0.00  0.00    +0.000 A 
ATOM     25  C   UNL     1      48.131   2.440  16.523  0.00  0.00    +0.000 A 
ATOM     26  C   UNL     1      48.148   3.171  17.708  0.00  0.00    +0.000 A 
ATOM     27  C   UNL     1      47.807   4.527  17.701  0.00  0.00    +0.000 A 
ATOM     28  C   UNL     1      47.423   5.127  16.488  0.00  0.00    +0.000 A 
BRANCH  27  29
ATOM     29  C   UNL     1      47.860   5.359  18.957  0.00  0.00    +0.000 C 
ATOM     30  F   UNL     1      48.651   6.463  18.851  0.00  0.00    +0.000 F 
ATOM     31  F   UNL     1      46.630   5.819  19.323  0.00  0.00    +0.000 F 
ATOM     32  F   UNL     1      48.330   4.663  20.029  0.00  0.00    +0.000 F 
ENDBRANCH  27  29
ENDBRANCH  21  23
ENDBRANCH   1  17
TORSDOF 5
ENDMDL
MODEL 3
REMARK VINA RESULT:    -7.610      5.057      8.379
REMARK INTER + INTRA:         -11.262
REMARK INTER:                  -9.923
REMARK INTRA:                  -1.339
REMARK UNBOUND:                -1.428
REMARK  Name = 
REMARK  5 active torsions:
REMARK  status: ('A' for Active; 'I' for Inactive)
REMARK    1  A    between atoms: C_2  and  C_4
REMARK    2  A    between atoms: N_8  and  C_9
REMARK    3  A    between atoms: C_9  and  C_10
REMARK    4  A    between atoms: C_14  and  C_15
REMARK    5  A    between atoms: C_19  and  C_20
REMARK                            x       y       z     vdW  Elec       q    Type
REMARK                         _______ _______ _______ _____ _____    ______ ____
ROOT
ATOM      1  C   UNL     1      49.065   8.117  12.887  0.00  0.00    +0.000 C 
ATOM      2  C   UNL     1      50.017   8.324  11.717  0.00  0.00    +0.000 C 
ATOM      3  C   UNL     1      49.739   9.456  12.645  0.00  0.00    +0.000 C 
ENDROOT
BRANCH   1   8
ATOM      4  C   UNL     1      48.541   6.791  17.916  0.00  0.00    +0.000 A 
ATOM      5  C   UNL     1      48.490   8.057  17.338  0.00  0.00    +0.000 A 
ATOM      6  C   UNL     1      48.780   8.198  15.978  0.00  0.00    +0.000 A 
ATOM      7  C   UNL     1      49.125   7.083  15.224  0.00  0.00    +0.000 A 
ATOM      8  N   UNL     1      49.526   7.146  13.889  0.00  0.00    +0.000 N 
ATOM      9  N   UNL     1      49.181   5.853  15.778  0.00  0.00    +0.000 NA
ATOM     10  C   UNL     1      48.897   5.729  17.101  0.00  0.00    +0.000 A 
ATOM     11  H   UNL     1      49.646   6.184  13.579  0.00  0.00    +0.000 HD
BRANCH   4  13
ATOM     12  N   UNL     1      47.455   5.501  19.668  0.00  0.00    +0.000 N 
ATOM     13  C   UNL     1      48.282   6.543  19.349  0.00  0.00    +0.000 C 
ATOM     14  O   UNL     1      48.803   7.223  20.222  0.00  0.00    +0.000 OA
ATOM     15  H   UNL     1      47.350   5.294  20.654  0.00  0.00    +0.000 HD
ATOM     16  H   UNL     1      47.193   4.781  19.010  0.00  0.00    +0.000 HD
ENDBRANCH   4  13
ENDBRANCH   1   8
BRANCH   1  17
ATOM     17  C   UNL     1      47.569   8.051  12.577  0.00  0.00    +0.000 A 
ATOM     18  C   UNL     1      46.748   9.185  12.659  0.00  0.00    +0.000 A 
ATOM     19  C   UNL     1      45.419   9.142  12.246  0.00  0.00    +0.000 A 
ATOM     20  C   UNL     1      44.883   7.959  11.734  0.00  0.00    +0.000 A 
ATOM     21  C   UNL     1      45.655   6.789  11.640  0.00  0.00    +0.000 A 
ATOM     22  C   UNL     1      46.981   6.859  12.105  0.00  0.00    +0.000 A 
BRANCH  21  23
ATOM     23  C   UNL     1      45.125   5.551  11.021  0.00  0.00    +0.000 A 
ATOM     24  C   UNL     1      44.082   4.814  11.608  0.00  0.00    +0.000 A 
ATOM     25  C   UNL     1      43.614   3.626  11.038  0.00  0.00    +0.000 A 
ATOM     26  C   UNL     1      44.161   3.159   9.846  0.00  0.00    +0.000 A 
ATOM     27  C   UNL     1      45.188   3.872   9.218  0.00  0.00    +0.000 A 
ATOM     28  C   UNL     1      45.672   5.045   9.826  0.00  0.00    +0.000 A 
BRANCH  27  29
ATOM     29  C   UNL     1      45.771   3.421   7.904  0.00  0.00    +0.000 C 
ATOM     30  F   UNL     1      46.701   4.277   7.394  0.00  0.00    +0.000 F 
ATOM     31  F   UNL     1      46.394   2.213   8.003  0.00  0.00    +0.000 F 
ATOM     32  F   UNL     1      44.827   3.274   6.933  0.00  0.00    +0.000 F 
ENDBRANCH  27  29
ENDBRANCH  21  23
ENDBRANCH   1  17
TORSDOF 5
ENDMDL
MODEL 4
REMARK VINA RESULT:    -7.247      6.358      8.689
REMARK INTER + INTRA:         -10.793
REMARK INTER:                  -9.671
REMARK INTRA:                  -1.122
REMARK UNBOUND:                -1.428
REMARK  Name = 
REMARK  5 active torsions:
REMARK  status: ('A' for Active; 'I' for Inactive)
REMARK    1  A    between atoms: C_2  and  C_4
REMARK    2  A    between atoms: N_8  and  C_9
REMARK    3  A    between atoms: C_9  and  C_10
REMARK    4  A    between atoms: C_14  and  C_15
REMARK    5  A    between atoms: C_19  and  C_20
REMARK                            x       y       z     vdW  Elec       q    Type
REMARK                         _______ _______ _______ _____ _____    ______ ____
ROOT
ATOM      1  C   UNL     1      48.505   5.026  17.534  0.00  0.00    +0.000 C 
ATOM      2  C   UNL     1      47.381   5.384  18.497  0.00  0.00    +0.000 C 
ATOM      3  C   UNL     1      47.286   4.134  17.690  0.00  0.00    +0.000 C 
ENDROOT
BRANCH   1   8
ATOM      4  C   UNL     1      52.452   1.598  17.596  0.00  0.00    +0.000 A 
ATOM      5  C   UNL     1      51.098   1.365  17.371  0.00  0.00    +0.000 A 
ATOM      6  C   UNL     1      50.190   2.417  17.522  0.00  0.00    +0.000 A 
ATOM      7  C   UNL     1      50.643   3.673  17.904  0.00  0.00    +0.000 A 
ATOM      8  N   UNL     1      49.799   4.751  18.175  0.00  0.00    +0.000 N 
ATOM      9  N   UNL     1      51.954   3.907  18.129  0.00  0.00    +0.000 NA
ATOM     10  C   UNL     1      52.826   2.876  17.978  0.00  0.00    +0.000 A 
ATOM     11  H   UNL     1      50.402   5.550  18.360  0.00  0.00    +0.000 HD
BRANCH   4  13
ATOM     12  N   UNL     1      53.348  -0.551  18.299  0.00  0.00    +0.000 N 
ATOM     13  C   UNL     1      53.484   0.547  17.493  0.00  0.00    +0.000 C 
ATOM     14  O   UNL     1      54.414   0.636  16.704  0.00  0.00    +0.000 OA
ATOM     15  H   UNL     1      54.018  -1.298  18.161  0.00  0.00    +0.000 HD
ATOM     16  H   UNL     1      52.493  -0.776  18.787  0.00  0.00    +0.000 HD
ENDBRANCH   4  13
ENDBRANCH   1   8
BRANCH   1  17
ATOM     17  C   UNL     1      48.597   5.818  16.229  0.00  0.00    +0.000 A 
ATOM     18  C   UNL     1      49.683   6.661  15.954  0.00  0.00    +0.000 A 
ATOM     19  C   UNL     1      49.822   7.272  14.709  0.00  0.00    +0.000 A 
ATOM     20  C   UNL     1      48.875   7.045  13.709  0.00  0.00    +0.000 A 
ATOM     21  C   UNL     1      47.760   6.220  13.933  0.00  0.00    +0.000 A 
ATOM     22  C   UNL     1      47.632   5.654  15.214  0.00  0.00    +0.000 A 
BRANCH  21  23
ATOM     23  C   UNL     1      46.794   5.903  12.855  0.00  0.00    +0.000 A 
ATOM     24  C   UNL     1      46.927   6.432  11.559  0.00  0.00    +0.000 A 
ATOM     25  C   UNL     1      45.990   6.159  10.557  0.00  0.00    +0.000 A 
ATOM     26  C   UNL     1      44.907   5.325  10.821  0.00  0.00    +0.000 A 
ATOM     27  C   UNL     1      44.747   4.764  12.092  0.00  0.00    +0.000 A 
ATOM     28  C   UNL     1      45.679   5.078  13.098  0.00  0.00    +0.000 A 
BRANCH  27  29
ATOM     29  C   UNL     1      43.613   3.820  12.400  0.00  0.00    +0.000 C 
ATOM     30  F   UNL     1      44.000   2.519  12.524  0.00  0.00    +0.000 F 
ATOM     31  F   UNL     1      42.984   4.132  13.568  0.00  0.00    +0.000 F 
ATOM     32  F   UNL     1      42.645   3.832  11.442  0.00  0.00    +0.000 F 
ENDBRANCH  27  29
ENDBRANCH  21  23
ENDBRANCH   1  17
TORSDOF 5
ENDMDL
MODEL 5
REMARK VINA RESULT:    -7.089      5.895      8.651
REMARK INTER + INTRA:         -10.589
REMARK INTER:                  -9.514
REMARK INTRA:                  -1.076
REMARK UNBOUND:                -1.428
REMARK  Name = 
REMARK  5 active torsions:
REMARK  status: ('A' for Active; 'I' for Inactive)
REMARK    1  A    between atoms: C_2  and  C_4
REMARK    2  A    between atoms: N_8  and  C_9
REMARK    3  A    between atoms: C_9  and  C_10
REMARK    4  A    between atoms: C_14  and  C_15
REMARK    5  A    between atoms: C_19  and  C_20
REMARK                            x       y       z     vdW  Elec       q    Type
REMARK                         _______ _______ _______ _____ _____    ______ ____
ROOT
ATOM      1  C   UNL     1      43.821  10.652  10.539  0.00  0.00    +0.000 C 
ATOM      2  C   UNL     1      44.643  11.502   9.579  0.00  0.00    +0.000 C 
ATOM      3  C   UNL     1      43.701  10.484   9.034  0.00  0.00    +0.000 C 
ENDROOT
BRANCH   1   8
ATOM      4  C   UNL     1      38.773  10.801  11.886  0.00  0.00    +0.000 A 
ATOM      5  C   UNL     1      39.342  10.399  10.681  0.00  0.00    +0.000 A 
ATOM      6  C   UNL     1      40.717  10.555  10.490  0.00  0.00    +0.000 A 
ATOM      7  C   UNL     1      41.496  11.119  11.493  0.00  0.00    +0.000 A 
ATOM      8  N   UNL     1      42.854  11.404  11.351  0.00  0.00    +0.000 N 
ATOM      9  N   UNL     1      40.951  11.516  12.664  0.00  0.00    +0.000 NA
ATOM     10  C   UNL     1      39.612  11.357  12.836  0.00  0.00    +0.000 A 
ATOM     11  H   UNL     1      43.175  11.741  12.257  0.00  0.00    +0.000 HD
BRANCH   4  13
ATOM     12  N   UNL     1      36.644   9.656  11.620  0.00  0.00    +0.000 N 
ATOM     13  C   UNL     1      37.326  10.705  12.171  0.00  0.00    +0.000 C 
ATOM     14  O   UNL     1      36.759  11.516  12.891  0.00  0.00    +0.000 OA
ATOM     15  H   UNL     1      35.671   9.559  11.888  0.00  0.00    +0.000 HD
ATOM     16  H   UNL     1      37.100   8.848  11.220  0.00  0.00    +0.000 HD
ENDBRANCH   4  13
ENDBRANCH   1   8
BRANCH   1  17
ATOM     17  C   UNL     1      44.544   9.531  11.286  0.00  0.00    +0.000 A 
ATOM     18  C   UNL     1      45.323   9.786  12.424  0.00  0.00    +0.000 A 
ATOM     19  C   UNL     1      45.865   8.744  13.173  0.00  0.00    +0.000 A 
ATOM     20  C   UNL     1      45.632   7.419  12.800  0.00  0.00    +0.000 A 
ATOM     21  C   UNL     1      44.871   7.105  11.662  0.00  0.00    +0.000 A 
ATOM     22  C   UNL     1      44.374   8.183  10.907  0.00  0.00    +0.000 A 
BRANCH  21  23
ATOM     23  C   UNL     1      44.545   5.704  11.303  0.00  0.00    +0.000 A 
ATOM     24  C   UNL     1      43.716   4.903  12.108  0.00  0.00    +0.000 A 
ATOM     25  C   UNL     1      43.446   3.571  11.783  0.00  0.00    +0.000 A 
ATOM     26  C   UNL     1      43.978   3.012  10.624  0.00  0.00    +0.000 A 
ATOM     27  C   UNL     1      44.793   3.779   9.785  0.00  0.00    +0.000 A 
ATOM     28  C   UNL     1      45.085   5.107  10.147  0.00  0.00    +0.000 A 
BRANCH  27  29
ATOM     29  C   UNL     1      45.347   3.221   8.500  0.00  0.00    +0.000 C 
ATOM     30  F   UNL     1      46.511   3.808   8.103  0.00  0.00    +0.000 F 
ATOM     31  F   UNL     1      45.617   1.887   8.590  0.00  0.00    +0.000 F 
ATOM     32  F   UNL     1      44.486   3.355   7.453  0.00  0.00    +0.000 F 
ENDBRANCH  27  29
ENDBRANCH  21  23
ENDBRANCH   1  17
TORSDOF 5
ENDMDL
MODEL 6
REMARK VINA RESULT:    -6.922      4.582      7.051
REMARK INTER + INTRA:         -10.374
REMARK INTER:                  -8.879
REMARK INTRA:                  -1.495
REMARK UNBOUND:                -1.428
REMARK  Name = 
REMARK  5 active torsions:
REMARK  status: ('A' for Active; 'I' for Inactive)
REMARK    1  A    between atoms: C_2  and  C_4
REMARK    2  A    between atoms: N_8  and  C_9
REMARK    3  A    between atoms: C_9  and  C_10
REMARK    4  A    between atoms: C_14  and  C_15
REMARK    5  A    between atoms: C_19  and  C_20
REMARK                            x       y       z     vdW  Elec       q    Type
REMARK                         _______ _______ _______ _____ _____    ______ ____
ROOT
ATOM      1  C   UNL     1      49.064   8.396  12.340  0.00  0.00    +0.000 C 
ATOM      2  C   UNL     1      49.973   9.230  11.448  0.00  0.00    +0.000 C 
ATOM      3  C   UNL     1      50.308   7.800  11.704  0.00  0.00    +0.000 C 
ENDROOT
BRANCH   1   8
ATOM      4  C   UNL     1      44.906   5.249  12.712  0.00  0.00    +0.000 A 
ATOM      5  C   UNL     1      46.255   4.930  12.838  0.00  0.00    +0.000 A 
ATOM      6  C   UNL     1      47.216   5.911  12.578  0.00  0.00    +0.000 A 
ATOM      7  C   UNL     1      46.818   7.184  12.188  0.00  0.00    +0.000 A 
ATOM      8  N   UNL     1      47.707   8.192  11.813  0.00  0.00    +0.000 N 
ATOM      9  N   UNL     1      45.511   7.501  12.061  0.00  0.00    +0.000 NA
ATOM     10  C   UNL     1      44.587   6.538  12.316  0.00  0.00    +0.000 A 
ATOM     11  H   UNL     1      47.145   9.025  11.649  0.00  0.00    +0.000 HD
BRANCH   4  13
ATOM     12  N   UNL     1      44.096   2.956  12.703  0.00  0.00    +0.000 N 
ATOM     13  C   UNL     1      43.818   4.275  12.934  0.00  0.00    +0.000 C 
ATOM     14  O   UNL     1      42.715   4.625  13.332  0.00  0.00    +0.000 OA
ATOM     15  H   UNL     1      43.366   2.293  12.935  0.00  0.00    +0.000 HD
ATOM     16  H   UNL     1      45.036   2.599  12.603  0.00  0.00    +0.000 HD
ENDBRANCH   4  13
ENDBRANCH   1   8
BRANCH   1  17
ATOM     17  C   UNL     1      49.131   8.644  13.847  0.00  0.00    +0.000 A 
ATOM     18  C   UNL     1      48.978   9.927  14.391  0.00  0.00    +0.000 A 
ATOM     19  C   UNL     1      48.907  10.121  15.768  0.00  0.00    +0.000 A 
ATOM     20  C   UNL     1      48.982   9.028  16.633  0.00  0.00    +0.000 A 
ATOM     21  C   UNL     1      49.148   7.721  16.146  0.00  0.00    +0.000 A 
ATOM     22  C   UNL     1      49.257   7.569  14.752  0.00  0.00    +0.000 A 
BRANCH  21  23
ATOM     23  C   UNL     1      49.144   6.545  17.047  0.00  0.00    +0.000 A 
ATOM     24  C   UNL     1      49.607   6.622  18.373  0.00  0.00    +0.000 A 
ATOM     25  C   UNL     1      49.636   5.499  19.205  0.00  0.00    +0.000 A 
ATOM     26  C   UNL     1      49.175   4.271  18.738  0.00  0.00    +0.000 A 
ATOM     27  C   UNL     1      48.689   4.154  17.432  0.00  0.00    +0.000 A 
ATOM     28  C   UNL     1      48.702   5.286  16.597  0.00  0.00    +0.000 A 
BRANCH  27  29
ATOM     29  C   UNL     1      48.139   2.852  16.909  0.00  0.00    +0.000 C 
ATOM     30  F   UNL     1      47.151   2.323  17.685  0.00  0.00    +0.000 F 
ATOM     31  F   UNL     1      47.603   2.982  15.663  0.00  0.00    +0.000 F 
ATOM     32  F   UNL     1      49.091   1.883  16.805  0.00  0.00    +0.000 F 
ENDBRANCH  27  29
ENDBRANCH  21  23
ENDBRANCH   1  17
TORSDOF 5
ENDMDL
MODEL 7
REMARK VINA RESULT:    -6.569      5.635      8.268
REMARK INTER + INTRA:          -9.917
REMARK INTER:                  -8.492
REMARK INTRA:                  -1.424
REMARK UNBOUND:                -1.428
REMARK  Name = 
REMARK  5 active torsions:
REMARK  status: ('A' for Active; 'I' for Inactive)
REMARK    1  A    between atoms: C_2  and  C_4
REMARK    2  A    between atoms: N_8  and  C_9
REMARK    3  A    between atoms: C_9  and  C_10
REMARK    4  A    between atoms: C_14  and  C_15
REMARK    5  A    between atoms: C_19  and  C_20
REMARK                            x       y       z     vdW  Elec       q    Type
REMARK                         _______ _______ _______ _____ _____    ______ ____
ROOT
ATOM      1  C   UNL     1      49.230   8.644  16.670  0.00  0.00    +0.000 C 
ATOM      2  C   UNL     1      49.153  10.092  17.134  0.00  0.00    +0.000 C 
ATOM      3  C   UNL     1      47.958   9.213  17.274  0.00  0.00    +0.000 C 
ENDROOT
BRANCH   1   8
ATOM      4  C   UNL     1      50.730   3.686  17.366  0.00  0.00    +0.000 A 
ATOM      5  C   UNL     1      49.460   4.181  17.085  0.00  0.00    +0.000 A 
ATOM      6  C   UNL     1      49.257   5.563  17.058  0.00  0.00    +0.000 A 
ATOM      7  C   UNL     1      50.315   6.424  17.323  0.00  0.00    +0.000 A 
ATOM      8  N   UNL     1      50.181   7.809  17.417  0.00  0.00    +0.000 N 
ATOM      9  N   UNL     1      51.550   5.951  17.601  0.00  0.00    +0.000 NA
ATOM     10  C   UNL     1      51.733   4.605  17.623  0.00  0.00    +0.000 A 
ATOM     11  H   UNL     1      51.120   8.182  17.547  0.00  0.00    +0.000 HD
BRANCH   4  13
ATOM     12  N   UNL     1      52.046   1.861  18.289  0.00  0.00    +0.000 N 
ATOM     13  C   UNL     1      51.038   2.243  17.447  0.00  0.00    +0.000 C 
ATOM     14  O   UNL     1      50.406   1.415  16.806  0.00  0.00    +0.000 OA
ATOM     15  H   UNL     1      52.193   0.864  18.394  0.00  0.00    +0.000 HD
ATOM     16  H   UNL     1      52.432   2.467  19.000  0.00  0.00    +0.000 HD
ENDBRANCH   4  13
ENDBRANCH   1   8
BRANCH   1  17
ATOM     17  C   UNL     1      49.201   8.383  15.163  0.00  0.00    +0.000 A 
ATOM     18  C   UNL     1      50.354   8.496  14.373  0.00  0.00    +0.000 A 
ATOM     19  C   UNL     1      50.345   8.126  13.030  0.00  0.00    +0.000 A 
ATOM     20  C   UNL     1      49.177   7.628  12.450  0.00  0.00    +0.000 A 
ATOM     21  C   UNL     1      47.989   7.506  13.190  0.00  0.00    +0.000 A 
ATOM     22  C   UNL     1      48.025   7.928  14.531  0.00  0.00    +0.000 A 
BRANCH  21  23
ATOM     23  C   UNL     1      46.767   6.901  12.609  0.00  0.00    +0.000 A 
ATOM     24  C   UNL     1      45.774   7.679  11.988  0.00  0.00    +0.000 A 
ATOM     25  C   UNL     1      44.606   7.105  11.478  0.00  0.00    +0.000 A 
ATOM     26  C   UNL     1      44.413   5.728  11.552  0.00  0.00    +0.000 A 
ATOM     27  C   UNL     1      45.384   4.915  12.146  0.00  0.00    +0.000 A 
ATOM     28  C   UNL     1      46.537   5.514  12.687  0.00  0.00    +0.000 A 
BRANCH  27  29
ATOM     29  C   UNL     1      45.230   3.417  12.201  0.00  0.00    +0.000 C 
ATOM     30  F   UNL     1      46.207   2.791  12.916  0.00  0.00    +0.000 F 
ATOM     31  F   UNL     1      44.052   3.040  12.774  0.00  0.00    +0.000 F 
ATOM     32  F   UNL     1      45.244   2.841  10.967  0.00  0.00    +0.000 F 
ENDBRANCH  27  29
ENDBRANCH  21  23
ENDBRANCH   1  17
TORSDOF 5
ENDMDL
MODEL 8
REMARK VINA RESULT:    -6.501      6.011      8.544
REMARK INTER + INTRA:          -9.829
REMARK INTER:                  -9.384
REMARK INTRA:                  -0.445
REMARK UNBOUND:                -1.428
REMARK  Name = 
REMARK  5 active torsions:
REMARK  status: ('A' for Active; 'I' for Inactive)
REMARK    1  A    between atoms: C_2  and  C_4
REMARK    2  A    between atoms: N_8  and  C_9
REMARK    3  A    between atoms: C_9  and  C_10
REMARK    4  A    between atoms: C_14  and  C_15
REMARK    5  A    between atoms: C_19  and  C_20
REMARK                            x       y       z     vdW  Elec       q    Type
REMARK                         _______ _______ _______ _____ _____    ______ ____
ROOT
ATOM      1  C   UNL     1      48.186   4.210  16.623  0.00  0.00    +0.000 C 
ATOM      2  C   UNL     1      47.018   3.739  17.479  0.00  0.00    +0.000 C 
ATOM      3  C   UNL     1      47.585   2.826  16.447  0.00  0.00    +0.000 C 
ENDROOT
BRANCH   1   8
ATOM      4  C   UNL     1      52.803   2.080  17.835  0.00  0.00    +0.000 A 
ATOM      5  C   UNL     1      51.578   1.450  17.634  0.00  0.00    +0.000 A 
ATOM      6  C   UNL     1      50.435   2.228  17.436  0.00  0.00    +0.000 A 
ATOM      7  C   UNL     1      50.529   3.615  17.454  0.00  0.00    +0.000 A 
ATOM      8  N   UNL     1      49.428   4.466  17.367  0.00  0.00    +0.000 N 
ATOM      9  N   UNL     1      51.713   4.234  17.652  0.00  0.00    +0.000 NA
ATOM     10  C   UNL     1      52.817   3.465  17.843  0.00  0.00    +0.000 A 
ATOM     11  H   UNL     1      49.798   5.414  17.334  0.00  0.00    +0.000 HD
BRANCH   4  13
ATOM     12  N   UNL     1      54.516   1.294  19.372  0.00  0.00    +0.000 N 
ATOM     13  C   UNL     1      54.062   1.347  18.083  0.00  0.00    +0.000 C 
ATOM     14  O   UNL     1      54.667   0.787  17.179  0.00  0.00    +0.000 OA
ATOM     15  H   UNL     1      55.336   0.722  19.538  0.00  0.00    +0.000 HD
ATOM     16  H   UNL     1      53.945   1.533  20.170  0.00  0.00    +0.000 HD
ENDBRANCH   4  13
ENDBRANCH   1   8
BRANCH   1  17
ATOM     17  C   UNL     1      47.888   5.220  15.514  0.00  0.00    +0.000 A 
ATOM     18  C   UNL     1      48.730   6.313  15.267  0.00  0.00    +0.000 A 
ATOM     19  C   UNL     1      48.522   7.148  14.171  0.00  0.00    +0.000 A 
ATOM     20  C   UNL     1      47.465   6.900  13.294  0.00  0.00    +0.000 A 
ATOM     21  C   UNL     1      46.582   5.828  13.500  0.00  0.00    +0.000 A 
ATOM     22  C   UNL     1      46.798   5.031  14.638  0.00  0.00    +0.000 A 
BRANCH  21  23
ATOM     23  C   UNL     1      45.508   5.503  12.530  0.00  0.00    +0.000 A 
ATOM     24  C   UNL     1      44.148   5.667  12.846  0.00  0.00    +0.000 A 
ATOM     25  C   UNL     1      43.140   5.322  11.940  0.00  0.00    +0.000 A 
ATOM     26  C   UNL     1      43.470   4.829  10.681  0.00  0.00    +0.000 A 
ATOM     27  C   UNL     1      44.812   4.668  10.320  0.00  0.00    +0.000 A 
ATOM     28  C   UNL     1      45.812   4.985  11.257  0.00  0.00    +0.000 A 
BRANCH  27  29
ATOM     29  C   UNL     1      45.206   4.181   8.949  0.00  0.00    +0.000 C 
ATOM     30  F   UNL     1      44.200   4.249   8.032  0.00  0.00    +0.000 F 
ATOM     31  F   UNL     1      46.236   4.901   8.423  0.00  0.00    +0.000 F 
ATOM     32  F   UNL     1      45.622   2.884   8.951  0.00  0.00    +0.000 F 
ENDBRANCH  27  29
ENDBRANCH  21  23
ENDBRANCH   1  17
TORSDOF 5
ENDMDL
