MODEL 1
REMARK VINA RESULT:    -8.179      0.000      0.000
REMARK INTER + INTRA:         -10.499
REMARK INTER:                 -10.570
REMARK INTRA:                   0.071
REMARK UNBOUND:                 0.071
REMARK  Name = 
REMARK  6 active torsions:
REMARK  status: ('A' for Active; 'I' for Inactive)
REMARK    1  A    between atoms: C_1  and  C_2
REMARK    2  A    between atoms: C_3  and  C_4
REMARK    3  A    between atoms: C_7  and  C_8
REMARK    4  A    between atoms: C_8  and  N_9
REMARK    5  A    between atoms: N_9  and  C_10
REMARK    6  A    between atoms: C_13  and  C_14
REMARK                            x       y       z     vdW  Elec       q    Type
REMARK                         _______ _______ _______ _____ _____    ______ ____
ROOT
ATOM      1  N   UNL     1      43.759   4.814   9.799  0.00  0.00    +0.000 N 
ATOM      2  H   UNL     1      42.831   4.524   9.484  0.00  0.00    +0.000 HD
ENDROOT
BRANCH   1   3
ATOM      3  C   UNL     1      44.718   3.979   9.193  0.00  0.00    +0.000 A 
ATOM      4  C   UNL     1      45.666   4.381   8.255  0.00  0.00    +0.000 A 
ATOM      5  C   UNL     1      46.479   3.425   7.641  0.00  0.00    +0.000 A 
ATOM      6  C   UNL     1      46.304   2.085   7.982  0.00  0.00    +0.000 A 
ATOM      7  N   UNL     1      45.410   1.648   8.904  0.00  0.00    +0.000 NA
ATOM      8  C   UNL     1      44.647   2.605   9.469  0.00  0.00    +0.000 A 
BRANCH   6   9
ATOM      9  C   UNL     1      47.110   1.022   7.308  0.00  0.00    +0.000 C 
ATOM     10  N   UNL     1      46.799  -0.262   7.654  0.00  0.00    +0.000 N 
ATOM     11  O   UNL     1      47.993   1.279   6.486  0.00  0.00    +0.000 OA
ATOM     12  H   UNL     1      46.046  -0.428   8.312  0.00  0.00    +0.000 HD
ATOM     13  H   UNL     1      47.274  -1.037   7.212  0.00  0.00    +0.000 HD
ENDBRANCH   6   9
ENDBRANCH   1   3
BRANCH   1  14
ATOM     14  C   UNL     1      43.736   5.160  11.238  0.00  0.00    +0.000 C 
ATOM     15  C   UNL     1      42.499   5.527  12.032  0.00  0.00    +0.000 C 
ATOM     16  C   UNL     1      42.993   4.124  12.097  0.00  0.00    +0.000 C 
BRANCH  14  20
ATOM     17  C   UNL     1      47.407   6.499  12.899  0.00  0.00    +0.000 A 
ATOM     18  C   UNL     1      46.738   7.241  11.954  0.00  0.00    +0.000 A 
ATOM     19  N   UNL     1      45.585   6.844  11.375  0.00  0.00    +0.000 NA
ATOM     20  C   UNL     1      45.093   5.647  11.770  0.00  0.00    +0.000 A 
ATOM     21  N   UNL     1      45.718   4.833  12.645  0.00  0.00    +0.000 NA
ATOM     22  C   UNL     1      46.848   5.286  13.207  0.00  0.00    +0.000 A 
BRANCH  17  25
ATOM     23  C   UNL     1      50.938   7.866  14.806  0.00  0.00    +0.000 C 
ATOM     24  C   UNL     1      49.680   7.359  14.119  0.00  0.00    +0.000 C 
ATOM     25  C   UNL     1      48.601   6.926  13.529  0.00  0.00    +0.000 C 
ENDBRANCH  17  25
ENDBRANCH  14  20
ENDBRANCH   1  14
TORSDOF 5
ENDMDL
MODEL 2
REMARK VINA RESULT:    -7.056      2.859      6.668
REMARK INTER + INTRA:          -9.048
REMARK INTER:                  -9.051
REMARK INTRA:                   0.003
REMARK UNBOUND:                 0.071
REMARK  Name = 
REMARK  6 active torsions:
REMARK  status: ('A' for Active; 'I' for Inactive)
REMARK    1  A    between atoms: C_1  and  C_2
REMARK    2  A    between atoms: C_3  and  C_4
REMARK    3  A    between atoms: C_7  and  C_8
REMARK    4  A    between atoms: C_8  and  N_9
REMARK    5  A    between atoms: N_9  and  C_10
REMARK    6  A    between atoms: C_13  and  C_14
REMARK                            x       y       z     vdW  Elec       q    Type
REMARK                         _______ _______ _______ _____ _____    ______ ____
ROOT
ATOM      1  N   UNL     1      44.372   6.879  12.290  0.00  0.00    +0.000 N 
ATOM      2  H   UNL     1      44.287   7.532  11.508  0.00  0.00    +0.000 HD
ENDROOT
BRANCH   1   3
ATOM      3  C   UNL     1      45.627   7.071  12.900  0.00  0.00    +0.000 A 
ATOM      4  C   UNL     1      46.323   8.275  12.958  0.00  0.00    +0.000 A 
ATOM      5  C   UNL     1      47.617   8.300  13.485  0.00  0.00    +0.000 A 
ATOM      6  C   UNL     1      48.178   7.105  13.929  0.00  0.00    +0.000 A 
ATOM      7  N   UNL     1      47.531   5.912  13.911  0.00  0.00    +0.000 NA
ATOM      8  C   UNL     1      46.287   5.936  13.393  0.00  0.00    +0.000 A 
BRANCH   6   9
ATOM      9  C   UNL     1      49.580   7.073  14.446  0.00  0.00    +0.000 C 
ATOM     10  N   UNL     1      50.513   7.680  13.656  0.00  0.00    +0.000 N 
ATOM     11  O   UNL     1      49.879   6.543  15.519  0.00  0.00    +0.000 OA
ATOM     12  H   UNL     1      50.218   8.129  12.797  0.00  0.00    +0.000 HD
ATOM     13  H   UNL     1      51.477   7.733  13.958  0.00  0.00    +0.000 HD
ENDBRANCH   6   9
ENDBRANCH   1   3
BRANCH   1  14
ATOM     14  C   UNL     1      43.807   5.558  11.929  0.00  0.00    +0.000 C 
ATOM     15  C   UNL     1      42.996   4.670  12.850  0.00  0.00    +0.000 C 
ATOM     16  C   UNL     1      42.270   5.548  11.892  0.00  0.00    +0.000 C 
BRANCH  14  20
ATOM     17  C   UNL     1      45.709   3.849   8.540  0.00  0.00    +0.000 A 
ATOM     18  C   UNL     1      44.899   3.097   9.359  0.00  0.00    +0.000 A 
ATOM     19  N   UNL     1      44.298   3.587  10.465  0.00  0.00    +0.000 NA
ATOM     20  C   UNL     1      44.527   4.889  10.748  0.00  0.00    +0.000 A 
ATOM     21  N   UNL     1      45.355   5.677  10.031  0.00  0.00    +0.000 NA
ATOM     22  C   UNL     1      45.909   5.147   8.931  0.00  0.00    +0.000 A 
BRANCH  17  25
ATOM     23  C   UNL     1      47.525   2.433   4.981  0.00  0.00    +0.000 C 
ATOM     24  C   UNL     1      46.875   2.924   6.264  0.00  0.00    +0.000 C 
ATOM     25  C   UNL     1      46.318   3.345   7.365  0.00  0.00    +0.000 C 
ENDBRANCH  17  25
ENDBRANCH  14  20
ENDBRANCH   1  14
TORSDOF 5
ENDMDL
MODEL 3
REMARK VINA RESULT:    -6.338      3.366      5.353
REMARK INTER + INTRA:          -8.120
REMARK INTER:                  -7.932
REMARK INTRA:                  -0.189
REMARK UNBOUND:                 0.071
REMARK  Name = 
REMARK  6 active torsions:
REMARK  status: ('A' for Active; 'I' for Inactive)
REMARK    1  A    between atoms: C_1  and  C_2
REMARK    2  A    between atoms: C_3  and  C_4
REMARK    3  A    between atoms: C_7  and  C_8
REMARK    4  A    between atoms: C_8  and  N_9
REMARK    5  A    between atoms: N_9  and  C_10
REMARK    6  A    between atoms: C_13  and  C_14
REMARK                            x       y       z     vdW  Elec       q    Type
REMARK                         _______ _______ _______ _____ _____    ______ ____
ROOT
ATOM      1  N   UNL     1      46.864   6.877  13.524  0.00  0.00    +0.000 N 
ATOM      2  H   UNL     1      46.500   6.833  14.478  0.00  0.00    +0.000 HD
ENDROOT
BRANCH   1   3
ATOM      3  C   UNL     1      46.238   5.875  12.758  0.00  0.00    +0.000 A 
ATOM      4  C   UNL     1      45.861   5.993  11.422  0.00  0.00    +0.000 A 
ATOM      5  C   UNL     1      45.135   4.964  10.816  0.00  0.00    +0.000 A 
ATOM      6  C   UNL     1      44.798   3.848  11.580  0.00  0.00    +0.000 A 
ATOM      7  N   UNL     1      45.160   3.680  12.877  0.00  0.00    +0.000 NA
ATOM      8  C   UNL     1      45.857   4.698  13.419  0.00  0.00    +0.000 A 
BRANCH   6   9
ATOM      9  C   UNL     1      43.972   2.750  10.991  0.00  0.00    +0.000 C 
ATOM     10  N   UNL     1      44.461   2.195   9.843  0.00  0.00    +0.000 N 
ATOM     11  O   UNL     1      42.922   2.360  11.507  0.00  0.00    +0.000 OA
ATOM     12  H   UNL     1      45.343   2.526   9.471  0.00  0.00    +0.000 HD
ATOM     13  H   UNL     1      43.978   1.421   9.408  0.00  0.00    +0.000 HD
ENDBRANCH   6   9
ENDBRANCH   1   3
BRANCH   1  14
ATOM     14  C   UNL     1      48.322   7.138  13.534  0.00  0.00    +0.000 C 
ATOM     15  C   UNL     1      49.183   7.352  12.307  0.00  0.00    +0.000 C 
ATOM     16  C   UNL     1      48.688   8.548  13.044  0.00  0.00    +0.000 C 
BRANCH  14  20
ATOM     17  C   UNL     1      50.094   5.892  17.185  0.00  0.00    +0.000 A 
ATOM     18  C   UNL     1      50.791   6.655  16.278  0.00  0.00    +0.000 A 
ATOM     19  N   UNL     1      50.282   7.049  15.091  0.00  0.00    +0.000 NA
ATOM     20  C   UNL     1      49.018   6.654  14.816  0.00  0.00    +0.000 A 
ATOM     21  N   UNL     1      48.291   5.856  15.625  0.00  0.00    +0.000 NA
ATOM     22  C   UNL     1      48.835   5.512  16.801  0.00  0.00    +0.000 A 
BRANCH  17  25
ATOM     23  C   UNL     1      51.685   4.815  20.965  0.00  0.00    +0.000 C 
ATOM     24  C   UNL     1      51.109   5.184  19.607  0.00  0.00    +0.000 C 
ATOM     25  C   UNL     1      50.615   5.501  18.443  0.00  0.00    +0.000 C 
ENDBRANCH  17  25
ENDBRANCH  14  20
ENDBRANCH   1  14
TORSDOF 5
ENDMDL
MODEL 4
REMARK VINA RESULT:    -6.187      5.057      7.001
REMARK INTER + INTRA:          -7.925
REMARK INTER:                  -7.691
REMARK INTRA:                  -0.234
REMARK UNBOUND:                 0.071
REMARK  Name = 
REMARK  6 active torsions:
REMARK  status: ('A' for Active; 'I' for Inactive)
REMARK    1  A    between atoms: C_1  and  C_2
REMARK    2  A    between atoms: C_3  and  C_4
REMARK    3  A    between atoms: C_7  and  C_8
REMARK    4  A    between atoms: C_8  and  N_9
REMARK    5  A    between atoms: N_9  and  C_10
REMARK    6  A    between atoms: C_13  and  C_14
REMARK                            x       y       z     vdW  Elec       q    Type
REMARK                         _______ _______ _______ _____ _____    ______ ____
ROOT
ATOM      1  N   UNL     1      47.580   3.120  15.020  0.00  0.00    +0.000 N 
ATOM      2  H   UNL     1      48.363   2.628  14.585  0.00  0.00    +0.000 HD
ENDROOT
BRANCH   1   3
ATOM      3  C   UNL     1      47.030   4.008  14.075  0.00  0.00    +0.000 A 
ATOM      4  C   UNL     1      47.304   5.371  13.989  0.00  0.00    +0.000 A 
ATOM      5  C   UNL     1      46.595   6.162  13.082  0.00  0.00    +0.000 A 
ATOM      6  C   UNL     1      45.619   5.557  12.292  0.00  0.00    +0.000 A 
ATOM      7  N   UNL     1      45.332   4.231  12.326  0.00  0.00    +0.000 NA
ATOM      8  C   UNL     1      46.040   3.509  13.217  0.00  0.00    +0.000 A 
BRANCH   6   9
ATOM      9  C   UNL     1      44.795   6.374  11.350  0.00  0.00    +0.000 C 
ATOM     10  N   UNL     1      43.913   5.672  10.578  0.00  0.00    +0.000 N 
ATOM     11  O   UNL     1      44.892   7.601  11.276  0.00  0.00    +0.000 OA
ATOM     12  H   UNL     1      43.845   4.668  10.694  0.00  0.00    +0.000 HD
ATOM     13  H   UNL     1      43.294   6.159   9.944  0.00  0.00    +0.000 HD
ENDBRANCH   6   9
ENDBRANCH   1   3
BRANCH   1  14
ATOM     14  C   UNL     1      47.903   3.478  16.420  0.00  0.00    +0.000 C 
ATOM     15  C   UNL     1      47.157   4.496  17.258  0.00  0.00    +0.000 C 
ATOM     16  C   UNL     1      46.812   3.057  17.418  0.00  0.00    +0.000 C 
BRANCH  14  20
ATOM     17  C   UNL     1      51.839   2.459  17.640  0.00  0.00    +0.000 A 
ATOM     18  C   UNL     1      51.380   3.753  17.718  0.00  0.00    +0.000 A 
ATOM     19  N   UNL     1      50.148   4.132  17.314  0.00  0.00    +0.000 NA
ATOM     20  C   UNL     1      49.353   3.160  16.812  0.00  0.00    +0.000 A 
ATOM     21  N   UNL     1      49.749   1.881  16.646  0.00  0.00    +0.000 NA
ATOM     22  C   UNL     1      50.973   1.554  17.084  0.00  0.00    +0.000 A 
BRANCH  17  25
ATOM     23  C   UNL     1      55.630   1.167  19.031  0.00  0.00    +0.000 C 
ATOM     24  C   UNL     1      54.279   1.644  18.524  0.00  0.00    +0.000 C 
ATOM     25  C   UNL     1      53.120   2.054  18.089  0.00  0.00    +0.000 C 
ENDBRANCH  17  25
ENDBRANCH  14  20
ENDBRANCH   1  14
TORSDOF 5
ENDMDL
MODEL 5
REMARK VINA RESULT:    -6.097      4.517      6.731
REMARK INTER + INTRA:          -7.809
REMARK INTER:                  -7.679
REMARK INTRA:                  -0.130
REMARK UNBOUND:                 0.071
REMARK  Name = 
REMARK  6 active torsions:
REMARK  status: ('A' for Active; 'I' for Inactive)
REMARK    1  A    between atoms: C_1  and  C_2
REMARK    2  A    between atoms: C_3  and  C_4
REMARK    3  A    between atoms: C_7  and  C_8
REMARK    4  A    between atoms: C_8  and  N_9
REMARK    5  A    between atoms: N_9  and  C_10
REMARK    6  A    between atoms: C_13  and  C_14
REMARK                            x       y       z     vdW  Elec       q    Type
REMARK                         _______ _______ _______ _____ _____    ______ ____
ROOT
ATOM      1  N   UNL     1      46.442   4.687  15.261  0.00  0.00    +0.000 N 
ATOM      2  H   UNL     1      46.229   5.601  15.666  0.00  0.00    +0.000 HD
ENDROOT
BRANCH   1   3
ATOM      3  C   UNL     1      47.530   4.130  15.961  0.00  0.00    +0.000 A 
ATOM      4  C   UNL     1      48.356   4.813  16.850  0.00  0.00    +0.000 A 
ATOM      5  C   UNL     1      49.478   4.172  17.382  0.00  0.00    +0.000 A 
ATOM      6  C   UNL     1      49.741   2.860  16.994  0.00  0.00    +0.000 A 
ATOM      7  N   UNL     1      48.954   2.147  16.148  0.00  0.00    +0.000 NA
ATOM      8  C   UNL     1      47.885   2.808  15.659  0.00  0.00    +0.000 A 
BRANCH   6   9
ATOM      9  C   UNL     1      50.960   2.154  17.492  0.00  0.00    +0.000 C 
ATOM     10  N   UNL     1      51.718   2.849  18.390  0.00  0.00    +0.000 N 
ATOM     11  O   UNL     1      51.263   1.015  17.127  0.00  0.00    +0.000 OA
ATOM     12  H   UNL     1      51.415   3.769  18.685  0.00  0.00    +0.000 HD
ATOM     13  H   UNL     1      52.537   2.422  18.802  0.00  0.00    +0.000 HD
ENDBRANCH   6   9
ENDBRANCH   1   3
BRANCH   1  14
ATOM     14  C   UNL     1      46.327   4.731  13.785  0.00  0.00    +0.000 C 
ATOM     15  C   UNL     1      46.062   3.538  12.891  0.00  0.00    +0.000 C 
ATOM     16  C   UNL     1      44.913   4.402  13.279  0.00  0.00    +0.000 C 
BRANCH  14  20
ATOM     17  C   UNL     1      48.344   8.123  12.221  0.00  0.00    +0.000 A 
ATOM     18  C   UNL     1      46.974   8.102  12.345  0.00  0.00    +0.000 A 
ATOM     19  N   UNL     1      46.286   7.036  12.808  0.00  0.00    +0.000 NA
ATOM     20  C   UNL     1      47.015   5.952  13.157  0.00  0.00    +0.000 A 
ATOM     21  N   UNL     1      48.354   5.872  13.010  0.00  0.00    +0.000 NA
ATOM     22  C   UNL     1      48.991   6.966  12.567  0.00  0.00    +0.000 A 
BRANCH  17  25
ATOM     23  C   UNL     1      50.552  11.441  10.774  0.00  0.00    +0.000 C 
ATOM     24  C   UNL     1      49.754  10.261  11.307  0.00  0.00    +0.000 C 
ATOM     25  C   UNL     1      49.071   9.249  11.764  0.00  0.00    +0.000 C 
ENDBRANCH  17  25
ENDBRANCH  14  20
ENDBRANCH   1  14
TORSDOF 5
ENDMDL
MODEL 6
REMARK VINA RESULT:    -5.870      3.132      6.940
REMARK INTER + INTRA:          -7.516
REMARK INTER:                  -7.752
REMARK INTRA:                   0.236
REMARK UNBOUND:                 0.071
REMARK  Name = 
REMARK  6 active torsions:
REMARK  status: ('A' for Active; 'I' for Inactive)
REMARK    1  A    between atoms: C_1  and  C_2
REMARK    2  A    between atoms: C_3  and  C_4
REMARK    3  A    between atoms: C_7  and  C_8
REMARK    4  A    between atoms: C_8  and  N_9
REMARK    5  A    between atoms: N_9  and  C_10
REMARK    6  A    between atoms: C_13  and  C_14
REMARK                            x       y       z     vdW  Elec       q    Type
REMARK                         _______ _______ _______ _____ _____    ______ ____
ROOT
ATOM      1  N   UNL     1      44.916   5.752  12.845  0.00  0.00    +0.000 N 
ATOM      2  H   UNL     1      44.423   5.997  13.706  0.00  0.00    +0.000 HD
ENDROOT
BRANCH   1   3
ATOM      3  C   UNL     1      45.873   6.750  12.577  0.00  0.00    +0.000 A 
ATOM      4  C   UNL     1      47.245   6.544  12.455  0.00  0.00    +0.000 A 
ATOM      5  C   UNL     1      48.098   7.641  12.311  0.00  0.00    +0.000 A 
ATOM      6  C   UNL     1      47.543   8.919  12.306  0.00  0.00    +0.000 A 
ATOM      7  N   UNL     1      46.212   9.168  12.402  0.00  0.00    +0.000 NA
ATOM      8  C   UNL     1      45.429   8.080  12.540  0.00  0.00    +0.000 A 
BRANCH   6   9
ATOM      9  C   UNL     1      48.421  10.125  12.214  0.00  0.00    +0.000 C 
ATOM     10  N   UNL     1      49.585   9.955  11.521  0.00  0.00    +0.000 N 
ATOM     11  O   UNL     1      48.117  11.208  12.720  0.00  0.00    +0.000 OA
ATOM     12  H   UNL     1      49.781   9.056  11.096  0.00  0.00    +0.000 HD
ATOM     13  H   UNL     1      50.213  10.735  11.382  0.00  0.00    +0.000 HD
ENDBRANCH   6   9
ENDBRANCH   1   3
BRANCH   1  14
ATOM     14  C   UNL     1      43.973   5.203  11.843  0.00  0.00    +0.000 C 
ATOM     15  C   UNL     1      42.550   4.768  12.125  0.00  0.00    +0.000 C 
ATOM     16  C   UNL     1      42.778   6.129  11.567  0.00  0.00    +0.000 C 
BRANCH  14  20
ATOM     17  C   UNL     1      45.793   3.659   8.333  0.00  0.00    +0.000 A 
ATOM     18  C   UNL     1      45.120   2.838   9.207  0.00  0.00    +0.000 A 
ATOM     19  N   UNL     1      44.551   3.277  10.351  0.00  0.00    +0.000 NA
ATOM     20  C   UNL     1      44.672   4.597  10.616  0.00  0.00    +0.000 A 
ATOM     21  N   UNL     1      45.366   5.456   9.842  0.00  0.00    +0.000 NA
ATOM     22  C   UNL     1      45.892   4.973   8.706  0.00  0.00    +0.000 A 
BRANCH  17  25
ATOM     23  C   UNL     1      47.589   2.282   4.747  0.00  0.00    +0.000 C 
ATOM     24  C   UNL     1      46.930   2.780   6.023  0.00  0.00    +0.000 C 
ATOM     25  C   UNL     1      46.365   3.207   7.118  0.00  0.00    +0.000 C 
ENDBRANCH  17  25
ENDBRANCH  14  20
ENDBRANCH   1  14
TORSDOF 5
ENDMDL
MODEL 7
REMARK VINA RESULT:    -5.570      2.850      6.489
REMARK INTER + INTRA:          -7.127
REMARK INTER:                  -7.017
REMARK INTRA:                  -0.109
REMARK UNBOUND:                 0.071
REMARK  Name = 
REMARK  6 active torsions:
REMARK  status: ('A' for Active; 'I' for Inactive)
REMARK    1  A    between atoms: C_1  and  C_2
REMARK    2  A    between atoms: C_3  and  C_4
REMARK    3  A    between atoms: C_7  and  C_8
REMARK    4  A    between atoms: C_8  and  N_9
REMARK    5  A    between atoms: N_9  and  C_10
REMARK    6  A    between atoms: C_13  and  C_14
REMARK                            x       y       z     vdW  Elec       q    Type
REMARK                         _______ _______ _______ _____ _____    ______ ____
ROOT
ATOM      1  N   UNL     1      44.433   6.248  12.971  0.00  0.00    +0.000 N 
ATOM      2  H   UNL     1      44.012   6.949  13.584  0.00  0.00    +0.000 HD
ENDROOT
BRANCH   1   3
ATOM      3  C   UNL     1      45.788   6.581  12.776  0.00  0.00    +0.000 A 
ATOM      4  C   UNL     1      46.876   5.781  13.116  0.00  0.00    +0.000 A 
ATOM      5  C   UNL     1      48.172   6.285  12.982  0.00  0.00    +0.000 A 
ATOM      6  C   UNL     1      48.335   7.589  12.519  0.00  0.00    +0.000 A 
ATOM      7  N   UNL     1      47.308   8.398  12.156  0.00  0.00    +0.000 NA
ATOM      8  C   UNL     1      46.076   7.870  12.304  0.00  0.00    +0.000 A 
BRANCH   6   9
ATOM      9  C   UNL     1      49.700   8.190  12.415  0.00  0.00    +0.000 C 
ATOM     10  N   UNL     1      50.668   7.586  13.164  0.00  0.00    +0.000 N 
ATOM     11  O   UNL     1      49.943   9.162  11.695  0.00  0.00    +0.000 OA
ATOM     12  H   UNL     1      50.429   6.772  13.718  0.00  0.00    +0.000 HD
ATOM     13  H   UNL     1      51.624   7.912  13.117  0.00  0.00    +0.000 HD
ENDBRANCH   6   9
ENDBRANCH   1   3
BRANCH   1  14
ATOM     14  C   UNL     1      43.496   5.873  11.887  0.00  0.00    +0.000 C 
ATOM     15  C   UNL     1      41.991   6.036  11.934  0.00  0.00    +0.000 C 
ATOM     16  C   UNL     1      42.797   7.083  11.248  0.00  0.00    +0.000 C 
BRANCH  14  20
ATOM     17  C   UNL     1      45.153   2.866   9.391  0.00  0.00    +0.000 A 
ATOM     18  C   UNL     1      45.487   4.190   9.230  0.00  0.00    +0.000 A 
ATOM     19  N   UNL     1      44.963   5.186   9.978  0.00  0.00    +0.000 NA
ATOM     20  C   UNL     1      44.068   4.822  10.924  0.00  0.00    +0.000 A 
ATOM     21  N   UNL     1      43.644   3.554  11.105  0.00  0.00    +0.000 NA
ATOM     22  C   UNL     1      44.212   2.602  10.351  0.00  0.00    +0.000 A 
BRANCH  17  25
ATOM     23  C   UNL     1      46.905  -0.304   7.187  0.00  0.00    +0.000 C 
ATOM     24  C   UNL     1      46.268   0.838   7.962  0.00  0.00    +0.000 C 
ATOM     25  C   UNL     1      45.722   1.817   8.627  0.00  0.00    +0.000 C 
ENDBRANCH  17  25
ENDBRANCH  14  20
ENDBRANCH   1  14
TORSDOF 5
ENDMDL
MODEL 8
REMARK VINA RESULT:    -5.427      5.034      6.936
REMARK INTER + INTRA:          -6.942
REMARK INTER:                  -7.466
REMARK INTRA:                   0.523
REMARK UNBOUND:                 0.071
REMARK  Name = 
REMARK  6 active torsions:
REMARK  status: ('A' for Active; 'I' for Inactive)
REMARK    1  A    between atoms: C_1  and  C_2
REMARK    2  A    between atoms: C_3  and  C_4
REMARK    3  A    between atoms: C_7  and  C_8
REMARK    4  A    between atoms: C_8  and  N_9
REMARK    5  A    between atoms: N_9  and  C_10
REMARK    6  A    between atoms: C_13  and  C_14
REMARK                            x       y       z     vdW  Elec       q    Type
REMARK                         _______ _______ _______ _____ _____    ______ ____
ROOT
ATOM      1  N   UNL     1      48.202   5.432  15.524  0.00  0.00    +0.000 N 
ATOM      2  H   UNL     1      48.237   6.453  15.555  0.00  0.00    +0.000 HD
ENDROOT
BRANCH   1   3
ATOM      3  C   UNL     1      47.303   5.046  14.510  0.00  0.00    +0.000 A 
ATOM      4  C   UNL     1      46.447   5.900  13.819  0.00  0.00    +0.000 A 
ATOM      5  C   UNL     1      45.517   5.367  12.922  0.00  0.00    +0.000 A 
ATOM      6  C   UNL     1      45.468   3.984  12.757  0.00  0.00    +0.000 A 
ATOM      7  N   UNL     1      46.294   3.115  13.392  0.00  0.00    +0.000 NA
ATOM      8  C   UNL     1      47.173   3.674  14.248  0.00  0.00    +0.000 A 
BRANCH   6   9
ATOM      9  C   UNL     1      44.450   3.366  11.853  0.00  0.00    +0.000 C 
ATOM     10  N   UNL     1      43.787   2.287  12.364  0.00  0.00    +0.000 N 
ATOM     11  O   UNL     1      44.214   3.801  10.724  0.00  0.00    +0.000 OA
ATOM     12  H   UNL     1      43.991   1.983  13.309  0.00  0.00    +0.000 HD
ATOM     13  H   UNL     1      43.056   1.840  11.827  0.00  0.00    +0.000 HD
ENDBRANCH   6   9
ENDBRANCH   1   3
BRANCH   1  14
ATOM     14  C   UNL     1      48.214   4.868  16.893  0.00  0.00    +0.000 C 
ATOM     15  C   UNL     1      47.547   5.490  18.103  0.00  0.00    +0.000 C 
ATOM     16  C   UNL     1      46.827   4.411  17.372  0.00  0.00    +0.000 C 
BRANCH  14  20
ATOM     17  C   UNL     1      51.558   2.317  17.467  0.00  0.00    +0.000 A 
ATOM     18  C   UNL     1      50.387   1.846  16.921  0.00  0.00    +0.000 A 
ATOM     19  N   UNL     1      49.287   2.611  16.748  0.00  0.00    +0.000 NA
ATOM     20  C   UNL     1      49.381   3.900  17.143  0.00  0.00    +0.000 A 
ATOM     21  N   UNL     1      50.472   4.423  17.740  0.00  0.00    +0.000 NA
ATOM     22  C   UNL     1      51.544   3.627  17.868  0.00  0.00    +0.000 A 
BRANCH  17  25
ATOM     23  C   UNL     1      54.995  -0.108  18.004  0.00  0.00    +0.000 C 
ATOM     24  C   UNL     1      53.772   0.772  17.799  0.00  0.00    +0.000 C 
ATOM     25  C   UNL     1      52.722   1.525  17.623  0.00  0.00    +0.000 C 
ENDBRANCH  17  25
ENDBRANCH  14  20
ENDBRANCH   1  14
TORSDOF 5
ENDMDL
MODEL 9
REMARK VINA RESULT:    -5.210      5.236      8.986
REMARK INTER + INTRA:          -6.662
REMARK INTER:                  -6.162
REMARK INTRA:                  -0.500
REMARK UNBOUND:                 0.071
REMARK  Name = 
REMARK  6 active torsions:
REMARK  status: ('A' for Active; 'I' for Inactive)
REMARK    1  A    between atoms: C_1  and  C_2
REMARK    2  A    between atoms: C_3  and  C_4
REMARK    3  A    between atoms: C_7  and  C_8
REMARK    4  A    between atoms: C_8  and  N_9
REMARK    5  A    between atoms: N_9  and  C_10
REMARK    6  A    between atoms: C_13  and  C_14
REMARK                            x       y       z     vdW  Elec       q    Type
REMARK                         _______ _______ _______ _____ _____    ______ ____
ROOT
ATOM      1  N   UNL     1      50.593   7.105  15.299  0.00  0.00    +0.000 N 
ATOM      2  H   UNL     1      51.037   6.281  14.890  0.00  0.00    +0.000 HD
ENDROOT
BRANCH   1   3
ATOM      3  C   UNL     1      49.879   6.707  16.445  0.00  0.00    +0.000 A 
ATOM      4  C   UNL     1      48.933   7.476  17.119  0.00  0.00    +0.000 A 
ATOM      5  C   UNL     1      48.388   7.007  18.317  0.00  0.00    +0.000 A 
ATOM      6  C   UNL     1      48.822   5.778  18.810  0.00  0.00    +0.000 A 
ATOM      7  N   UNL     1      49.724   4.985  18.179  0.00  0.00    +0.000 NA
ATOM      8  C   UNL     1      50.224   5.479  17.028  0.00  0.00    +0.000 A 
BRANCH   6   9
ATOM      9  C   UNL     1      48.311   5.264  20.117  0.00  0.00    +0.000 C 
ATOM     10  N   UNL     1      48.584   3.952  20.381  0.00  0.00    +0.000 N 
ATOM     11  O   UNL     1      47.691   5.974  20.913  0.00  0.00    +0.000 OA
ATOM     12  H   UNL     1      49.122   3.414  19.712  0.00  0.00    +0.000 HD
ATOM     13  H   UNL     1      48.304   3.543  21.263  0.00  0.00    +0.000 HD
ENDBRANCH   6   9
ENDBRANCH   1   3
BRANCH   1  14
ATOM     14  C   UNL     1      50.053   7.987  14.238  0.00  0.00    +0.000 C 
ATOM     15  C   UNL     1      50.409   9.447  14.047  0.00  0.00    +0.000 C 
ATOM     16  C   UNL     1      51.118   8.430  13.221  0.00  0.00    +0.000 C 
BRANCH  14  20
ATOM     17  C   UNL     1      46.263   6.692  12.831  0.00  0.00    +0.000 A 
ATOM     18  C   UNL     1      47.343   5.841  12.859  0.00  0.00    +0.000 A 
ATOM     19  N   UNL     1      48.575   6.214  13.269  0.00  0.00    +0.000 NA
ATOM     20  C   UNL     1      48.715   7.500  13.664  0.00  0.00    +0.000 A 
ATOM     21  N   UNL     1      47.722   8.412  13.609  0.00  0.00    +0.000 NA
ATOM     22  C   UNL     1      46.514   7.983  13.216  0.00  0.00    +0.000 A 
BRANCH  17  25
ATOM     23  C   UNL     1      42.367   5.451  11.712  0.00  0.00    +0.000 C 
ATOM     24  C   UNL     1      43.765   5.906  12.098  0.00  0.00    +0.000 C 
ATOM     25  C   UNL     1      44.964   6.296  12.429  0.00  0.00    +0.000 C 
ENDBRANCH  17  25
ENDBRANCH  14  20
ENDBRANCH   1  14
TORSDOF 5
ENDMDL
