MODEL 1
REMARK VINA RESULT:    -8.302      0.000      0.000
REMARK INTER + INTRA:         -12.265
REMARK INTER:                 -11.214
REMARK INTRA:                  -1.051
REMARK UNBOUND:                -1.051
REMARK  Name = 
REMARK  6 active torsions:
REMARK  status: ('A' for Active; 'I' for Inactive)
REMARK    1  A    between atoms: C_2  and  C_25
REMARK    2  A    between atoms: N_3  and  C_4
REMARK    3  A    between atoms: C_4  and  C_5
REMARK    4  A    between atoms: C_8  and  C_9
REMARK    5  A    between atoms: C_9  and  N_10
REMARK    6  A    between atoms: C_11  and  C_13
REMARK                            x       y       z     vdW  Elec       q    Type
REMARK                         _______ _______ _______ _____ _____    ______ ____
ROOT
ATOM      1  C   UNL     1      44.956   6.259  11.336  0.00  0.00    +0.000 A 
ATOM      2  C   UNL     1      44.640   7.593  11.596  0.00  0.00    +0.000 A 
ATOM      3  C   UNL     1      45.464   8.353  12.423  0.00  0.00    +0.000 A 
ATOM      4  C   UNL     1      46.578   7.748  12.999  0.00  0.00    +0.000 A 
ATOM      5  N   UNL     1      46.912   6.455  12.751  0.00  0.00    +0.000 NA
ATOM      6  C   UNL     1      46.101   5.748  11.932  0.00  0.00    +0.000 A 
ENDROOT
BRANCH   1   7
ATOM      7  C   UNL     1      44.095   5.406  10.460  0.00  0.00    +0.000 C 
BRANCH   7  10
ATOM      8  O   UNL     1      44.192   2.637  10.166  0.00  0.00    +0.000 OA
ATOM      9  C   UNL     1      44.842   3.331   9.389  0.00  0.00    +0.000 C 
ATOM     10  N   UNL     1      44.849   4.711   9.448  0.00  0.00    +0.000 N 
ATOM     11  H   UNL     1      45.436   5.206   8.781  0.00  0.00    +0.000 HD
BRANCH   9  12
ATOM     12  C   UNL     1      45.681   2.719   8.314  0.00  0.00    +0.000 A 
ATOM     13  C   UNL     1      46.006   3.479   7.196  0.00  0.00    +0.000 A 
ATOM     14  C   UNL     1      46.786   2.895   6.204  0.00  0.00    +0.000 A 
ATOM     15  C   UNL     1      47.210   1.579   6.362  0.00  0.00    +0.000 A 
ATOM     16  C   UNL     1      46.837   0.897   7.512  0.00  0.00    +0.000 A 
ATOM     17  N   UNL     1      46.081   1.430   8.499  0.00  0.00    +0.000 NA
ENDBRANCH   9  12
ENDBRANCH   7  10
ENDBRANCH   1   7
BRANCH   4  18
ATOM     18  C   UNL     1      47.467   8.527  13.936  0.00  0.00    +0.000 C 
BRANCH  18  19
ATOM     19  N   UNL     1      47.889   7.747  15.077  0.00  0.00    +0.000 N 
ATOM     20  C   UNL     1      49.169   7.287  15.223  0.00  0.00    +0.000 C 
ATOM     21  O   UNL     1      50.036   7.494  14.378  0.00  0.00    +0.000 OA
ATOM     22  H   UNL     1      47.144   7.383  15.662  0.00  0.00    +0.000 HD
BRANCH  20  23
ATOM     23  C   UNL     1      49.478   6.596  16.482  0.00  0.00    +0.000 A 
ATOM     24  C   UNL     1      50.442   7.122  17.333  0.00  0.00    +0.000 A 
ATOM     25  S   UNL     1      50.649   6.227  18.771  0.00  0.00    +0.000 S 
ATOM     26  C   UNL     1      49.491   5.080  18.288  0.00  0.00    +0.000 A 
ATOM     27  N   UNL     1      49.201   4.007  19.072  0.00  0.00    +0.000 NA
ATOM     28  C   UNL     1      48.332   3.196  18.568  0.00  0.00    +0.000 A 
ATOM     29  N   UNL     1      47.717   3.368  17.356  0.00  0.00    +0.000 N 
ATOM     30  C   UNL     1      47.934   4.465  16.558  0.00  0.00    +0.000 A 
ATOM     31  O   UNL     1      47.294   4.636  15.526  0.00  0.00    +0.000 OA
ATOM     32  C   UNL     1      48.933   5.388  17.059  0.00  0.00    +0.000 A 
ATOM     33  H   UNL     1      47.026   2.708  17.026  0.00  0.00    +0.000 HD
ENDBRANCH  20  23
ENDBRANCH  18  19
ENDBRANCH   4  18
TORSDOF 6
ENDMDL
MODEL 2
REMARK VINA RESULT:    -7.776      1.860      2.208
REMARK INTER + INTRA:         -11.555
REMARK INTER:                 -10.661
REMARK INTRA:                  -0.894
REMARK UNBOUND:                -1.051
REMARK  Name = 
REMARK  6 active torsions:
REMARK  status: ('A' for Active; 'I' for Inactive)
REMARK    1  A    between atoms: C_2  and  C_25
REMARK    2  A    between atoms: N_3  and  C_4
REMARK    3  A    between atoms: C_4  and  C_5
REMARK    4  A    between atoms: C_8  and  C_9
REMARK    5  A    between atoms: C_9  and  N_10
REMARK    6  A    between atoms: C_11  and  C_13
REMARK                            x       y       z     vdW  Elec       q    Type
REMARK                         _______ _______ _______ _____ _____    ______ ____
ROOT
ATOM      1  C   UNL     1      45.242   6.308  11.417  0.00  0.00    +0.000 A 
ATOM      2  C   UNL     1      44.947   7.610  11.822  0.00  0.00    +0.000 A 
ATOM      3  C   UNL     1      45.817   8.285  12.675  0.00  0.00    +0.000 A 
ATOM      4  C   UNL     1      46.955   7.627  13.132  0.00  0.00    +0.000 A 
ATOM      5  N   UNL     1      47.270   6.363  12.743  0.00  0.00    +0.000 NA
ATOM      6  C   UNL     1      46.414   5.740  11.902  0.00  0.00    +0.000 A 
ENDROOT
BRANCH   1   7
ATOM      7  C   UNL     1      44.334   5.545  10.508  0.00  0.00    +0.000 C 
BRANCH   7  10
ATOM      8  O   UNL     1      44.148   2.793  10.109  0.00  0.00    +0.000 OA
ATOM      9  C   UNL     1      44.899   3.441   9.384  0.00  0.00    +0.000 C 
ATOM     10  N   UNL     1      45.049   4.809   9.497  0.00  0.00    +0.000 N 
ATOM     11  H   UNL     1      45.711   5.261   8.872  0.00  0.00    +0.000 HD
BRANCH   9  12
ATOM     12  C   UNL     1      45.710   2.780   8.316  0.00  0.00    +0.000 A 
ATOM     13  C   UNL     1      46.061   3.510   7.186  0.00  0.00    +0.000 A 
ATOM     14  C   UNL     1      46.815   2.880   6.201  0.00  0.00    +0.000 A 
ATOM     15  C   UNL     1      47.188   1.552   6.378  0.00  0.00    +0.000 A 
ATOM     16  C   UNL     1      46.792   0.902   7.539  0.00  0.00    +0.000 A 
ATOM     17  N   UNL     1      46.060   1.479   8.520  0.00  0.00    +0.000 NA
ENDBRANCH   9  12
ENDBRANCH   7  10
ENDBRANCH   1   7
BRANCH   4  18
ATOM     18  C   UNL     1      47.895   8.310  14.094  0.00  0.00    +0.000 C 
BRANCH  18  19
ATOM     19  N   UNL     1      47.891   7.698  15.403  0.00  0.00    +0.000 N 
ATOM     20  C   UNL     1      48.927   6.934  15.865  0.00  0.00    +0.000 C 
ATOM     21  O   UNL     1      49.921   6.703  15.181  0.00  0.00    +0.000 OA
ATOM     22  H   UNL     1      46.996   7.692  15.884  0.00  0.00    +0.000 HD
BRANCH  20  23
ATOM     23  C   UNL     1      48.828   6.462  17.252  0.00  0.00    +0.000 A 
ATOM     24  C   UNL     1      49.223   5.167  17.565  0.00  0.00    +0.000 A 
ATOM     25  S   UNL     1      49.088   4.790  19.223  0.00  0.00    +0.000 S 
ATOM     26  C   UNL     1      48.456   6.329  19.577  0.00  0.00    +0.000 A 
ATOM     27  N   UNL     1      48.093   6.660  20.845  0.00  0.00    +0.000 NA
ATOM     28  C   UNL     1      47.593   7.844  20.966  0.00  0.00    +0.000 A 
ATOM     29  N   UNL     1      47.434   8.731  19.934  0.00  0.00    +0.000 N 
ATOM     30  C   UNL     1      47.840   8.463  18.649  0.00  0.00    +0.000 A 
ATOM     31  O   UNL     1      47.774   9.316  17.771  0.00  0.00    +0.000 OA
ATOM     32  C   UNL     1      48.372   7.129  18.450  0.00  0.00    +0.000 A 
ATOM     33  H   UNL     1      47.057   9.655  20.096  0.00  0.00    +0.000 HD
ENDBRANCH  20  23
ENDBRANCH  18  19
ENDBRANCH   4  18
TORSDOF 6
ENDMDL
MODEL 3
REMARK VINA RESULT:    -7.707      1.519      1.824
REMARK INTER + INTRA:         -11.461
REMARK INTER:                 -10.600
REMARK INTRA:                  -0.861
REMARK UNBOUND:                -1.051
REMARK  Name = 
REMARK  6 active torsions:
REMARK  status: ('A' for Active; 'I' for Inactive)
REMARK    1  A    between atoms: C_2  and  C_25
REMARK    2  A    between atoms: N_3  and  C_4
REMARK    3  A    between atoms: C_4  and  C_5
REMARK    4  A    between atoms: C_8  and  C_9
REMARK    5  A    between atoms: C_9  and  N_10
REMARK    6  A    between atoms: C_11  and  C_13
REMARK                            x       y       z     vdW  Elec       q    Type
REMARK                         _______ _______ _______ _____ _____    ______ ____
ROOT
ATOM      1  C   UNL     1      44.741   5.122  11.814  0.00  0.00    +0.000 A 
ATOM      2  C   UNL     1      44.295   6.333  11.282  0.00  0.00    +0.000 A 
ATOM      3  C   UNL     1      44.849   7.531  11.725  0.00  0.00    +0.000 A 
ATOM      4  C   UNL     1      45.824   7.494  12.718  0.00  0.00    +0.000 A 
ATOM      5  N   UNL     1      46.283   6.328  13.243  0.00  0.00    +0.000 NA
ATOM      6  C   UNL     1      45.736   5.180  12.782  0.00  0.00    +0.000 A 
ENDROOT
BRANCH   1   7
ATOM      7  C   UNL     1      44.169   3.814  11.373  0.00  0.00    +0.000 C 
BRANCH   7  10
ATOM      8  O   UNL     1      44.125   4.263   8.623  0.00  0.00    +0.000 OA
ATOM      9  C   UNL     1      44.902   3.422   9.066  0.00  0.00    +0.000 C 
ATOM     10  N   UNL     1      45.005   3.137  10.414  0.00  0.00    +0.000 N 
ATOM     11  H   UNL     1      45.657   2.408  10.691  0.00  0.00    +0.000 HD
BRANCH   9  12
ATOM     12  C   UNL     1      45.800   2.640   8.163  0.00  0.00    +0.000 A 
ATOM     13  C   UNL     1      46.370   3.274   7.064  0.00  0.00    +0.000 A 
ATOM     14  C   UNL     1      47.203   2.531   6.233  0.00  0.00    +0.000 A 
ATOM     15  C   UNL     1      47.433   1.191   6.525  0.00  0.00    +0.000 A 
ATOM     16  C   UNL     1      46.820   0.643   7.644  0.00  0.00    +0.000 A 
ATOM     17  N   UNL     1      46.006   1.330   8.477  0.00  0.00    +0.000 NA
ENDBRANCH   9  12
ENDBRANCH   7  10
ENDBRANCH   1   7
BRANCH   4  18
ATOM     18  C   UNL     1      46.413   8.775  13.255  0.00  0.00    +0.000 C 
BRANCH  18  19
ATOM     19  N   UNL     1      47.076   8.592  14.526  0.00  0.00    +0.000 N 
ATOM     20  C   UNL     1      48.412   8.823  14.701  0.00  0.00    +0.000 C 
ATOM     21  O   UNL     1      49.138   9.183  13.778  0.00  0.00    +0.000 OA
ATOM     22  H   UNL     1      46.546   8.088  15.230  0.00  0.00    +0.000 HD
BRANCH  20  23
ATOM     23  C   UNL     1      48.926   8.693  16.071  0.00  0.00    +0.000 A 
ATOM     24  C   UNL     1      49.261   9.835  16.789  0.00  0.00    +0.000 A 
ATOM     25  S   UNL     1      49.798   9.515  18.375  0.00  0.00    +0.000 S 
ATOM     26  C   UNL     1      49.645   7.837  18.148  0.00  0.00    +0.000 A 
ATOM     27  N   UNL     1      49.979   6.965  19.137  0.00  0.00    +0.000 NA
ATOM     28  C   UNL     1      49.850   5.720  18.816  0.00  0.00    +0.000 A 
ATOM     29  N   UNL     1      49.407   5.270  17.601  0.00  0.00    +0.000 N 
ATOM     30  C   UNL     1      49.004   6.114  16.594  0.00  0.00    +0.000 A 
ATOM     31  O   UNL     1      48.520   5.677  15.555  0.00  0.00    +0.000 OA
ATOM     32  C   UNL     1      49.166   7.525  16.887  0.00  0.00    +0.000 A 
ATOM     33  H   UNL     1      49.307   4.282  17.418  0.00  0.00    +0.000 HD
ENDBRANCH  20  23
ENDBRANCH  18  19
ENDBRANCH   4  18
TORSDOF 6
ENDMDL
MODEL 4
REMARK VINA RESULT:    -7.156      3.900      5.229
REMARK INTER + INTRA:         -10.717
REMARK INTER:                  -9.916
REMARK INTRA:                  -0.801
REMARK UNBOUND:                -1.051
REMARK  Name = 
REMARK  6 active torsions:
REMARK  status: ('A' for Active; 'I' for Inactive)
REMARK    1  A    between atoms: C_2  and  C_25
REMARK    2  A    between atoms: N_3  and  C_4
REMARK    3  A    between atoms: C_4  and  C_5
REMARK    4  A    between atoms: C_8  and  C_9
REMARK    5  A    between atoms: C_9  and  N_10
REMARK    6  A    between atoms: C_11  and  C_13
REMARK                            x       y       z     vdW  Elec       q    Type
REMARK                         _______ _______ _______ _____ _____    ______ ____
ROOT
ATOM      1  C   UNL     1      44.948   4.890  12.036  0.00  0.00    +0.000 A 
ATOM      2  C   UNL     1      46.033   4.877  12.914  0.00  0.00    +0.000 A 
ATOM      3  C   UNL     1      46.604   6.077  13.329  0.00  0.00    +0.000 A 
ATOM      4  C   UNL     1      46.093   7.272  12.831  0.00  0.00    +0.000 A 
ATOM      5  N   UNL     1      45.031   7.312  11.986  0.00  0.00    +0.000 NA
ATOM      6  C   UNL     1      44.488   6.131  11.612  0.00  0.00    +0.000 A 
ENDROOT
BRANCH   1   7
ATOM      7  C   UNL     1      44.309   3.626  11.559  0.00  0.00    +0.000 C 
BRANCH   7  10
ATOM      8  O   UNL     1      44.153   4.193   8.835  0.00  0.00    +0.000 OA
ATOM      9  C   UNL     1      44.923   3.311   9.206  0.00  0.00    +0.000 C 
ATOM     10  N   UNL     1      45.079   2.967  10.535  0.00  0.00    +0.000 N 
ATOM     11  H   UNL     1      45.719   2.207  10.750  0.00  0.00    +0.000 HD
BRANCH   9  12
ATOM     12  C   UNL     1      45.754   2.542   8.230  0.00  0.00    +0.000 A 
ATOM     13  C   UNL     1      46.209   3.180   7.082  0.00  0.00    +0.000 A 
ATOM     14  C   UNL     1      46.981   2.450   6.183  0.00  0.00    +0.000 A 
ATOM     15  C   UNL     1      47.265   1.118   6.460  0.00  0.00    +0.000 A 
ATOM     16  C   UNL     1      46.767   0.564   7.632  0.00  0.00    +0.000 A 
ATOM     17  N   UNL     1      46.016   1.240   8.532  0.00  0.00    +0.000 NA
ENDBRANCH   9  12
ENDBRANCH   7  10
ENDBRANCH   1   7
BRANCH   4  18
ATOM     18  C   UNL     1      46.716   8.589  13.223  0.00  0.00    +0.000 C 
BRANCH  18  19
ATOM     19  N   UNL     1      47.872   8.917  12.420  0.00  0.00    +0.000 N 
ATOM     20  C   UNL     1      48.302  10.202  12.237  0.00  0.00    +0.000 C 
ATOM     21  O   UNL     1      47.716  11.162  12.731  0.00  0.00    +0.000 OA
ATOM     22  H   UNL     1      48.227   8.169  11.832  0.00  0.00    +0.000 HD
BRANCH  20  23
ATOM     23  C   UNL     1      49.549  10.375  11.480  0.00  0.00    +0.000 A 
ATOM     24  C   UNL     1      49.651  11.406  10.554  0.00  0.00    +0.000 A 
ATOM     25  S   UNL     1      51.175  11.498   9.794  0.00  0.00    +0.000 S 
ATOM     26  C   UNL     1      51.740  10.137  10.642  0.00  0.00    +0.000 A 
ATOM     27  N   UNL     1      52.995   9.654  10.431  0.00  0.00    +0.000 NA
ATOM     28  C   UNL     1      53.281   8.595  11.112  0.00  0.00    +0.000 A 
ATOM     29  N   UNL     1      52.429   7.981  11.993  0.00  0.00    +0.000 N 
ATOM     30  C   UNL     1      51.176   8.466  12.281  0.00  0.00    +0.000 A 
ATOM     31  O   UNL     1      50.479   7.949  13.146  0.00  0.00    +0.000 OA
ATOM     32  C   UNL     1      50.789   9.634  11.512  0.00  0.00    +0.000 A 
ATOM     33  H   UNL     1      52.720   7.166  12.514  0.00  0.00    +0.000 HD
ENDBRANCH  20  23
ENDBRANCH  18  19
ENDBRANCH   4  18
TORSDOF 6
ENDMDL
MODEL 5
REMARK VINA RESULT:    -7.106      2.190      2.926
REMARK INTER + INTRA:         -10.650
REMARK INTER:                  -9.866
REMARK INTRA:                  -0.783
REMARK UNBOUND:                -1.051
REMARK  Name = 
REMARK  6 active torsions:
REMARK  status: ('A' for Active; 'I' for Inactive)
REMARK    1  A    between atoms: C_2  and  C_25
REMARK    2  A    between atoms: N_3  and  C_4
REMARK    3  A    between atoms: C_4  and  C_5
REMARK    4  A    between atoms: C_8  and  C_9
REMARK    5  A    between atoms: C_9  and  N_10
REMARK    6  A    between atoms: C_11  and  C_13
REMARK                            x       y       z     vdW  Elec       q    Type
REMARK                         _______ _______ _______ _____ _____    ______ ____
ROOT
ATOM      1  C   UNL     1      45.878   6.859  12.059  0.00  0.00    +0.000 A 
ATOM      2  C   UNL     1      45.898   8.147  12.599  0.00  0.00    +0.000 A 
ATOM      3  C   UNL     1      46.827   8.471  13.585  0.00  0.00    +0.000 A 
ATOM      4  C   UNL     1      47.701   7.486  14.034  0.00  0.00    +0.000 A 
ATOM      5  N   UNL     1      47.709   6.229  13.517  0.00  0.00    +0.000 NA
ATOM      6  C   UNL     1      46.806   5.949  12.550  0.00  0.00    +0.000 A 
ENDROOT
BRANCH   1   7
ATOM      7  C   UNL     1      44.895   6.467  11.005  0.00  0.00    +0.000 C 
BRANCH   7  10
ATOM      8  O   UNL     1      43.769   4.058  10.171  0.00  0.00    +0.000 OA
ATOM      9  C   UNL     1      44.835   4.410   9.672  0.00  0.00    +0.000 C 
ATOM     10  N   UNL     1      45.464   5.592  10.012  0.00  0.00    +0.000 N 
ATOM     11  H   UNL     1      46.356   5.792   9.568  0.00  0.00    +0.000 HD
BRANCH   9  12
ATOM     12  C   UNL     1      45.530   3.570   8.650  0.00  0.00    +0.000 A 
ATOM     13  C   UNL     1      45.642   2.201   8.864  0.00  0.00    +0.000 A 
ATOM     14  C   UNL     1      46.293   1.433   7.903  0.00  0.00    +0.000 A 
ATOM     15  C   UNL     1      46.808   2.057   6.772  0.00  0.00    +0.000 A 
ATOM     16  C   UNL     1      46.649   3.431   6.643  0.00  0.00    +0.000 A 
ATOM     17  N   UNL     1      46.022   4.211   7.553  0.00  0.00    +0.000 NA
ENDBRANCH   9  12
ENDBRANCH   7  10
ENDBRANCH   1   7
BRANCH   4  18
ATOM     18  C   UNL     1      48.689   7.788  15.134  0.00  0.00    +0.000 C 
BRANCH  18  19
ATOM     19  N   UNL     1      49.382   6.608  15.598  0.00  0.00    +0.000 N 
ATOM     20  C   UNL     1      49.168   6.065  16.834  0.00  0.00    +0.000 C 
ATOM     21  O   UNL     1      48.384   6.563  17.638  0.00  0.00    +0.000 OA
ATOM     22  H   UNL     1      50.183   6.321  15.044  0.00  0.00    +0.000 HD
BRANCH  20  23
ATOM     23  C   UNL     1      49.869   4.808  17.129  0.00  0.00    +0.000 A 
ATOM     24  C   UNL     1      49.185   3.603  17.026  0.00  0.00    +0.000 A 
ATOM     25  S   UNL     1      50.150   2.236  17.356  0.00  0.00    +0.000 S 
ATOM     26  C   UNL     1      51.505   3.206  17.692  0.00  0.00    +0.000 A 
ATOM     27  N   UNL     1      52.686   2.649  18.075  0.00  0.00    +0.000 NA
ATOM     28  C   UNL     1      53.620   3.503  18.335  0.00  0.00    +0.000 A 
ATOM     29  N   UNL     1      53.482   4.862  18.235  0.00  0.00    +0.000 N 
ATOM     30  C   UNL     1      52.329   5.466  17.797  0.00  0.00    +0.000 A 
ATOM     31  O   UNL     1      52.272   6.679  17.626  0.00  0.00    +0.000 OA
ATOM     32  C   UNL     1      51.234   4.554  17.529  0.00  0.00    +0.000 A 
ATOM     33  H   UNL     1      54.259   5.478  18.431  0.00  0.00    +0.000 HD
ENDBRANCH  20  23
ENDBRANCH  18  19
ENDBRANCH   4  18
TORSDOF 6
ENDMDL
MODEL 6
REMARK VINA RESULT:    -7.005      3.893      8.787
REMARK INTER + INTRA:         -10.513
REMARK INTER:                  -9.557
REMARK INTRA:                  -0.956
REMARK UNBOUND:                -1.051
REMARK  Name = 
REMARK  6 active torsions:
REMARK  status: ('A' for Active; 'I' for Inactive)
REMARK    1  A    between atoms: C_2  and  C_25
REMARK    2  A    between atoms: N_3  and  C_4
REMARK    3  A    between atoms: C_4  and  C_5
REMARK    4  A    between atoms: C_8  and  C_9
REMARK    5  A    between atoms: C_9  and  N_10
REMARK    6  A    between atoms: C_11  and  C_13
REMARK                            x       y       z     vdW  Elec       q    Type
REMARK                         _______ _______ _______ _____ _____    ______ ____
ROOT
ATOM      1  C   UNL     1      49.244   4.839  17.350  0.00  0.00    +0.000 A 
ATOM      2  C   UNL     1      49.965   5.960  16.937  0.00  0.00    +0.000 A 
ATOM      3  C   UNL     1      49.592   6.637  15.778  0.00  0.00    +0.000 A 
ATOM      4  C   UNL     1      48.516   6.156  15.037  0.00  0.00    +0.000 A 
ATOM      5  N   UNL     1      47.792   5.074  15.424  0.00  0.00    +0.000 NA
ATOM      6  C   UNL     1      48.169   4.447  16.562  0.00  0.00    +0.000 A 
ENDROOT
BRANCH   1   7
ATOM      7  C   UNL     1      49.613   4.079  18.583  0.00  0.00    +0.000 C 
BRANCH   7  10
ATOM      8  O   UNL     1      50.315   1.795  17.150  0.00  0.00    +0.000 OA
ATOM      9  C   UNL     1      51.189   2.378  17.785  0.00  0.00    +0.000 C 
ATOM     10  N   UNL     1      50.941   3.524  18.516  0.00  0.00    +0.000 N 
ATOM     11  H   UNL     1      51.718   3.927  19.033  0.00  0.00    +0.000 HD
BRANCH   9  12
ATOM     12  C   UNL     1      52.598   1.879  17.810  0.00  0.00    +0.000 A 
ATOM     13  C   UNL     1      53.637   2.782  17.612  0.00  0.00    +0.000 A 
ATOM     14  C   UNL     1      54.942   2.301  17.637  0.00  0.00    +0.000 A 
ATOM     15  C   UNL     1      55.162   0.945  17.855  0.00  0.00    +0.000 A 
ATOM     16  C   UNL     1      54.062   0.118  18.043  0.00  0.00    +0.000 A 
ATOM     17  N   UNL     1      52.778   0.547  18.027  0.00  0.00    +0.000 NA
ENDBRANCH   9  12
ENDBRANCH   7  10
ENDBRANCH   1   7
BRANCH   4  18
ATOM     18  C   UNL     1      48.114   6.836  13.751  0.00  0.00    +0.000 C 
BRANCH  18  19
ATOM     19  N   UNL     1      47.299   5.991  12.908  0.00  0.00    +0.000 N 
ATOM     20  C   UNL     1      46.458   6.493  11.954  0.00  0.00    +0.000 C 
ATOM     21  O   UNL     1      46.328   7.700  11.769  0.00  0.00    +0.000 OA
ATOM     22  H   UNL     1      47.227   5.020  13.196  0.00  0.00    +0.000 HD
BRANCH  20  23
ATOM     23  C   UNL     1      45.770   5.512  11.104  0.00  0.00    +0.000 A 
ATOM     24  C   UNL     1      45.849   5.627   9.722  0.00  0.00    +0.000 A 
ATOM     25  S   UNL     1      45.036   4.386   8.881  0.00  0.00    +0.000 S 
ATOM     26  C   UNL     1      44.510   3.673  10.333  0.00  0.00    +0.000 A 
ATOM     27  N   UNL     1      43.726   2.562  10.321  0.00  0.00    +0.000 NA
ATOM     28  C   UNL     1      43.369   2.148  11.491  0.00  0.00    +0.000 A 
ATOM     29  N   UNL     1      43.734   2.739  12.672  0.00  0.00    +0.000 N 
ATOM     30  C   UNL     1      44.572   3.827  12.735  0.00  0.00    +0.000 A 
ATOM     31  O   UNL     1      44.957   4.271  13.810  0.00  0.00    +0.000 OA
ATOM     32  C   UNL     1      44.970   4.357  11.445  0.00  0.00    +0.000 A 
ATOM     33  H   UNL     1      43.440   2.354  13.558  0.00  0.00    +0.000 HD
ENDBRANCH  20  23
ENDBRANCH  18  19
ENDBRANCH   4  18
TORSDOF 6
ENDMDL
MODEL 7
REMARK VINA RESULT:    -6.758      3.552      8.522
REMARK INTER + INTRA:         -10.180
REMARK INTER:                  -9.324
REMARK INTRA:                  -0.856
REMARK UNBOUND:                -1.051
REMARK  Name = 
REMARK  6 active torsions:
REMARK  status: ('A' for Active; 'I' for Inactive)
REMARK    1  A    between atoms: C_2  and  C_25
REMARK    2  A    between atoms: N_3  and  C_4
REMARK    3  A    between atoms: C_4  and  C_5
REMARK    4  A    between atoms: C_8  and  C_9
REMARK    5  A    between atoms: C_9  and  N_10
REMARK    6  A    between atoms: C_11  and  C_13
REMARK                            x       y       z     vdW  Elec       q    Type
REMARK                         _______ _______ _______ _____ _____    ______ ____
ROOT
ATOM      1  C   UNL     1      50.401   7.197  15.702  0.00  0.00    +0.000 A 
ATOM      2  C   UNL     1      49.077   6.779  15.556  0.00  0.00    +0.000 A 
ATOM      3  C   UNL     1      48.400   7.022  14.364  0.00  0.00    +0.000 A 
ATOM      4  C   UNL     1      49.057   7.708  13.346  0.00  0.00    +0.000 A 
ATOM      5  N   UNL     1      50.349   8.114  13.459  0.00  0.00    +0.000 NA
ATOM      6  C   UNL     1      50.984   7.851  14.623  0.00  0.00    +0.000 A 
ENDROOT
BRANCH   1   7
ATOM      7  C   UNL     1      51.162   6.963  16.966  0.00  0.00    +0.000 C 
BRANCH   7  10
ATOM      8  O   UNL     1      49.980   4.859  18.360  0.00  0.00    +0.000 OA
ATOM      9  C   UNL     1      51.043   4.653  17.779  0.00  0.00    +0.000 C 
ATOM     10  N   UNL     1      51.698   5.629  17.053  0.00  0.00    +0.000 N 
ATOM     11  H   UNL     1      52.586   5.378  16.626  0.00  0.00    +0.000 HD
BRANCH   9  12
ATOM     12  C   UNL     1      51.705   3.314  17.821  0.00  0.00    +0.000 A 
ATOM     13  C   UNL     1      53.008   3.220  18.298  0.00  0.00    +0.000 A 
ATOM     14  C   UNL     1      53.611   1.966  18.329  0.00  0.00    +0.000 A 
ATOM     15  C   UNL     1      52.896   0.859  17.884  0.00  0.00    +0.000 A 
ATOM     16  C   UNL     1      51.600   1.049  17.425  0.00  0.00    +0.000 A 
ATOM     17  N   UNL     1      50.978   2.250  17.380  0.00  0.00    +0.000 NA
ENDBRANCH   9  12
ENDBRANCH   7  10
ENDBRANCH   1   7
BRANCH   4  18
ATOM     18  C   UNL     1      48.340   8.030  12.058  0.00  0.00    +0.000 C 
BRANCH  18  19
ATOM     19  N   UNL     1      47.594   6.905  11.543  0.00  0.00    +0.000 N 
ATOM     20  C   UNL     1      46.228   6.890  11.483  0.00  0.00    +0.000 C 
ATOM     21  O   UNL     1      45.548   7.830  11.887  0.00  0.00    +0.000 OA
ATOM     22  H   UNL     1      48.122   6.047  11.417  0.00  0.00    +0.000 HD
BRANCH  20  23
ATOM     23  C   UNL     1      45.611   5.721  10.841  0.00  0.00    +0.000 A 
ATOM     24  C   UNL     1      45.755   5.538   9.471  0.00  0.00    +0.000 A 
ATOM     25  S   UNL     1      45.021   4.113   8.889  0.00  0.00    +0.000 S 
ATOM     26  C   UNL     1      44.446   3.712  10.438  0.00  0.00    +0.000 A 
ATOM     27  N   UNL     1      43.697   2.594  10.638  0.00  0.00    +0.000 NA
ATOM     28  C   UNL     1      43.295   2.430  11.854  0.00  0.00    +0.000 A 
ATOM     29  N   UNL     1      43.584   3.278  12.891  0.00  0.00    +0.000 N 
ATOM     30  C   UNL     1      44.385   4.385  12.749  0.00  0.00    +0.000 A 
ATOM     31  O   UNL     1      44.704   5.067  13.717  0.00  0.00    +0.000 OA
ATOM     32  C   UNL     1      44.831   4.638  11.392  0.00  0.00    +0.000 A 
ATOM     33  H   UNL     1      43.258   3.083  13.827  0.00  0.00    +0.000 HD
ENDBRANCH  20  23
ENDBRANCH  18  19
ENDBRANCH   4  18
TORSDOF 6
ENDMDL
MODEL 8
REMARK VINA RESULT:    -6.645      1.985      2.740
REMARK INTER + INTRA:         -10.027
REMARK INTER:                  -9.017
REMARK INTRA:                  -1.010
REMARK UNBOUND:                -1.051
REMARK  Name = 
REMARK  6 active torsions:
REMARK  status: ('A' for Active; 'I' for Inactive)
REMARK    1  A    between atoms: C_2  and  C_25
REMARK    2  A    between atoms: N_3  and  C_4
REMARK    3  A    between atoms: C_4  and  C_5
REMARK    4  A    between atoms: C_8  and  C_9
REMARK    5  A    between atoms: C_9  and  N_10
REMARK    6  A    between atoms: C_11  and  C_13
REMARK                            x       y       z     vdW  Elec       q    Type
REMARK                         _______ _______ _______ _____ _____    ______ ____
ROOT
ATOM      1  C   UNL     1      46.496   7.491  12.573  0.00  0.00    +0.000 A 
ATOM      2  C   UNL     1      47.587   6.624  12.647  0.00  0.00    +0.000 A 
ATOM      3  C   UNL     1      48.613   6.876  13.556  0.00  0.00    +0.000 A 
ATOM      4  C   UNL     1      48.537   8.014  14.354  0.00  0.00    +0.000 A 
ATOM      5  N   UNL     1      47.480   8.866  14.309  0.00  0.00    +0.000 NA
ATOM      6  C   UNL     1      46.493   8.586  13.428  0.00  0.00    +0.000 A 
ENDROOT
BRANCH   1   7
ATOM      7  C   UNL     1      45.378   7.261  11.608  0.00  0.00    +0.000 C 
BRANCH   7  10
ATOM      8  O   UNL     1      43.769   5.053  11.059  0.00  0.00    +0.000 OA
ATOM      9  C   UNL     1      44.824   5.177  10.443  0.00  0.00    +0.000 C 
ATOM     10  N   UNL     1      45.682   6.242  10.637  0.00  0.00    +0.000 N 
ATOM     11  H   UNL     1      46.546   6.251  10.102  0.00  0.00    +0.000 HD
BRANCH   9  12
ATOM     12  C   UNL     1      45.255   4.167   9.428  0.00  0.00    +0.000 A 
ATOM     13  C   UNL     1      45.037   2.818   9.684  0.00  0.00    +0.000 A 
ATOM     14  C   UNL     1      45.445   1.891   8.730  0.00  0.00    +0.000 A 
ATOM     15  C   UNL     1      46.055   2.341   7.564  0.00  0.00    +0.000 A 
ATOM     16  C   UNL     1      46.231   3.708   7.395  0.00  0.00    +0.000 A 
ATOM     17  N   UNL     1      45.848   4.641   8.297  0.00  0.00    +0.000 NA
ENDBRANCH   9  12
ENDBRANCH   7  10
ENDBRANCH   1   7
BRANCH   4  18
ATOM     18  C   UNL     1      49.652   8.344  15.316  0.00  0.00    +0.000 C 
BRANCH  18  19
ATOM     19  N   UNL     1      50.391   7.174  15.732  0.00  0.00    +0.000 N 
ATOM     20  C   UNL     1      50.968   7.065  16.967  0.00  0.00    +0.000 C 
ATOM     21  O   UNL     1      50.910   7.971  17.795  0.00  0.00    +0.000 OA
ATOM     22  H   UNL     1      50.637   6.522  14.993  0.00  0.00    +0.000 HD
BRANCH  20  23
ATOM     23  C   UNL     1      51.601   5.778  17.285  0.00  0.00    +0.000 A 
ATOM     24  C   UNL     1      52.944   5.744  17.638  0.00  0.00    +0.000 A 
ATOM     25  S   UNL     1      53.513   4.182  18.021  0.00  0.00    +0.000 S 
ATOM     26  C   UNL     1      51.997   3.489  17.687  0.00  0.00    +0.000 A 
ATOM     27  N   UNL     1      51.805   2.146  17.794  0.00  0.00    +0.000 NA
ATOM     28  C   UNL     1      50.617   1.750  17.475  0.00  0.00    +0.000 A 
ATOM     29  N   UNL     1      49.603   2.577  17.070  0.00  0.00    +0.000 N 
ATOM     30  C   UNL     1      49.734   3.943  17.004  0.00  0.00    +0.000 A 
ATOM     31  O   UNL     1      48.778   4.661  16.733  0.00  0.00    +0.000 OA
ATOM     32  C   UNL     1      51.062   4.438  17.314  0.00  0.00    +0.000 A 
ATOM     33  H   UNL     1      48.687   2.208  16.855  0.00  0.00    +0.000 HD
ENDBRANCH  20  23
ENDBRANCH  18  19
ENDBRANCH   4  18
TORSDOF 6
ENDMDL
MODEL 9
REMARK VINA RESULT:    -6.553      2.218      2.717
REMARK INTER + INTRA:          -9.902
REMARK INTER:                  -9.018
REMARK INTRA:                  -0.884
REMARK UNBOUND:                -1.051
REMARK  Name = 
REMARK  6 active torsions:
REMARK  status: ('A' for Active; 'I' for Inactive)
REMARK    1  A    between atoms: C_2  and  C_25
REMARK    2  A    between atoms: N_3  and  C_4
REMARK    3  A    between atoms: C_4  and  C_5
REMARK    4  A    between atoms: C_8  and  C_9
REMARK    5  A    between atoms: C_9  and  N_10
REMARK    6  A    between atoms: C_11  and  C_13
REMARK                            x       y       z     vdW  Elec       q    Type
REMARK                         _______ _______ _______ _____ _____    ______ ____
ROOT
ATOM      1  C   UNL     1      45.899   7.346  12.256  0.00  0.00    +0.000 A 
ATOM      2  C   UNL     1      46.104   8.724  12.338  0.00  0.00    +0.000 A 
ATOM      3  C   UNL     1      47.086   9.231  13.185  0.00  0.00    +0.000 A 
ATOM      4  C   UNL     1      47.829   8.343  13.959  0.00  0.00    +0.000 A 
ATOM      5  N   UNL     1      47.656   6.997  13.888  0.00  0.00    +0.000 NA
ATOM      6  C   UNL     1      46.705   6.535  13.045  0.00  0.00    +0.000 A 
ENDROOT
BRANCH   1   7
ATOM      7  C   UNL     1      44.851   6.761  11.366  0.00  0.00    +0.000 C 
BRANCH   7  10
ATOM      8  O   UNL     1      43.469   4.560  10.360  0.00  0.00    +0.000 OA
ATOM      9  C   UNL     1      44.626   4.743   9.992  0.00  0.00    +0.000 C 
ATOM     10  N   UNL     1      45.388   5.811  10.426  0.00  0.00    +0.000 N 
ATOM     11  H   UNL     1      46.345   5.871  10.089  0.00  0.00    +0.000 HD
BRANCH   9  12
ATOM     12  C   UNL     1      45.296   3.808   9.037  0.00  0.00    +0.000 A 
ATOM     13  C   UNL     1      45.213   2.438   9.264  0.00  0.00    +0.000 A 
ATOM     14  C   UNL     1      45.842   1.582   8.366  0.00  0.00    +0.000 A 
ATOM     15  C   UNL     1      46.530   2.120   7.283  0.00  0.00    +0.000 A 
ATOM     16  C   UNL     1      46.560   3.501   7.138  0.00  0.00    +0.000 A 
ATOM     17  N   UNL     1      45.960   4.367   7.987  0.00  0.00    +0.000 NA
ENDBRANCH   9  12
ENDBRANCH   7  10
ENDBRANCH   1   7
BRANCH   4  18
ATOM     18  C   UNL     1      48.870   8.858  14.922  0.00  0.00    +0.000 C 
BRANCH  18  19
ATOM     19  N   UNL     1      48.971   8.050  16.115  0.00  0.00    +0.000 N 
ATOM     20  C   UNL     1      48.474   8.452  17.324  0.00  0.00    +0.000 C 
ATOM     21  O   UNL     1      47.927   9.542  17.473  0.00  0.00    +0.000 OA
ATOM     22  H   UNL     1      49.608   7.261  16.060  0.00  0.00    +0.000 HD
BRANCH  20  23
ATOM     23  C   UNL     1      48.560   7.483  18.425  0.00  0.00    +0.000 A 
ATOM     24  C   UNL     1      47.439   7.235  19.207  0.00  0.00    +0.000 A 
ATOM     25  S   UNL     1      47.691   6.053  20.411  0.00  0.00    +0.000 S 
ATOM     26  C   UNL     1      49.319   5.861  19.959  0.00  0.00    +0.000 A 
ATOM     27  N   UNL     1      50.132   4.997  20.625  0.00  0.00    +0.000 NA
ATOM     28  C   UNL     1      51.352   4.979  20.202  0.00  0.00    +0.000 A 
ATOM     29  N   UNL     1      51.830   5.739  19.167  0.00  0.00    +0.000 N 
ATOM     30  C   UNL     1      51.033   6.580  18.429  0.00  0.00    +0.000 A 
ATOM     31  O   UNL     1      51.471   7.170  17.447  0.00  0.00    +0.000 OA
ATOM     32  C   UNL     1      49.660   6.669  18.888  0.00  0.00    +0.000 A 
ATOM     33  H   UNL     1      52.792   5.663  18.868  0.00  0.00    +0.000 HD
ENDBRANCH  20  23
ENDBRANCH  18  19
ENDBRANCH   4  18
TORSDOF 6
ENDMDL
