MODEL 1
REMARK VINA RESULT:    -8.452      0.000      0.000
REMARK INTER + INTRA:         -13.261
REMARK INTER:                 -11.911
REMARK INTRA:                  -1.350
REMARK UNBOUND:                -1.350
REMARK  Name = 
REMARK  8 active torsions:
REMARK  status: ('A' for Active; 'I' for Inactive)
REMARK    1  A    between atoms: C_1  and  O_2
REMARK    2  A    between atoms: O_2  and  C_3
REMARK    3  A    between atoms: C_5  and  C_6
REMARK    4  A    between atoms: C_6  and  N_7
REMARK    5  A    between atoms: C_8  and  C_10
REMARK    6  A    between atoms: C_22  and  C_23
REMARK    7  A    between atoms: C_23  and  N_24
REMARK    8  A    between atoms: C_25  and  C_27
REMARK                            x       y       z     vdW  Elec       q    Type
REMARK                         _______ _______ _______ _____ _____    ______ ____
ROOT
ATOM      1  C   UNL     1      46.299   5.552  12.604  0.00  0.00    +0.000 A 
ATOM      2  C   UNL     1      47.212   6.346  13.329  0.00  0.00    +0.000 A 
ATOM      3  C   UNL     1      47.675   5.948  14.590  0.00  0.00    +0.000 A 
ATOM      4  C   UNL     1      47.170   4.757  15.084  0.00  0.00    +0.000 A 
ATOM      5  N   UNL     1      46.325   3.947  14.404  0.00  0.00    +0.000 NA
ATOM      6  C   UNL     1      45.909   4.327  13.161  0.00  0.00    +0.000 A 
ENDROOT
BRANCH   1   8
ATOM      7  C   UNL     1      44.929   7.042  11.338  0.00  0.00    +0.000 C 
ATOM      8  O   UNL     1      45.961   6.060  11.376  0.00  0.00    +0.000 OA
ENDBRANCH   1   8
BRANCH   3   9
ATOM      9  C   UNL     1      48.627   6.775  15.413  0.00  0.00    +0.000 C 
BRANCH   9  10
ATOM     10  N   UNL     1      49.685   5.968  15.974  0.00  0.00    +0.000 N 
ATOM     11  C   UNL     1      49.850   5.812  17.325  0.00  0.00    +0.000 C 
ATOM     12  O   UNL     1      49.094   6.324  18.144  0.00  0.00    +0.000 OA
ATOM     13  H   UNL     1      50.469   5.763  15.363  0.00  0.00    +0.000 HD
BRANCH  11  14
ATOM     14  C   UNL     1      50.970   4.948  17.749  0.00  0.00    +0.000 A 
ATOM     15  C   UNL     1      52.084   5.501  18.367  0.00  0.00    +0.000 A 
ATOM     16  S   UNL     1      53.253   4.346  18.830  0.00  0.00    +0.000 S 
ATOM     17  C   UNL     1      52.334   3.070  18.183  0.00  0.00    +0.000 A 
ATOM     18  N   UNL     1      52.779   1.786  18.220  0.00  0.00    +0.000 NA
ATOM     19  C   UNL     1      51.991   0.923  17.672  0.00  0.00    +0.000 A 
ATOM     20  N   UNL     1      50.788   1.232  17.090  0.00  0.00    +0.000 N 
ATOM     21  C   UNL     1      50.284   2.515  17.045  0.00  0.00    +0.000 A 
ATOM     22  O   UNL     1      49.186   2.744  16.560  0.00  0.00    +0.000 OA
ATOM     23  C   UNL     1      51.137   3.516  17.642  0.00  0.00    +0.000 A 
ATOM     24  H   UNL     1      50.209   0.512  16.687  0.00  0.00    +0.000 HD
ENDBRANCH  11  14
ENDBRANCH   9  10
ENDBRANCH   3   9
BRANCH   6  25
ATOM     25  C   UNL     1      45.046   3.303  12.446  0.00  0.00    +0.000 C 
BRANCH  25  26
ATOM     26  N   UNL     1      45.554   2.923  11.140  0.00  0.00    +0.000 N 
ATOM     27  C   UNL     1      44.827   3.077   9.978  0.00  0.00    +0.000 C 
ATOM     28  O   UNL     1      43.681   3.509   9.943  0.00  0.00    +0.000 OA
ATOM     29  H   UNL     1      46.543   2.715  11.021  0.00  0.00    +0.000 HD
BRANCH  27  30
ATOM     30  C   UNL     1      45.571   2.697   8.727  0.00  0.00    +0.000 A 
ATOM     31  C   UNL     1      45.729   3.615   7.695  0.00  0.00    +0.000 A 
ATOM     32  C   UNL     1      46.386   3.203   6.538  0.00  0.00    +0.000 A 
ATOM     33  C   UNL     1      46.862   1.898   6.453  0.00  0.00    +0.000 A 
ATOM     34  C   UNL     1      46.673   1.054   7.537  0.00  0.00    +0.000 A 
ATOM     35  N   UNL     1      46.044   1.419   8.677  0.00  0.00    +0.000 NA
ENDBRANCH  27  30
ENDBRANCH  25  26
ENDBRANCH   6  25
TORSDOF 7
ENDMDL
MODEL 2
REMARK VINA RESULT:    -8.215      2.418      2.815
REMARK INTER + INTRA:         -12.926
REMARK INTER:                 -11.965
REMARK INTRA:                  -0.961
REMARK UNBOUND:                -1.350
REMARK  Name = 
REMARK  8 active torsions:
REMARK  status: ('A' for Active; 'I' for Inactive)
REMARK    1  A    between atoms: C_1  and  O_2
REMARK    2  A    between atoms: O_2  and  C_3
REMARK    3  A    between atoms: C_5  and  C_6
REMARK    4  A    between atoms: C_6  and  N_7
REMARK    5  A    between atoms: C_8  and  C_10
REMARK    6  A    between atoms: C_22  and  C_23
REMARK    7  A    between atoms: C_23  and  N_24
REMARK    8  A    between atoms: C_25  and  C_27
REMARK                            x       y       z     vdW  Elec       q    Type
REMARK                         _______ _______ _______ _____ _____    ______ ____
ROOT
ATOM      1  C   UNL     1      44.561   7.695  11.558  0.00  0.00    +0.000 A 
ATOM      2  C   UNL     1      45.461   8.413  12.375  0.00  0.00    +0.000 A 
ATOM      3  C   UNL     1      46.541   7.773  12.996  0.00  0.00    +0.000 A 
ATOM      4  C   UNL     1      46.656   6.410  12.782  0.00  0.00    +0.000 A 
ATOM      5  N   UNL     1      45.839   5.693  11.975  0.00  0.00    +0.000 NA
ATOM      6  C   UNL     1      44.811   6.334  11.346  0.00  0.00    +0.000 A 
ENDROOT
BRANCH   1   8
ATOM      7  C   UNL     1      43.807   9.867  10.916  0.00  0.00    +0.000 C 
ATOM      8  O   UNL     1      43.573   8.464  10.999  0.00  0.00    +0.000 OA
ENDBRANCH   1   8
BRANCH   3   9
ATOM      9  C   UNL     1      47.511   8.490  13.897  0.00  0.00    +0.000 C 
BRANCH   9  10
ATOM     10  N   UNL     1      47.859   7.691  15.049  0.00  0.00    +0.000 N 
ATOM     11  C   UNL     1      49.039   7.002  15.133  0.00  0.00    +0.000 C 
ATOM     12  O   UNL     1      49.889   7.039  14.249  0.00  0.00    +0.000 OA
ATOM     13  H   UNL     1      47.094   7.419  15.658  0.00  0.00    +0.000 HD
BRANCH  11  14
ATOM     14  C   UNL     1      49.260   6.238  16.378  0.00  0.00    +0.000 A 
ATOM     15  C   UNL     1      50.245   6.632  17.274  0.00  0.00    +0.000 A 
ATOM     16  S   UNL     1      50.321   5.661  18.676  0.00  0.00    +0.000 S 
ATOM     17  C   UNL     1      49.071   4.652  18.117  0.00  0.00    +0.000 A 
ATOM     18  N   UNL     1      48.648   3.580  18.839  0.00  0.00    +0.000 NA
ATOM     19  C   UNL     1      47.710   2.889  18.285  0.00  0.00    +0.000 A 
ATOM     20  N   UNL     1      47.149   3.181  17.066  0.00  0.00    +0.000 N 
ATOM     21  C   UNL     1      47.529   4.267  16.307  0.00  0.00    +0.000 A 
ATOM     22  O   UNL     1      46.972   4.522  15.249  0.00  0.00    +0.000 OA
ATOM     23  C   UNL     1      48.583   5.066  16.887  0.00  0.00    +0.000 A 
ATOM     24  H   UNL     1      46.409   2.610  16.689  0.00  0.00    +0.000 HD
ENDBRANCH  11  14
ENDBRANCH   9  10
ENDBRANCH   3   9
BRANCH   6  25
ATOM     25  C   UNL     1      44.019   5.462  10.388  0.00  0.00    +0.000 C 
BRANCH  25  26
ATOM     26  N   UNL     1      44.848   4.697   9.474  0.00  0.00    +0.000 N 
ATOM     27  C   UNL     1      44.799   3.320   9.390  0.00  0.00    +0.000 C 
ATOM     28  O   UNL     1      44.088   2.619  10.098  0.00  0.00    +0.000 OA
ATOM     29  H   UNL     1      45.349   5.170   8.725  0.00  0.00    +0.000 HD
BRANCH  27  30
ATOM     30  C   UNL     1      45.681   2.734   8.321  0.00  0.00    +0.000 A 
ATOM     31  C   UNL     1      46.045   3.493   7.214  0.00  0.00    +0.000 A 
ATOM     32  C   UNL     1      46.825   2.893   6.228  0.00  0.00    +0.000 A 
ATOM     33  C   UNL     1      47.215   1.566   6.382  0.00  0.00    +0.000 A 
ATOM     34  C   UNL     1      46.818   0.890   7.526  0.00  0.00    +0.000 A 
ATOM     35  N   UNL     1      46.065   1.439   8.505  0.00  0.00    +0.000 NA
ENDBRANCH  27  30
ENDBRANCH  25  26
ENDBRANCH   6  25
TORSDOF 7
ENDMDL
MODEL 3
REMARK VINA RESULT:    -7.869      3.470      5.072
REMARK INTER + INTRA:         -12.438
REMARK INTER:                 -11.029
REMARK INTRA:                  -1.410
REMARK UNBOUND:                -1.350
REMARK  Name = 
REMARK  8 active torsions:
REMARK  status: ('A' for Active; 'I' for Inactive)
REMARK    1  A    between atoms: C_1  and  O_2
REMARK    2  A    between atoms: O_2  and  C_3
REMARK    3  A    between atoms: C_5  and  C_6
REMARK    4  A    between atoms: C_6  and  N_7
REMARK    5  A    between atoms: C_8  and  C_10
REMARK    6  A    between atoms: C_22  and  C_23
REMARK    7  A    between atoms: C_23  and  N_24
REMARK    8  A    between atoms: C_25  and  C_27
REMARK                            x       y       z     vdW  Elec       q    Type
REMARK                         _______ _______ _______ _____ _____    ______ ____
ROOT
ATOM      1  C   UNL     1      44.670   5.014  12.699  0.00  0.00    +0.000 A 
ATOM      2  C   UNL     1      45.619   5.546  13.597  0.00  0.00    +0.000 A 
ATOM      3  C   UNL     1      46.640   4.746  14.128  0.00  0.00    +0.000 A 
ATOM      4  C   UNL     1      46.646   3.417  13.741  0.00  0.00    +0.000 A 
ATOM      5  N   UNL     1      45.779   2.878  12.851  0.00  0.00    +0.000 NA
ATOM      6  C   UNL     1      44.811   3.674  12.313  0.00  0.00    +0.000 A 
ENDROOT
BRANCH   1   8
ATOM      7  C   UNL     1      44.244   7.025  11.487  0.00  0.00    +0.000 C 
ATOM      8  O   UNL     1      43.751   5.924  12.245  0.00  0.00    +0.000 OA
ENDBRANCH   1   8
BRANCH   3   9
ATOM      9  C   UNL     1      47.657   5.262  15.110  0.00  0.00    +0.000 C 
BRANCH   9  10
ATOM     10  N   UNL     1      48.006   6.637  14.843  0.00  0.00    +0.000 N 
ATOM     11  C   UNL     1      49.247   7.146  15.122  0.00  0.00    +0.000 C 
ATOM     12  O   UNL     1      50.150   6.460  15.590  0.00  0.00    +0.000 OA
ATOM     13  H   UNL     1      47.234   7.284  14.721  0.00  0.00    +0.000 HD
BRANCH  11  14
ATOM     14  C   UNL     1      49.459   8.568  14.784  0.00  0.00    +0.000 A 
ATOM     15  C   UNL     1      49.874   9.464  15.760  0.00  0.00    +0.000 A 
ATOM     16  S   UNL     1      50.114  11.049  15.175  0.00  0.00    +0.000 S 
ATOM     17  C   UNL     1      49.632  10.607  13.605  0.00  0.00    +0.000 A 
ATOM     18  N   UNL     1      49.581  11.516  12.596  0.00  0.00    +0.000 NA
ATOM     19  C   UNL     1      49.176  11.047  11.463  0.00  0.00    +0.000 A 
ATOM     20  N   UNL     1      48.819   9.740  11.249  0.00  0.00    +0.000 N 
ATOM     21  C   UNL     1      48.873   8.776  12.235  0.00  0.00    +0.000 A 
ATOM     22  O   UNL     1      48.593   7.611  11.992  0.00  0.00    +0.000 OA
ATOM     23  C   UNL     1      49.316   9.259  13.522  0.00  0.00    +0.000 A 
ATOM     24  H   UNL     1      48.521   9.428  10.338  0.00  0.00    +0.000 HD
ENDBRANCH  11  14
ENDBRANCH   9  10
ENDBRANCH   3   9
BRANCH   6  25
ATOM     25  C   UNL     1      43.958   2.999  11.254  0.00  0.00    +0.000 C 
BRANCH  25  26
ATOM     26  N   UNL     1      44.712   2.545  10.100  0.00  0.00    +0.000 N 
ATOM     27  C   UNL     1      45.050   3.374   9.050  0.00  0.00    +0.000 C 
ATOM     28  O   UNL     1      44.716   4.549   8.975  0.00  0.00    +0.000 OA
ATOM     29  H   UNL     1      45.187   1.645  10.126  0.00  0.00    +0.000 HD
BRANCH  27  30
ATOM     30  C   UNL     1      45.903   2.722   7.996  0.00  0.00    +0.000 A 
ATOM     31  C   UNL     1      46.226   3.405   6.829  0.00  0.00    +0.000 A 
ATOM     32  C   UNL     1      46.981   2.744   5.862  0.00  0.00    +0.000 A 
ATOM     33  C   UNL     1      47.387   1.434   6.094  0.00  0.00    +0.000 A 
ATOM     34  C   UNL     1      47.032   0.835   7.294  0.00  0.00    +0.000 A 
ATOM     35  N   UNL     1      46.305   1.445   8.257  0.00  0.00    +0.000 NA
ENDBRANCH  27  30
ENDBRANCH  25  26
ENDBRANCH   6  25
TORSDOF 7
ENDMDL
MODEL 4
REMARK VINA RESULT:    -7.869      2.594      3.587
REMARK INTER + INTRA:         -12.438
REMARK INTER:                 -11.475
REMARK INTRA:                  -0.964
REMARK UNBOUND:                -1.350
REMARK  Name = 
REMARK  8 active torsions:
REMARK  status: ('A' for Active; 'I' for Inactive)
REMARK    1  A    between atoms: C_1  and  O_2
REMARK    2  A    between atoms: O_2  and  C_3
REMARK    3  A    between atoms: C_5  and  C_6
REMARK    4  A    between atoms: C_6  and  N_7
REMARK    5  A    between atoms: C_8  and  C_10
REMARK    6  A    between atoms: C_22  and  C_23
REMARK    7  A    between atoms: C_23  and  N_24
REMARK    8  A    between atoms: C_25  and  C_27
REMARK                            x       y       z     vdW  Elec       q    Type
REMARK                         _______ _______ _______ _____ _____    ______ ____
ROOT
ATOM      1  C   UNL     1      44.938   5.709  12.188  0.00  0.00    +0.000 A 
ATOM      2  C   UNL     1      45.816   6.654  12.759  0.00  0.00    +0.000 A 
ATOM      3  C   UNL     1      46.911   6.247  13.534  0.00  0.00    +0.000 A 
ATOM      4  C   UNL     1      47.062   4.884  13.721  0.00  0.00    +0.000 A 
ATOM      5  N   UNL     1      46.266   3.945  13.158  0.00  0.00    +0.000 NA
ATOM      6  C   UNL     1      45.225   4.350  12.376  0.00  0.00    +0.000 A 
ENDROOT
BRANCH   1   8
ATOM      7  C   UNL     1      42.596   5.891  11.766  0.00  0.00    +0.000 C 
ATOM      8  O   UNL     1      43.932   6.258  11.435  0.00  0.00    +0.000 OA
ENDBRANCH   1   8
BRANCH   3   9
ATOM      9  C   UNL     1      47.859   7.219  14.186  0.00  0.00    +0.000 C 
BRANCH   9  10
ATOM     10  N   UNL     1      48.032   6.932  15.591  0.00  0.00    +0.000 N 
ATOM     11  C   UNL     1      49.257   6.653  16.136  0.00  0.00    +0.000 C 
ATOM     12  O   UNL     1      50.289   6.654  15.473  0.00  0.00    +0.000 OA
ATOM     13  H   UNL     1      47.200   6.657  16.102  0.00  0.00    +0.000 HD
BRANCH  11  14
ATOM     14  C   UNL     1      49.279   6.391  17.589  0.00  0.00    +0.000 A 
ATOM     15  C   UNL     1      49.881   5.241  18.083  0.00  0.00    +0.000 A 
ATOM     16  S   UNL     1      49.853   5.133  19.787  0.00  0.00    +0.000 S 
ATOM     17  C   UNL     1      48.998   6.597  19.925  0.00  0.00    +0.000 A 
ATOM     18  N   UNL     1      48.621   7.087  21.136  0.00  0.00    +0.000 NA
ATOM     19  C   UNL     1      47.959   8.194  21.091  0.00  0.00    +0.000 A 
ATOM     20  N   UNL     1      47.643   8.861  19.934  0.00  0.00    +0.000 N 
ATOM     21  C   UNL     1      48.020   8.416  18.685  0.00  0.00    +0.000 A 
ATOM     22  O   UNL     1      47.761   9.064  17.681  0.00  0.00    +0.000 OA
ATOM     23  C   UNL     1      48.759   7.175  18.687  0.00  0.00    +0.000 A 
ATOM     24  H   UNL     1      47.132   9.730  19.962  0.00  0.00    +0.000 HD
ENDBRANCH  11  14
ENDBRANCH   9  10
ENDBRANCH   3   9
BRANCH   6  25
ATOM     25  C   UNL     1      44.458   3.220  11.713  0.00  0.00    +0.000 C 
BRANCH  25  26
ATOM     26  N   UNL     1      45.112   2.686  10.532  0.00  0.00    +0.000 N 
ATOM     27  C   UNL     1      44.930   3.215   9.270  0.00  0.00    +0.000 C 
ATOM     28  O   UNL     1      44.178   4.149   9.024  0.00  0.00    +0.000 OA
ATOM     29  H   UNL     1      45.882   2.028  10.631  0.00  0.00    +0.000 HD
BRANCH  27  30
ATOM     30  C   UNL     1      45.765   2.564   8.200  0.00  0.00    +0.000 A 
ATOM     31  C   UNL     1      46.176   3.291   7.089  0.00  0.00    +0.000 A 
ATOM     32  C   UNL     1      46.909   2.634   6.103  0.00  0.00    +0.000 A 
ATOM     33  C   UNL     1      47.206   1.284   6.261  0.00  0.00    +0.000 A 
ATOM     34  C   UNL     1      46.769   0.642   7.409  0.00  0.00    +0.000 A 
ATOM     35  N   UNL     1      46.059   1.246   8.389  0.00  0.00    +0.000 NA
ENDBRANCH  27  30
ENDBRANCH  25  26
ENDBRANCH   6  25
TORSDOF 7
ENDMDL
MODEL 5
REMARK VINA RESULT:    -7.711      2.649      3.429
REMARK INTER + INTRA:         -12.217
REMARK INTER:                 -10.963
REMARK INTRA:                  -1.254
REMARK UNBOUND:                -1.350
REMARK  Name = 
REMARK  8 active torsions:
REMARK  status: ('A' for Active; 'I' for Inactive)
REMARK    1  A    between atoms: C_1  and  O_2
REMARK    2  A    between atoms: O_2  and  C_3
REMARK    3  A    between atoms: C_5  and  C_6
REMARK    4  A    between atoms: C_6  and  N_7
REMARK    5  A    between atoms: C_8  and  C_10
REMARK    6  A    between atoms: C_22  and  C_23
REMARK    7  A    between atoms: C_23  and  N_24
REMARK    8  A    between atoms: C_25  and  C_27
REMARK                            x       y       z     vdW  Elec       q    Type
REMARK                         _______ _______ _______ _____ _____    ______ ____
ROOT
ATOM      1  C   UNL     1      46.282   5.980  12.446  0.00  0.00    +0.000 A 
ATOM      2  C   UNL     1      46.950   6.885  13.298  0.00  0.00    +0.000 A 
ATOM      3  C   UNL     1      46.716   8.264  13.215  0.00  0.00    +0.000 A 
ATOM      4  C   UNL     1      45.821   8.680  12.245  0.00  0.00    +0.000 A 
ATOM      5  N   UNL     1      45.129   7.843  11.437  0.00  0.00    +0.000 NA
ATOM      6  C   UNL     1      45.338   6.499  11.550  0.00  0.00    +0.000 A 
ENDROOT
BRANCH   1   8
ATOM      7  C   UNL     1      46.751   4.248  14.019  0.00  0.00    +0.000 C 
ATOM      8  O   UNL     1      46.595   4.664  12.665  0.00  0.00    +0.000 OA
ENDBRANCH   1   8
BRANCH   3   9
ATOM      9  C   UNL     1      47.425   9.269  14.083  0.00  0.00    +0.000 C 
BRANCH   9  10
ATOM     10  N   UNL     1      47.490   8.834  15.459  0.00  0.00    +0.000 N 
ATOM     11  C   UNL     1      48.665   8.454  16.052  0.00  0.00    +0.000 C 
ATOM     12  O   UNL     1      49.741   8.485  15.463  0.00  0.00    +0.000 OA
ATOM     13  H   UNL     1      46.617   8.538  15.881  0.00  0.00    +0.000 HD
BRANCH  11  14
ATOM     14  C   UNL     1      48.577   8.044  17.468  0.00  0.00    +0.000 A 
ATOM     15  C   UNL     1      48.289   8.982  18.450  0.00  0.00    +0.000 A 
ATOM     16  S   UNL     1      48.179   8.316  20.019  0.00  0.00    +0.000 S 
ATOM     17  C   UNL     1      48.555   6.759  19.449  0.00  0.00    +0.000 A 
ATOM     18  N   UNL     1      48.653   5.698  20.294  0.00  0.00    +0.000 NA
ATOM     19  C   UNL     1      48.967   4.581  19.729  0.00  0.00    +0.000 A 
ATOM     20  N   UNL     1      49.188   4.429  18.383  0.00  0.00    +0.000 N 
ATOM     21  C   UNL     1      49.081   5.468  17.483  0.00  0.00    +0.000 A 
ATOM     22  O   UNL     1      49.238   5.283  16.285  0.00  0.00    +0.000 OA
ATOM     23  C   UNL     1      48.737   6.741  18.074  0.00  0.00    +0.000 A 
ATOM     24  H   UNL     1      49.419   3.527  17.997  0.00  0.00    +0.000 HD
ENDBRANCH  11  14
ENDBRANCH   9  10
ENDBRANCH   3   9
BRANCH   6  25
ATOM     25  C   UNL     1      44.442   5.647  10.670  0.00  0.00    +0.000 C 
BRANCH  25  26
ATOM     26  N   UNL     1      45.170   4.812   9.732  0.00  0.00    +0.000 N 
ATOM     27  C   UNL     1      44.829   3.500   9.473  0.00  0.00    +0.000 C 
ATOM     28  O   UNL     1      43.914   2.910  10.034  0.00  0.00    +0.000 OA
ATOM     29  H   UNL     1      45.835   5.233   9.087  0.00  0.00    +0.000 HD
BRANCH  27  30
ATOM     30  C   UNL     1      45.663   2.842   8.407  0.00  0.00    +0.000 A 
ATOM     31  C   UNL     1      46.041   3.550   7.272  0.00  0.00    +0.000 A 
ATOM     32  C   UNL     1      46.775   2.886   6.291  0.00  0.00    +0.000 A 
ATOM     33  C   UNL     1      47.106   1.548   6.478  0.00  0.00    +0.000 A 
ATOM     34  C   UNL     1      46.700   0.924   7.649  0.00  0.00    +0.000 A 
ATOM     35  N   UNL     1      45.991   1.537   8.624  0.00  0.00    +0.000 NA
ENDBRANCH  27  30
ENDBRANCH  25  26
ENDBRANCH   6  25
TORSDOF 7
ENDMDL
MODEL 6
REMARK VINA RESULT:    -7.553      4.280      5.657
REMARK INTER + INTRA:         -11.993
REMARK INTER:                 -10.690
REMARK INTRA:                  -1.303
REMARK UNBOUND:                -1.350
REMARK  Name = 
REMARK  8 active torsions:
REMARK  status: ('A' for Active; 'I' for Inactive)
REMARK    1  A    between atoms: C_1  and  O_2
REMARK    2  A    between atoms: O_2  and  C_3
REMARK    3  A    between atoms: C_5  and  C_6
REMARK    4  A    between atoms: C_6  and  N_7
REMARK    5  A    between atoms: C_8  and  C_10
REMARK    6  A    between atoms: C_22  and  C_23
REMARK    7  A    between atoms: C_23  and  N_24
REMARK    8  A    between atoms: C_25  and  C_27
REMARK                            x       y       z     vdW  Elec       q    Type
REMARK                         _______ _______ _______ _____ _____    ______ ____
ROOT
ATOM      1  C   UNL     1      45.798   5.081  12.913  0.00  0.00    +0.000 A 
ATOM      2  C   UNL     1      46.124   6.386  13.341  0.00  0.00    +0.000 A 
ATOM      3  C   UNL     1      45.478   7.506  12.802  0.00  0.00    +0.000 A 
ATOM      4  C   UNL     1      44.532   7.259  11.822  0.00  0.00    +0.000 A 
ATOM      5  N   UNL     1      44.161   6.023  11.414  0.00  0.00    +0.000 NA
ATOM      6  C   UNL     1      44.771   4.937  11.971  0.00  0.00    +0.000 A 
ENDROOT
BRANCH   1   8
ATOM      7  C   UNL     1      47.065   4.404  14.820  0.00  0.00    +0.000 C 
ATOM      8  O   UNL     1      46.495   4.088  13.553  0.00  0.00    +0.000 OA
ENDBRANCH   1   8
BRANCH   3   9
ATOM      9  C   UNL     1      45.811   8.917  13.206  0.00  0.00    +0.000 C 
BRANCH   9  10
ATOM     10  N   UNL     1      47.222   9.193  13.066  0.00  0.00    +0.000 N 
ATOM     11  C   UNL     1      47.706  10.090  12.151  0.00  0.00    +0.000 C 
ATOM     12  O   UNL     1      46.972  10.736  11.409  0.00  0.00    +0.000 OA
ATOM     13  H   UNL     1      47.857   8.503  13.451  0.00  0.00    +0.000 HD
BRANCH  11  14
ATOM     14  C   UNL     1      49.171  10.274  12.132  0.00  0.00    +0.000 A 
ATOM     15  C   UNL     1      49.724  11.505  12.461  0.00  0.00    +0.000 A 
ATOM     16  S   UNL     1      51.431  11.516  12.432  0.00  0.00    +0.000 S 
ATOM     17  C   UNL     1      51.493   9.890  11.938  0.00  0.00    +0.000 A 
ATOM     18  N   UNL     1      52.677   9.266  11.699  0.00  0.00    +0.000 NA
ATOM     19  C   UNL     1      52.574   8.040  11.307  0.00  0.00    +0.000 A 
ATOM     20  N   UNL     1      51.384   7.378  11.137  0.00  0.00    +0.000 N 
ATOM     21  C   UNL     1      50.159   7.961  11.385  0.00  0.00    +0.000 A 
ATOM     22  O   UNL     1      49.123   7.323  11.268  0.00  0.00    +0.000 OA
ATOM     23  C   UNL     1      50.226   9.337  11.820  0.00  0.00    +0.000 A 
ATOM     24  H   UNL     1      51.367   6.415  10.840  0.00  0.00    +0.000 HD
ENDBRANCH  11  14
ENDBRANCH   9  10
ENDBRANCH   3   9
BRANCH   6  25
ATOM     25  C   UNL     1      44.214   3.601  11.518  0.00  0.00    +0.000 C 
BRANCH  25  26
ATOM     26  N   UNL     1      44.974   2.985  10.445  0.00  0.00    +0.000 N 
ATOM     27  C   UNL     1      44.866   3.378   9.127  0.00  0.00    +0.000 C 
ATOM     28  O   UNL     1      44.097   4.247   8.736  0.00  0.00    +0.000 OA
ATOM     29  H   UNL     1      45.760   2.377  10.664  0.00  0.00    +0.000 HD
BRANCH  27  30
ATOM     30  C   UNL     1      45.803   2.666   8.190  0.00  0.00    +0.000 A 
ATOM     31  C   UNL     1      46.374   3.341   7.117  0.00  0.00    +0.000 A 
ATOM     32  C   UNL     1      47.199   2.628   6.250  0.00  0.00    +0.000 A 
ATOM     33  C   UNL     1      47.427   1.276   6.485  0.00  0.00    +0.000 A 
ATOM     34  C   UNL     1      46.828   0.687   7.588  0.00  0.00    +0.000 A 
ATOM     35  N   UNL     1      46.024   1.346   8.453  0.00  0.00    +0.000 NA
ENDBRANCH  27  30
ENDBRANCH  25  26
ENDBRANCH   6  25
TORSDOF 7
ENDMDL
MODEL 7
REMARK VINA RESULT:    -7.473      3.354      4.089
REMARK INTER + INTRA:         -11.881
REMARK INTER:                 -10.890
REMARK INTRA:                  -0.991
REMARK UNBOUND:                -1.350
REMARK  Name = 
REMARK  8 active torsions:
REMARK  status: ('A' for Active; 'I' for Inactive)
REMARK    1  A    between atoms: C_1  and  O_2
REMARK    2  A    between atoms: O_2  and  C_3
REMARK    3  A    between atoms: C_5  and  C_6
REMARK    4  A    between atoms: C_6  and  N_7
REMARK    5  A    between atoms: C_8  and  C_10
REMARK    6  A    between atoms: C_22  and  C_23
REMARK    7  A    between atoms: C_23  and  N_24
REMARK    8  A    between atoms: C_25  and  C_27
REMARK                            x       y       z     vdW  Elec       q    Type
REMARK                         _______ _______ _______ _____ _____    ______ ____
ROOT
ATOM      1  C   UNL     1      45.169   7.717  11.836  0.00  0.00    +0.000 A 
ATOM      2  C   UNL     1      46.142   8.430  12.568  0.00  0.00    +0.000 A 
ATOM      3  C   UNL     1      47.196   7.766  13.210  0.00  0.00    +0.000 A 
ATOM      4  C   UNL     1      47.210   6.386  13.103  0.00  0.00    +0.000 A 
ATOM      5  N   UNL     1      46.320   5.668  12.377  0.00  0.00    +0.000 NA
ATOM      6  C   UNL     1      45.319   6.328  11.727  0.00  0.00    +0.000 A 
ENDROOT
BRANCH   1   8
ATOM      7  C   UNL     1      44.344   9.916  11.414  0.00  0.00    +0.000 C 
ATOM      8  O   UNL     1      44.219   8.508  11.243  0.00  0.00    +0.000 OA
ENDBRANCH   1   8
BRANCH   3   9
ATOM      9  C   UNL     1      48.240   8.481  14.024  0.00  0.00    +0.000 C 
BRANCH   9  10
ATOM     10  N   UNL     1      47.929   8.451  15.434  0.00  0.00    +0.000 N 
ATOM     11  C   UNL     1      48.453   9.355  16.320  0.00  0.00    +0.000 C 
ATOM     12  O   UNL     1      49.198  10.265  15.969  0.00  0.00    +0.000 OA
ATOM     13  H   UNL     1      47.555   7.580  15.796  0.00  0.00    +0.000 HD
BRANCH  11  14
ATOM     14  C   UNL     1      48.035   9.206  17.728  0.00  0.00    +0.000 A 
ATOM     15  C   UNL     1      47.568  10.304  18.439  0.00  0.00    +0.000 A 
ATOM     16  S   UNL     1      47.085   9.931  20.033  0.00  0.00    +0.000 S 
ATOM     17  C   UNL     1      47.522   8.297  19.846  0.00  0.00    +0.000 A 
ATOM     18  N   UNL     1      47.388   7.407  20.865  0.00  0.00    +0.000 NA
ATOM     19  C   UNL     1      47.780   6.208  20.592  0.00  0.00    +0.000 A 
ATOM     20  N   UNL     1      48.292   5.817  19.380  0.00  0.00    +0.000 N 
ATOM     21  C   UNL     1      48.427   6.677  18.311  0.00  0.00    +0.000 A 
ATOM     22  O   UNL     1      48.842   6.280  17.231  0.00  0.00    +0.000 OA
ATOM     23  C   UNL     1      48.007   8.034  18.574  0.00  0.00    +0.000 A 
ATOM     24  H   UNL     1      48.570   4.862  19.221  0.00  0.00    +0.000 HD
ENDBRANCH  11  14
ENDBRANCH   9  10
ENDBRANCH   3   9
BRANCH   6  25
ATOM     25  C   UNL     1      44.439   5.443  10.863  0.00  0.00    +0.000 C 
BRANCH  25  26
ATOM     26  N   UNL     1      45.176   4.661   9.887  0.00  0.00    +0.000 N 
ATOM     27  C   UNL     1      44.813   3.382   9.521  0.00  0.00    +0.000 C 
ATOM     28  O   UNL     1      43.867   2.776  10.009  0.00  0.00    +0.000 OA
ATOM     29  H   UNL     1      45.871   5.112   9.296  0.00  0.00    +0.000 HD
BRANCH  27  30
ATOM     30  C   UNL     1      45.664   2.783   8.435  0.00  0.00    +0.000 A 
ATOM     31  C   UNL     1      46.040   3.546   7.334  0.00  0.00    +0.000 A 
ATOM     32  C   UNL     1      46.791   2.936   6.332  0.00  0.00    +0.000 A 
ATOM     33  C   UNL     1      47.141   1.595   6.463  0.00  0.00    +0.000 A 
ATOM     34  C   UNL     1      46.736   0.916   7.603  0.00  0.00    +0.000 A 
ATOM     35  N   UNL     1      46.010   1.475   8.597  0.00  0.00    +0.000 NA
ENDBRANCH  27  30
ENDBRANCH  25  26
ENDBRANCH   6  25
TORSDOF 7
ENDMDL
MODEL 8
REMARK VINA RESULT:    -7.442      3.691      4.637
REMARK INTER + INTRA:         -11.837
REMARK INTER:                 -10.508
REMARK INTRA:                  -1.328
REMARK UNBOUND:                -1.350
REMARK  Name = 
REMARK  8 active torsions:
REMARK  status: ('A' for Active; 'I' for Inactive)
REMARK    1  A    between atoms: C_1  and  O_2
REMARK    2  A    between atoms: O_2  and  C_3
REMARK    3  A    between atoms: C_5  and  C_6
REMARK    4  A    between atoms: C_6  and  N_7
REMARK    5  A    between atoms: C_8  and  C_10
REMARK    6  A    between atoms: C_22  and  C_23
REMARK    7  A    between atoms: C_23  and  N_24
REMARK    8  A    between atoms: C_25  and  C_27
REMARK                            x       y       z     vdW  Elec       q    Type
REMARK                         _______ _______ _______ _____ _____    ______ ____
ROOT
ATOM      1  C   UNL     1      45.120   5.403  12.668  0.00  0.00    +0.000 A 
ATOM      2  C   UNL     1      46.072   6.128  13.415  0.00  0.00    +0.000 A 
ATOM      3  C   UNL     1      47.090   5.472  14.120  0.00  0.00    +0.000 A 
ATOM      4  C   UNL     1      47.090   4.089  14.057  0.00  0.00    +0.000 A 
ATOM      5  N   UNL     1      46.221   3.359  13.319  0.00  0.00    +0.000 NA
ATOM      6  C   UNL     1      45.256   4.010  12.608  0.00  0.00    +0.000 A 
ENDROOT
BRANCH   1   8
ATOM      7  C   UNL     1      44.693   7.356  11.364  0.00  0.00    +0.000 C 
ATOM      8  O   UNL     1      44.204   6.186  12.012  0.00  0.00    +0.000 OA
ENDBRANCH   1   8
BRANCH   3   9
ATOM      9  C   UNL     1      48.111   6.200  14.953  0.00  0.00    +0.000 C 
BRANCH   9  10
ATOM     10  N   UNL     1      49.166   6.756  14.138  0.00  0.00    +0.000 N 
ATOM     11  C   UNL     1      49.196   8.077  13.779  0.00  0.00    +0.000 C 
ATOM     12  O   UNL     1      48.344   8.880  14.148  0.00  0.00    +0.000 OA
ATOM     13  H   UNL     1      49.717   6.095  13.600  0.00  0.00    +0.000 HD
BRANCH  11  14
ATOM     14  C   UNL     1      50.343   8.502  12.953  0.00  0.00    +0.000 A 
ATOM     15  C   UNL     1      50.139   8.976  11.664  0.00  0.00    +0.000 A 
ATOM     16  S   UNL     1      51.574   9.465  10.880  0.00  0.00    +0.000 S 
ATOM     17  C   UNL     1      52.527   9.022  12.218  0.00  0.00    +0.000 A 
ATOM     18  N   UNL     1      53.879   9.157  12.202  0.00  0.00    +0.000 NA
ATOM     19  C   UNL     1      54.477   8.760  13.274  0.00  0.00    +0.000 A 
ATOM     20  N   UNL     1      53.836   8.241  14.371  0.00  0.00    +0.000 N 
ATOM     21  C   UNL     1      52.466   8.103  14.444  0.00  0.00    +0.000 A 
ATOM     22  O   UNL     1      51.928   7.682  15.458  0.00  0.00    +0.000 OA
ATOM     23  C   UNL     1      51.756   8.530  13.261  0.00  0.00    +0.000 A 
ATOM     24  H   UNL     1      54.356   7.958  15.187  0.00  0.00    +0.000 HD
ENDBRANCH  11  14
ENDBRANCH   9  10
ENDBRANCH   3   9
BRANCH   6  25
ATOM     25  C   UNL     1      44.399   3.108  11.739  0.00  0.00    +0.000 C 
BRANCH  25  26
ATOM     26  N   UNL     1      45.062   2.666  10.525  0.00  0.00    +0.000 N 
ATOM     27  C   UNL     1      44.909   3.303   9.311  0.00  0.00    +0.000 C 
ATOM     28  O   UNL     1      44.175   4.268   9.135  0.00  0.00    +0.000 OA
ATOM     29  H   UNL     1      45.820   1.989  10.579  0.00  0.00    +0.000 HD
BRANCH  27  30
ATOM     30  C   UNL     1      45.749   2.732   8.202  0.00  0.00    +0.000 A 
ATOM     31  C   UNL     1      46.030   3.489   7.070  0.00  0.00    +0.000 A 
ATOM     32  C   UNL     1      46.775   2.902   6.049  0.00  0.00    +0.000 A 
ATOM     33  C   UNL     1      47.213   1.590   6.194  0.00  0.00    +0.000 A 
ATOM     34  C   UNL     1      46.900   0.915   7.364  0.00  0.00    +0.000 A 
ATOM     35  N   UNL     1      46.183   1.452   8.377  0.00  0.00    +0.000 NA
ENDBRANCH  27  30
ENDBRANCH  25  26
ENDBRANCH   6  25
TORSDOF 7
ENDMDL
MODEL 9
REMARK VINA RESULT:    -7.299      1.571      2.126
REMARK INTER + INTRA:         -11.636
REMARK INTER:                 -10.250
REMARK INTRA:                  -1.386
REMARK UNBOUND:                -1.350
REMARK  Name = 
REMARK  8 active torsions:
REMARK  status: ('A' for Active; 'I' for Inactive)
REMARK    1  A    between atoms: C_1  and  O_2
REMARK    2  A    between atoms: O_2  and  C_3
REMARK    3  A    between atoms: C_5  and  C_6
REMARK    4  A    between atoms: C_6  and  N_7
REMARK    5  A    between atoms: C_8  and  C_10
REMARK    6  A    between atoms: C_22  and  C_23
REMARK    7  A    between atoms: C_23  and  N_24
REMARK    8  A    between atoms: C_25  and  C_27
REMARK                            x       y       z     vdW  Elec       q    Type
REMARK                         _______ _______ _______ _____ _____    ______ ____
ROOT
ATOM      1  C   UNL     1      46.510   5.885  13.088  0.00  0.00    +0.000 A 
ATOM      2  C   UNL     1      47.318   6.304  14.166  0.00  0.00    +0.000 A 
ATOM      3  C   UNL     1      47.861   7.595  14.203  0.00  0.00    +0.000 A 
ATOM      4  C   UNL     1      47.580   8.413  13.123  0.00  0.00    +0.000 A 
ATOM      5  N   UNL     1      46.777   8.064  12.090  0.00  0.00    +0.000 NA
ATOM      6  C   UNL     1      46.224   6.817  12.082  0.00  0.00    +0.000 A 
ENDROOT
BRANCH   1   8
ATOM      7  C   UNL     1      46.949   3.602  13.630  0.00  0.00    +0.000 C 
ATOM      8  O   UNL     1      46.030   4.606  13.208  0.00  0.00    +0.000 OA
ENDBRANCH   1   8
BRANCH   3   9
ATOM      9  C   UNL     1      48.751   8.078  15.317  0.00  0.00    +0.000 C 
BRANCH   9  10
ATOM     10  N   UNL     1      49.666   7.049  15.753  0.00  0.00    +0.000 N 
ATOM     11  C   UNL     1      50.007   6.881  17.069  0.00  0.00    +0.000 C 
ATOM     12  O   UNL     1      49.538   7.575  17.965  0.00  0.00    +0.000 OA
ATOM     13  H   UNL     1      50.269   6.649  15.042  0.00  0.00    +0.000 HD
BRANCH  11  14
ATOM     14  C   UNL     1      50.945   5.779  17.363  0.00  0.00    +0.000 A 
ATOM     15  C   UNL     1      52.249   6.056  17.750  0.00  0.00    +0.000 A 
ATOM     16  S   UNL     1      53.171   4.661  18.095  0.00  0.00    +0.000 S 
ATOM     17  C   UNL     1      51.874   3.634  17.699  0.00  0.00    +0.000 A 
ATOM     18  N   UNL     1      51.998   2.281  17.754  0.00  0.00    +0.000 NA
ATOM     19  C   UNL     1      50.943   1.625  17.404  0.00  0.00    +0.000 A 
ATOM     20  N   UNL     1      49.765   2.207  17.007  0.00  0.00    +0.000 N 
ATOM     21  C   UNL     1      49.583   3.573  16.955  0.00  0.00    +0.000 A 
ATOM     22  O   UNL     1      48.504   4.053  16.642  0.00  0.00    +0.000 OA
ATOM     23  C   UNL     1      50.742   4.348  17.332  0.00  0.00    +0.000 A 
ATOM     24  H   UNL     1      48.969   1.642  16.757  0.00  0.00    +0.000 HD
ENDBRANCH  11  14
ENDBRANCH   9  10
ENDBRANCH   3   9
BRANCH   6  25
ATOM     25  C   UNL     1      45.262   6.562  10.935  0.00  0.00    +0.000 C 
BRANCH  25  26
ATOM     26  N   UNL     1      45.716   5.540  10.010  0.00  0.00    +0.000 N 
ATOM     27  C   UNL     1      44.952   4.443   9.669  0.00  0.00    +0.000 C 
ATOM     28  O   UNL     1      43.846   4.210  10.141  0.00  0.00    +0.000 OA
ATOM     29  H   UNL     1      46.535   5.708   9.429  0.00  0.00    +0.000 HD
BRANCH  27  30
ATOM     30  C   UNL     1      45.577   3.551   8.631  0.00  0.00    +0.000 A 
ATOM     31  C   UNL     1      45.678   2.182   8.848  0.00  0.00    +0.000 A 
ATOM     32  C   UNL     1      46.305   1.402   7.878  0.00  0.00    +0.000 A 
ATOM     33  C   UNL     1      46.805   2.013   6.732  0.00  0.00    +0.000 A 
ATOM     34  C   UNL     1      46.647   3.384   6.592  0.00  0.00    +0.000 A 
ATOM     35  N   UNL     1      46.041   4.172   7.509  0.00  0.00    +0.000 NA
ENDBRANCH  27  30
ENDBRANCH  25  26
ENDBRANCH   6  25
TORSDOF 7
ENDMDL
