MODEL 1
REMARK VINA RESULT:    -8.075      0.000      0.000
REMARK INTER + INTRA:         -11.844
REMARK INTER:                 -10.908
REMARK INTRA:                  -0.937
REMARK UNBOUND:                -0.937
REMARK  Name = 
REMARK  6 active torsions:
REMARK  status: ('A' for Active; 'I' for Inactive)
REMARK    1  A    between atoms: C_2  and  C_4
REMARK    2  A    between atoms: C_2  and  C_14
REMARK    3  A    between atoms: C_4  and  O_5
REMARK    4  A    between atoms: O_5  and  C_6
REMARK    5  A    between atoms: C_18  and  C_19
REMARK    6  A    between atoms: C_19  and  C_20
REMARK                            x       y       z     vdW  Elec       q    Type
REMARK                         _______ _______ _______ _____ _____    ______ ____
ROOT
ATOM      1  F   UNL     1      43.434   4.091  13.253  0.00  0.00    +0.000 F 
ATOM      2  C   UNL     1      44.426   3.970  12.324  0.00  0.00    +0.000 C 
ATOM      3  F   UNL     1      44.741   2.640  12.293  0.00  0.00    +0.000 F 
ENDROOT
BRANCH   2   4
ATOM      4  C   UNL     1      45.629   4.838  12.674  0.00  0.00    +0.000 A 
ATOM      5  C   UNL     1      46.066   5.839  11.791  0.00  0.00    +0.000 A 
ATOM      6  C   UNL     1      47.169   6.632  12.105  0.00  0.00    +0.000 A 
ATOM      7  C   UNL     1      47.830   6.463  13.321  0.00  0.00    +0.000 A 
ATOM      8  C   UNL     1      47.398   5.498  14.236  0.00  0.00    +0.000 A 
ATOM      9  C   UNL     1      46.313   4.671  13.891  0.00  0.00    +0.000 A 
BRANCH   8  10
ATOM     10  C   UNL     1      48.035   5.392  15.603  0.00  0.00    +0.000 C 
BRANCH  10  11
ATOM     11  C   UNL     1      47.335   4.371  16.483  0.00  0.00    +0.000 C 
ATOM     12  C   UNL     1      47.458   4.676  17.983  0.00  0.00    +0.000 C 
ATOM     13  O   UNL     1      48.070   3.396  18.247  0.00  0.00    +0.000 OA
ATOM     14  C   UNL     1      48.088   3.080  16.836  0.00  0.00    +0.000 C 
ENDBRANCH  10  11
ENDBRANCH   8  10
ENDBRANCH   2   4
BRANCH   2  15
ATOM     15  C   UNL     1      43.870   4.364  10.942  0.00  0.00    +0.000 C 
BRANCH  15  16
ATOM     16  O   UNL     1      43.699   3.230  10.071  0.00  0.00    +0.000 OA
BRANCH  16  17
ATOM     17  C   UNL     1      44.669   3.095   9.116  0.00  0.00    +0.000 A 
ATOM     18  C   UNL     1      45.193   4.125   8.337  0.00  0.00    +0.000 A 
ATOM     19  N   UNL     1      46.146   3.959   7.391  0.00  0.00    +0.000 NA
ATOM     20  C   UNL     1      46.616   2.702   7.224  0.00  0.00    +0.000 A 
ATOM     21 CL   UNL     1      47.808   2.604   5.987  0.00  0.00    +0.000 Cl
ATOM     22  C   UNL     1      46.182   1.606   7.962  0.00  0.00    +0.000 A 
ATOM     23 CL   UNL     1      46.796   0.013   7.728  0.00  0.00    +0.000 Cl
ATOM     24  C   UNL     1      45.198   1.815   8.930  0.00  0.00    +0.000 A 
ENDBRANCH  16  17
ENDBRANCH  15  16
ENDBRANCH   2  15
TORSDOF 6
ENDMDL
MODEL 2
REMARK VINA RESULT:    -7.725      2.388      3.618
REMARK INTER + INTRA:         -11.372
REMARK INTER:                 -10.455
REMARK INTRA:                  -0.917
REMARK UNBOUND:                -0.937
REMARK  Name = 
REMARK  6 active torsions:
REMARK  status: ('A' for Active; 'I' for Inactive)
REMARK    1  A    between atoms: C_2  and  C_4
REMARK    2  A    between atoms: C_2  and  C_14
REMARK    3  A    between atoms: C_4  and  O_5
REMARK    4  A    between atoms: O_5  and  C_6
REMARK    5  A    between atoms: C_18  and  C_19
REMARK    6  A    between atoms: C_19  and  C_20
REMARK                            x       y       z     vdW  Elec       q    Type
REMARK                         _______ _______ _______ _____ _____    ______ ____
ROOT
ATOM      1  F   UNL     1      43.469   5.489  11.208  0.00  0.00    +0.000 F 
ATOM      2  C   UNL     1      44.042   4.647  12.117  0.00  0.00    +0.000 C 
ATOM      3  F   UNL     1      43.136   4.531  13.134  0.00  0.00    +0.000 F 
ENDROOT
BRANCH   2   4
ATOM      4  C   UNL     1      45.386   5.178  12.601  0.00  0.00    +0.000 A 
ATOM      5  C   UNL     1      45.979   4.662  13.765  0.00  0.00    +0.000 A 
ATOM      6  C   UNL     1      47.206   5.149  14.213  0.00  0.00    +0.000 A 
ATOM      7  C   UNL     1      47.879   6.131  13.487  0.00  0.00    +0.000 A 
ATOM      8  C   UNL     1      47.330   6.641  12.305  0.00  0.00    +0.000 A 
ATOM      9  C   UNL     1      46.070   6.178  11.885  0.00  0.00    +0.000 A 
BRANCH   8  10
ATOM     10  C   UNL     1      48.109   7.616  11.453  0.00  0.00    +0.000 C 
BRANCH  10  11
ATOM     11  C   UNL     1      49.472   7.930  12.045  0.00  0.00    +0.000 C 
ATOM     12  C   UNL     1      49.869   9.408  11.905  0.00  0.00    +0.000 C 
ATOM     13  O   UNL     1      51.074   9.071  11.186  0.00  0.00    +0.000 OA
ATOM     14  C   UNL     1      50.716   7.670  11.182  0.00  0.00    +0.000 C 
ENDBRANCH  10  11
ENDBRANCH   8  10
ENDBRANCH   2   4
BRANCH   2  15
ATOM     15  C   UNL     1      44.220   3.259  11.472  0.00  0.00    +0.000 C 
BRANCH  15  16
ATOM     16  O   UNL     1      43.724   3.209  10.120  0.00  0.00    +0.000 OA
BRANCH  16  17
ATOM     17  C   UNL     1      44.694   3.082   9.163  0.00  0.00    +0.000 A 
ATOM     18  C   UNL     1      45.248   4.124   8.422  0.00  0.00    +0.000 A 
ATOM     19  N   UNL     1      46.199   3.966   7.474  0.00  0.00    +0.000 NA
ATOM     20  C   UNL     1      46.635   2.703   7.263  0.00  0.00    +0.000 A 
ATOM     21 CL   UNL     1      47.828   2.616   6.026  0.00  0.00    +0.000 Cl
ATOM     22  C   UNL     1      46.169   1.594   7.961  0.00  0.00    +0.000 A 
ATOM     23 CL   UNL     1      46.740  -0.006   7.672  0.00  0.00    +0.000 Cl
ATOM     24  C   UNL     1      45.188   1.795   8.933  0.00  0.00    +0.000 A 
ENDBRANCH  16  17
ENDBRANCH  15  16
ENDBRANCH   2  15
TORSDOF 6
ENDMDL
MODEL 3
REMARK VINA RESULT:    -7.555      2.662      4.477
REMARK INTER + INTRA:         -11.142
REMARK INTER:                 -10.293
REMARK INTRA:                  -0.850
REMARK UNBOUND:                -0.937
REMARK  Name = 
REMARK  6 active torsions:
REMARK  status: ('A' for Active; 'I' for Inactive)
REMARK    1  A    between atoms: C_2  and  C_4
REMARK    2  A    between atoms: C_2  and  C_14
REMARK    3  A    between atoms: C_4  and  O_5
REMARK    4  A    between atoms: O_5  and  C_6
REMARK    5  A    between atoms: C_18  and  C_19
REMARK    6  A    between atoms: C_19  and  C_20
REMARK                            x       y       z     vdW  Elec       q    Type
REMARK                         _______ _______ _______ _____ _____    ______ ____
ROOT
ATOM      1  F   UNL     1      43.101   4.365  13.017  0.00  0.00    +0.000 F 
ATOM      2  C   UNL     1      44.182   4.343  12.185  0.00  0.00    +0.000 C 
ATOM      3  F   UNL     1      44.782   3.132  12.393  0.00  0.00    +0.000 F 
ENDROOT
BRANCH   2   4
ATOM      4  C   UNL     1      45.125   5.507  12.462  0.00  0.00    +0.000 A 
ATOM      5  C   UNL     1      46.487   5.277  12.716  0.00  0.00    +0.000 A 
ATOM      6  C   UNL     1      47.351   6.341  12.975  0.00  0.00    +0.000 A 
ATOM      7  C   UNL     1      46.878   7.652  12.948  0.00  0.00    +0.000 A 
ATOM      8  C   UNL     1      45.533   7.916  12.664  0.00  0.00    +0.000 A 
ATOM      9  C   UNL     1      44.658   6.834  12.450  0.00  0.00    +0.000 A 
BRANCH   8  10
ATOM     10  C   UNL     1      45.042   9.337  12.515  0.00  0.00    +0.000 C 
BRANCH  10  11
ATOM     11  C   UNL     1      44.706   9.678  11.073  0.00  0.00    +0.000 C 
ATOM     12  C   UNL     1      44.880  11.168  10.745  0.00  0.00    +0.000 C 
ATOM     13  O   UNL     1      43.505  11.291  10.323  0.00  0.00    +0.000 OA
ATOM     14  C   UNL     1      43.234   9.924  10.709  0.00  0.00    +0.000 C 
ENDBRANCH  10  11
ENDBRANCH   8  10
ENDBRANCH   2   4
BRANCH   2  15
ATOM     15  C   UNL     1      43.692   4.392  10.725  0.00  0.00    +0.000 C 
BRANCH  15  16
ATOM     16  O   UNL     1      43.749   3.105  10.078  0.00  0.00    +0.000 OA
BRANCH  16  17
ATOM     17  C   UNL     1      44.726   2.990   9.128  0.00  0.00    +0.000 A 
ATOM     18  C   UNL     1      45.275   4.038   8.392  0.00  0.00    +0.000 A 
ATOM     19  N   UNL     1      46.234   3.891   7.450  0.00  0.00    +0.000 NA
ATOM     20  C   UNL     1      46.685   2.633   7.241  0.00  0.00    +0.000 A 
ATOM     21 CL   UNL     1      47.887   2.560   6.013  0.00  0.00    +0.000 Cl
ATOM     22  C   UNL     1      46.226   1.518   7.935  0.00  0.00    +0.000 A 
ATOM     23 CL   UNL     1      46.816  -0.075   7.649  0.00  0.00    +0.000 Cl
ATOM     24  C   UNL     1      45.236   1.708   8.900  0.00  0.00    +0.000 A 
ENDBRANCH  16  17
ENDBRANCH  15  16
ENDBRANCH   2  15
TORSDOF 6
ENDMDL
MODEL 4
REMARK VINA RESULT:    -7.517      2.073      2.461
REMARK INTER + INTRA:         -11.091
REMARK INTER:                 -10.189
REMARK INTRA:                  -0.902
REMARK UNBOUND:                -0.937
REMARK  Name = 
REMARK  6 active torsions:
REMARK  status: ('A' for Active; 'I' for Inactive)
REMARK    1  A    between atoms: C_2  and  C_4
REMARK    2  A    between atoms: C_2  and  C_14
REMARK    3  A    between atoms: C_4  and  O_5
REMARK    4  A    between atoms: O_5  and  C_6
REMARK    5  A    between atoms: C_18  and  C_19
REMARK    6  A    between atoms: C_19  and  C_20
REMARK                            x       y       z     vdW  Elec       q    Type
REMARK                         _______ _______ _______ _____ _____    ______ ____
ROOT
ATOM      1  F   UNL     1      42.332   4.834  11.740  0.00  0.00    +0.000 F 
ATOM      2  C   UNL     1      43.439   4.437  12.430  0.00  0.00    +0.000 C 
ATOM      3  F   UNL     1      43.004   4.153  13.695  0.00  0.00    +0.000 F 
ENDROOT
BRANCH   2   4
ATOM      4  C   UNL     1      44.519   5.512  12.421  0.00  0.00    +0.000 A 
ATOM      5  C   UNL     1      44.340   6.697  11.689  0.00  0.00    +0.000 A 
ATOM      6  C   UNL     1      45.329   7.680  11.675  0.00  0.00    +0.000 A 
ATOM      7  C   UNL     1      46.496   7.512  12.419  0.00  0.00    +0.000 A 
ATOM      8  C   UNL     1      46.689   6.357  13.186  0.00  0.00    +0.000 A 
ATOM      9  C   UNL     1      45.707   5.350  13.158  0.00  0.00    +0.000 A 
BRANCH   8  10
ATOM     10  C   UNL     1      47.895   6.225  14.087  0.00  0.00    +0.000 C 
BRANCH  10  11
ATOM     11  C   UNL     1      48.506   7.573  14.427  0.00  0.00    +0.000 C 
ATOM     12  C   UNL     1      49.953   7.726  13.936  0.00  0.00    +0.000 C 
ATOM     13  O   UNL     1      50.433   7.997  15.270  0.00  0.00    +0.000 OA
ATOM     14  C   UNL     1      49.118   7.763  15.823  0.00  0.00    +0.000 C 
ENDBRANCH  10  11
ENDBRANCH   8  10
ENDBRANCH   2   4
BRANCH   2  15
ATOM     15  C   UNL     1      43.980   3.136  11.805  0.00  0.00    +0.000 C 
BRANCH  15  16
ATOM     16  O   UNL     1      43.459   2.899  10.483  0.00  0.00    +0.000 OA
BRANCH  16  17
ATOM     17  C   UNL     1      44.388   2.987   9.483  0.00  0.00    +0.000 A 
ATOM     18  C   UNL     1      44.755   4.152   8.812  0.00  0.00    +0.000 A 
ATOM     19  N   UNL     1      45.670   4.206   7.818  0.00  0.00    +0.000 NA
ATOM     20  C   UNL     1      46.266   3.038   7.484  0.00  0.00    +0.000 A 
ATOM     21 CL   UNL     1      47.396   3.220   6.199  0.00  0.00    +0.000 Cl
ATOM     22  C   UNL     1      45.993   1.823   8.102  0.00  0.00    +0.000 A 
ATOM     23 CL   UNL     1      46.765   0.348   7.657  0.00  0.00    +0.000 Cl
ATOM     24  C   UNL     1      45.044   1.805   9.125  0.00  0.00    +0.000 A 
ENDBRANCH  16  17
ENDBRANCH  15  16
ENDBRANCH   2  15
TORSDOF 6
ENDMDL
MODEL 5
REMARK VINA RESULT:    -7.204      4.189      7.676
REMARK INTER + INTRA:         -10.667
REMARK INTER:                  -9.898
REMARK INTRA:                  -0.769
REMARK UNBOUND:                -0.937
REMARK  Name = 
REMARK  6 active torsions:
REMARK  status: ('A' for Active; 'I' for Inactive)
REMARK    1  A    between atoms: C_2  and  C_4
REMARK    2  A    between atoms: C_2  and  C_14
REMARK    3  A    between atoms: C_4  and  O_5
REMARK    4  A    between atoms: O_5  and  C_6
REMARK    5  A    between atoms: C_18  and  C_19
REMARK    6  A    between atoms: C_19  and  C_20
REMARK                            x       y       z     vdW  Elec       q    Type
REMARK                         _______ _______ _______ _____ _____    ______ ____
ROOT
ATOM      1  F   UNL     1      44.112   5.722  13.069  0.00  0.00    +0.000 F 
ATOM      2  C   UNL     1      44.743   5.907  11.874  0.00  0.00    +0.000 C 
ATOM      3  F   UNL     1      44.139   6.992  11.302  0.00  0.00    +0.000 F 
ENDROOT
BRANCH   2   4
ATOM      4  C   UNL     1      44.650   4.666  10.994  0.00  0.00    +0.000 A 
ATOM      5  C   UNL     1      43.996   3.512  11.455  0.00  0.00    +0.000 A 
ATOM      6  C   UNL     1      43.914   2.374  10.654  0.00  0.00    +0.000 A 
ATOM      7  C   UNL     1      44.451   2.381   9.368  0.00  0.00    +0.000 A 
ATOM      8  C   UNL     1      45.079   3.527   8.867  0.00  0.00    +0.000 A 
ATOM      9  C   UNL     1      45.198   4.656   9.698  0.00  0.00    +0.000 A 
BRANCH   8  10
ATOM     10  C   UNL     1      45.555   3.580   7.433  0.00  0.00    +0.000 C 
BRANCH  10  11
ATOM     11  C   UNL     1      46.948   2.998   7.271  0.00  0.00    +0.000 C 
ATOM     12  C   UNL     1      47.335   2.746   5.806  0.00  0.00    +0.000 C 
ATOM     13  O   UNL     1      47.576   1.345   6.055  0.00  0.00    +0.000 OA
ATOM     14  C   UNL     1      47.123   1.479   7.422  0.00  0.00    +0.000 C 
ENDBRANCH  10  11
ENDBRANCH   8  10
ENDBRANCH   2   4
BRANCH   2  15
ATOM     15  C   UNL     1      46.219   6.263  12.136  0.00  0.00    +0.000 C 
BRANCH  15  16
ATOM     16  O   UNL     1      46.971   5.152  12.662  0.00  0.00    +0.000 OA
BRANCH  16  17
ATOM     17  C   UNL     1      47.426   5.328  13.940  0.00  0.00    +0.000 A 
ATOM     18  C   UNL     1      48.170   6.414  14.397  0.00  0.00    +0.000 A 
ATOM     19  N   UNL     1      48.616   6.555  15.666  0.00  0.00    +0.000 NA
ATOM     20  C   UNL     1      48.290   5.569  16.532  0.00  0.00    +0.000 A 
ATOM     21 CL   UNL     1      48.922   5.842  18.109  0.00  0.00    +0.000 Cl
ATOM     22  C   UNL     1      47.532   4.454  16.190  0.00  0.00    +0.000 A 
ATOM     23 CL   UNL     1      47.130   3.210  17.313  0.00  0.00    +0.000 Cl
ATOM     24  C   UNL     1      47.088   4.342  14.872  0.00  0.00    +0.000 A 
ENDBRANCH  16  17
ENDBRANCH  15  16
ENDBRANCH   2  15
TORSDOF 6
ENDMDL
MODEL 6
REMARK VINA RESULT:    -6.791      4.504      7.853
REMARK INTER + INTRA:         -10.110
REMARK INTER:                  -9.465
REMARK INTRA:                  -0.644
REMARK UNBOUND:                -0.937
REMARK  Name = 
REMARK  6 active torsions:
REMARK  status: ('A' for Active; 'I' for Inactive)
REMARK    1  A    between atoms: C_2  and  C_4
REMARK    2  A    between atoms: C_2  and  C_14
REMARK    3  A    between atoms: C_4  and  O_5
REMARK    4  A    between atoms: O_5  and  C_6
REMARK    5  A    between atoms: C_18  and  C_19
REMARK    6  A    between atoms: C_19  and  C_20
REMARK                            x       y       z     vdW  Elec       q    Type
REMARK                         _______ _______ _______ _____ _____    ______ ____
ROOT
ATOM      1  F   UNL     1      44.707   5.296  12.814  0.00  0.00    +0.000 F 
ATOM      2  C   UNL     1      44.826   5.647  11.501  0.00  0.00    +0.000 C 
ATOM      3  F   UNL     1      43.796   6.513  11.255  0.00  0.00    +0.000 F 
ENDROOT
BRANCH   2   4
ATOM      4  C   UNL     1      44.782   4.426  10.589  0.00  0.00    +0.000 A 
ATOM      5  C   UNL     1      44.119   3.257  10.995  0.00  0.00    +0.000 A 
ATOM      6  C   UNL     1      44.081   2.137  10.165  0.00  0.00    +0.000 A 
ATOM      7  C   UNL     1      44.672   2.179   8.903  0.00  0.00    +0.000 A 
ATOM      8  C   UNL     1      45.311   3.341   8.456  0.00  0.00    +0.000 A 
ATOM      9  C   UNL     1      45.385   4.451   9.318  0.00  0.00    +0.000 A 
BRANCH   8  10
ATOM     10  C   UNL     1      45.847   3.432   7.046  0.00  0.00    +0.000 C 
BRANCH  10  11
ATOM     11  C   UNL     1      47.307   3.024   6.962  0.00  0.00    +0.000 C 
ATOM     12  C   UNL     1      47.795   2.804   5.522  0.00  0.00    +0.000 C 
ATOM     13  O   UNL     1      48.194   1.447   5.809  0.00  0.00    +0.000 OA
ATOM     14  C   UNL     1      47.660   1.541   7.149  0.00  0.00    +0.000 C 
ENDBRANCH  10  11
ENDBRANCH   8  10
ENDBRANCH   2   4
BRANCH   2  15
ATOM     15  C   UNL     1      46.151   6.409  11.303  0.00  0.00    +0.000 C 
BRANCH  15  16
ATOM     16  O   UNL     1      46.308   7.497  12.235  0.00  0.00    +0.000 OA
BRANCH  16  17
ATOM     17  C   UNL     1      47.411   7.402  13.039  0.00  0.00    +0.000 A 
ATOM     18  C   UNL     1      47.730   6.323  13.859  0.00  0.00    +0.000 A 
ATOM     19  N   UNL     1      48.824   6.263  14.653  0.00  0.00    +0.000 NA
ATOM     20  C   UNL     1      49.655   7.329  14.614  0.00  0.00    +0.000 A 
ATOM     21 CL   UNL     1      51.000   7.154  15.671  0.00  0.00    +0.000 Cl
ATOM     22  C   UNL     1      49.446   8.447  13.814  0.00  0.00    +0.000 A 
ATOM     23 CL   UNL     1      50.521   9.795  13.783  0.00  0.00    +0.000 Cl
ATOM     24  C   UNL     1      48.308   8.474  13.008  0.00  0.00    +0.000 A 
ENDBRANCH  16  17
ENDBRANCH  15  16
ENDBRANCH   2  15
TORSDOF 6
ENDMDL
MODEL 7
REMARK VINA RESULT:    -6.503      1.906      2.631
REMARK INTER + INTRA:          -9.721
REMARK INTER:                  -8.895
REMARK INTRA:                  -0.826
REMARK UNBOUND:                -0.937
REMARK  Name = 
REMARK  6 active torsions:
REMARK  status: ('A' for Active; 'I' for Inactive)
REMARK    1  A    between atoms: C_2  and  C_4
REMARK    2  A    between atoms: C_2  and  C_14
REMARK    3  A    between atoms: C_4  and  O_5
REMARK    4  A    between atoms: O_5  and  C_6
REMARK    5  A    between atoms: C_18  and  C_19
REMARK    6  A    between atoms: C_19  and  C_20
REMARK                            x       y       z     vdW  Elec       q    Type
REMARK                         _______ _______ _______ _____ _____    ______ ____
ROOT
ATOM      1  F   UNL     1      45.710   7.828  11.220  0.00  0.00    +0.000 F 
ATOM      2  C   UNL     1      45.444   6.491  11.169  0.00  0.00    +0.000 C 
ATOM      3  F   UNL     1      44.081   6.387  11.138  0.00  0.00    +0.000 F 
ENDROOT
BRANCH   2   4
ATOM      4  C   UNL     1      46.051   5.754  12.357  0.00  0.00    +0.000 A 
ATOM      5  C   UNL     1      45.775   4.393  12.568  0.00  0.00    +0.000 A 
ATOM      6  C   UNL     1      46.325   3.717  13.658  0.00  0.00    +0.000 A 
ATOM      7  C   UNL     1      47.186   4.379  14.532  0.00  0.00    +0.000 A 
ATOM      8  C   UNL     1      47.506   5.726  14.329  0.00  0.00    +0.000 A 
ATOM      9  C   UNL     1      46.911   6.412  13.255  0.00  0.00    +0.000 A 
BRANCH   8  10
ATOM     10  C   UNL     1      48.531   6.413  15.202  0.00  0.00    +0.000 C 
BRANCH  10  11
ATOM     11  C   UNL     1      48.580   5.821  16.600  0.00  0.00    +0.000 C 
ATOM     12  C   UNL     1      48.602   6.883  17.709  0.00  0.00    +0.000 C 
ATOM     13  O   UNL     1      49.842   6.375  18.245  0.00  0.00    +0.000 OA
ATOM     14  C   UNL     1      49.948   5.415  17.168  0.00  0.00    +0.000 C 
ENDBRANCH  10  11
ENDBRANCH   8  10
ENDBRANCH   2   4
BRANCH   2  15
ATOM     15  C   UNL     1      45.999   5.919   9.850  0.00  0.00    +0.000 C 
BRANCH  15  16
ATOM     16  O   UNL     1      45.012   5.175   9.111  0.00  0.00    +0.000 OA
BRANCH  16  17
ATOM     17  C   UNL     1      45.406   3.917   8.743  0.00  0.00    +0.000 A 
ATOM     18  C   UNL     1      44.968   2.726   9.318  0.00  0.00    +0.000 A 
ATOM     19  N   UNL     1      45.385   1.496   8.940  0.00  0.00    +0.000 NA
ATOM     20  C   UNL     1      46.274   1.448   7.922  0.00  0.00    +0.000 A 
ATOM     21 CL   UNL     1      46.748  -0.160   7.538  0.00  0.00    +0.000 Cl
ATOM     22  C   UNL     1      46.760   2.571   7.262  0.00  0.00    +0.000 A 
ATOM     23 CL   UNL     1      47.894   2.484   5.968  0.00  0.00    +0.000 Cl
ATOM     24  C   UNL     1      46.306   3.824   7.678  0.00  0.00    +0.000 A 
ENDBRANCH  16  17
ENDBRANCH  15  16
ENDBRANCH   2  15
TORSDOF 6
ENDMDL
MODEL 8
REMARK VINA RESULT:    -6.487      4.151      7.102
REMARK INTER + INTRA:          -9.699
REMARK INTER:                  -8.808
REMARK INTRA:                  -0.891
REMARK UNBOUND:                -0.937
REMARK  Name = 
REMARK  6 active torsions:
REMARK  status: ('A' for Active; 'I' for Inactive)
REMARK    1  A    between atoms: C_2  and  C_4
REMARK    2  A    between atoms: C_2  and  C_14
REMARK    3  A    between atoms: C_4  and  O_5
REMARK    4  A    between atoms: O_5  and  C_6
REMARK    5  A    between atoms: C_18  and  C_19
REMARK    6  A    between atoms: C_19  and  C_20
REMARK                            x       y       z     vdW  Elec       q    Type
REMARK                         _______ _______ _______ _____ _____    ______ ____
ROOT
ATOM      1  F   UNL     1      47.545   3.584  13.636  0.00  0.00    +0.000 F 
ATOM      2  C   UNL     1      46.578   4.509  13.896  0.00  0.00    +0.000 C 
ATOM      3  F   UNL     1      46.210   4.304  15.197  0.00  0.00    +0.000 F 
ENDROOT
BRANCH   2   4
ATOM      4  C   UNL     1      45.401   4.372  12.937  0.00  0.00    +0.000 A 
ATOM      5  C   UNL     1      44.191   5.038  13.194  0.00  0.00    +0.000 A 
ATOM      6  C   UNL     1      43.111   4.910  12.321  0.00  0.00    +0.000 A 
ATOM      7  C   UNL     1      43.232   4.147  11.161  0.00  0.00    +0.000 A 
ATOM      8  C   UNL     1      44.436   3.499  10.860  0.00  0.00    +0.000 A 
ATOM      9  C   UNL     1      45.505   3.595  11.769  0.00  0.00    +0.000 A 
BRANCH   8  10
ATOM     10  C   UNL     1      44.611   2.771   9.547  0.00  0.00    +0.000 C 
BRANCH  10  11
ATOM     11  C   UNL     1      44.824   3.727   8.387  0.00  0.00    +0.000 C 
ATOM     12  C   UNL     1      45.809   3.196   7.335  0.00  0.00    +0.000 C 
ATOM     13  O   UNL     1      46.669   4.346   7.482  0.00  0.00    +0.000 OA
ATOM     14  C   UNL     1      45.848   4.859   8.556  0.00  0.00    +0.000 C 
ENDBRANCH  10  11
ENDBRANCH   8  10
ENDBRANCH   2   4
BRANCH   2  15
ATOM     15  C   UNL     1      47.190   5.919  13.786  0.00  0.00    +0.000 C 
BRANCH  15  16
ATOM     16  O   UNL     1      48.427   5.929  13.048  0.00  0.00    +0.000 OA
BRANCH  16  17
ATOM     17  C   UNL     1      48.743   7.137  12.487  0.00  0.00    +0.000 A 
ATOM     18  C   UNL     1      49.961   7.465  11.895  0.00  0.00    +0.000 A 
ATOM     19  N   UNL     1      50.249   8.673  11.358  0.00  0.00    +0.000 NA
ATOM     20  C   UNL     1      49.265   9.599  11.397  0.00  0.00    +0.000 A 
ATOM     21 CL   UNL     1      49.744  11.099  10.704  0.00  0.00    +0.000 Cl
ATOM     22  C   UNL     1      48.005   9.371  11.941  0.00  0.00    +0.000 A 
ATOM     23 CL   UNL     1      46.767  10.570  11.979  0.00  0.00    +0.000 Cl
ATOM     24  C   UNL     1      47.743   8.113  12.485  0.00  0.00    +0.000 A 
ENDBRANCH  16  17
ENDBRANCH  15  16
ENDBRANCH   2  15
TORSDOF 6
ENDMDL
MODEL 9
REMARK VINA RESULT:    -6.412      4.407      7.381
REMARK INTER + INTRA:          -9.598
REMARK INTER:                  -8.812
REMARK INTRA:                  -0.786
REMARK UNBOUND:                -0.937
REMARK  Name = 
REMARK  6 active torsions:
REMARK  status: ('A' for Active; 'I' for Inactive)
REMARK    1  A    between atoms: C_2  and  C_4
REMARK    2  A    between atoms: C_2  and  C_14
REMARK    3  A    between atoms: C_4  and  O_5
REMARK    4  A    between atoms: O_5  and  C_6
REMARK    5  A    between atoms: C_18  and  C_19
REMARK    6  A    between atoms: C_19  and  C_20
REMARK                            x       y       z     vdW  Elec       q    Type
REMARK                         _______ _______ _______ _____ _____    ______ ____
ROOT
ATOM      1  F   UNL     1      46.257   5.537  13.219  0.00  0.00    +0.000 F 
ATOM      2  C   UNL     1      45.158   5.814  12.460  0.00  0.00    +0.000 C 
ATOM      3  F   UNL     1      44.155   6.087  13.348  0.00  0.00    +0.000 F 
ENDROOT
BRANCH   2   4
ATOM      4  C   UNL     1      44.809   4.652  11.537  0.00  0.00    +0.000 A 
ATOM      5  C   UNL     1      44.055   3.566  12.012  0.00  0.00    +0.000 A 
ATOM      6  C   UNL     1      43.738   2.499  11.171  0.00  0.00    +0.000 A 
ATOM      7  C   UNL     1      44.136   2.517   9.835  0.00  0.00    +0.000 A 
ATOM      8  C   UNL     1      44.859   3.601   9.324  0.00  0.00    +0.000 A 
ATOM      9  C   UNL     1      45.214   4.651  10.190  0.00  0.00    +0.000 A 
BRANCH   8  10
ATOM     10  C   UNL     1      45.188   3.680   7.851  0.00  0.00    +0.000 C 
BRANCH  10  11
ATOM     11  C   UNL     1      46.571   3.133   7.543  0.00  0.00    +0.000 C 
ATOM     12  C   UNL     1      46.821   2.923   6.043  0.00  0.00    +0.000 C 
ATOM     13  O   UNL     1      47.113   1.522   6.233  0.00  0.00    +0.000 OA
ATOM     14  C   UNL     1      46.789   1.616   7.639  0.00  0.00    +0.000 C 
ENDBRANCH  10  11
ENDBRANCH   8  10
ENDBRANCH   2   4
BRANCH   2  15
ATOM     15  C   UNL     1      45.428   7.086  11.633  0.00  0.00    +0.000 C 
BRANCH  15  16
ATOM     16  O   UNL     1      45.734   8.227  12.457  0.00  0.00    +0.000 OA
BRANCH  16  17
ATOM     17  C   UNL     1      46.892   8.874  12.123  0.00  0.00    +0.000 A 
ATOM     18  C   UNL     1      47.054  10.255  12.025  0.00  0.00    +0.000 A 
ATOM     19  N   UNL     1      48.211  10.867  11.681  0.00  0.00    +0.000 NA
ATOM     20  C   UNL     1      49.269  10.060  11.438  0.00  0.00    +0.000 A 
ATOM     21 CL   UNL     1      50.678  10.941  10.993  0.00  0.00    +0.000 Cl
ATOM     22  C   UNL     1      49.225   8.673  11.529  0.00  0.00    +0.000 A 
ATOM     23 CL   UNL     1      50.589   7.667  11.213  0.00  0.00    +0.000 Cl
ATOM     24  C   UNL     1      48.016   8.077  11.888  0.00  0.00    +0.000 A 
ENDBRANCH  16  17
ENDBRANCH  15  16
ENDBRANCH   2  15
TORSDOF 6
ENDMDL
