MODEL 1
REMARK VINA RESULT:    -7.908      0.000      0.000
REMARK INTER + INTRA:         -13.042
REMARK INTER:                 -11.606
REMARK INTRA:                  -1.436
REMARK UNBOUND:                -1.436
REMARK  Name = 
REMARK  9 active torsions:
REMARK  status: ('A' for Active; 'I' for Inactive)
REMARK    1  A    between atoms: C_1  and  O_2
REMARK    2  A    between atoms: O_2  and  C_3
REMARK    3  A    between atoms: C_10  and  C_11
REMARK    4  A    between atoms: N_13  and  C_14
REMARK    5  A    between atoms: C_14  and  C_15
REMARK    6  A    between atoms: C_18  and  C_19
REMARK    7  A    between atoms: C_19  and  N_20
REMARK    8  A    between atoms: N_20  and  C_21
REMARK    9  A    between atoms: C_21  and  C_22
REMARK                            x       y       z     vdW  Elec       q    Type
REMARK                         _______ _______ _______ _____ _____    ______ ____
ROOT
ATOM      1  C   UNL     1      47.402   6.516  12.981  0.00  0.00    +0.000 A 
ATOM      2  C   UNL     1      46.604   5.589  13.666  0.00  0.00    +0.000 A 
ATOM      3  C   UNL     1      45.319   5.283  13.209  0.00  0.00    +0.000 A 
ATOM      4  C   UNL     1      44.802   5.890  12.055  0.00  0.00    +0.000 A 
ATOM      5  C   UNL     1      45.611   6.795  11.356  0.00  0.00    +0.000 A 
ATOM      6  C   UNL     1      46.899   7.101  11.811  0.00  0.00    +0.000 A 
ENDROOT
BRANCH   1   7
ATOM      7  C   UNL     1      48.796   6.836  13.460  0.00  0.00    +0.000 C 
BRANCH   7  10
ATOM      8  C   UNL     1      49.988   7.159  15.589  0.00  0.00    +0.000 C 
ATOM      9  O   UNL     1      51.013   7.506  15.006  0.00  0.00    +0.000 OA
ATOM     10  N   UNL     1      48.862   6.811  14.898  0.00  0.00    +0.000 N 
ATOM     11  H   UNL     1      48.045   6.483  15.393  0.00  0.00    +0.000 HD
BRANCH   8  19
ATOM     12  C   UNL     1      48.992   4.741  17.831  0.00  0.00    +0.000 A 
ATOM     13  N   UNL     1      48.671   3.994  18.906  0.00  0.00    +0.000 NA
ATOM     14  C   UNL     1      48.828   4.535  20.117  0.00  0.00    +0.000 A 
ATOM     15  N   UNL     1      49.276   5.756  20.396  0.00  0.00    +0.000 NA
ATOM     16  C   UNL     1      49.591   6.465  19.298  0.00  0.00    +0.000 A 
ATOM     17  S   UNL     1      50.181   8.047  19.466  0.00  0.00    +0.000 S 
ATOM     18  C   UNL     1      50.318   8.228  17.781  0.00  0.00    +0.000 A 
ATOM     19  C   UNL     1      49.923   7.105  17.062  0.00  0.00    +0.000 A 
ATOM     20  C   UNL     1      49.490   6.049  17.973  0.00  0.00    +0.000 A 
BRANCH  12  22
ATOM     21  C   UNL     1      47.743   3.299  16.474  0.00  0.00    +0.000 C 
ATOM     22  O   UNL     1      48.868   4.168  16.584  0.00  0.00    +0.000 OA
ENDBRANCH  12  22
ENDBRANCH   8  19
ENDBRANCH   7  10
ENDBRANCH   1   7
BRANCH   4  23
ATOM     23  C   UNL     1      43.405   5.565  11.572  0.00  0.00    +0.000 C 
BRANCH  23  24
ATOM     24  N   UNL     1      43.436   4.998  10.224  0.00  0.00    +0.000 NA
ATOM     25  H   UNL     1      44.098   5.532   9.660  0.00  0.00    +0.000 HD
BRANCH  24  26
ATOM     26  C   UNL     1      43.829   3.592  10.235  0.00  0.00    +0.000 C 
BRANCH  26  27
ATOM     27  C   UNL     1      44.876   3.319   9.187  0.00  0.00    +0.000 A 
ATOM     28  C   UNL     1      45.452   4.350   8.448  0.00  0.00    +0.000 A 
ATOM     29  N   UNL     1      46.399   4.169   7.498  0.00  0.00    +0.000 NA
ATOM     30  C   UNL     1      46.792   2.893   7.269  0.00  0.00    +0.000 A 
ATOM     31  C   UNL     1      46.288   1.797   7.951  0.00  0.00    +0.000 A 
ATOM     32 CL   UNL     1      46.839   0.209   7.605  0.00  0.00    +0.000 Cl
ATOM     33  C   UNL     1      45.320   2.014   8.926  0.00  0.00    +0.000 A 
ENDBRANCH  26  27
ENDBRANCH  24  26
ENDBRANCH  23  24
ENDBRANCH   4  23
TORSDOF 8
ENDMDL
MODEL 2
REMARK VINA RESULT:    -7.267      1.882      2.179
REMARK INTER + INTRA:         -12.101
REMARK INTER:                 -10.621
REMARK INTRA:                  -1.480
REMARK UNBOUND:                -1.436
REMARK  Name = 
REMARK  9 active torsions:
REMARK  status: ('A' for Active; 'I' for Inactive)
REMARK    1  A    between atoms: C_1  and  O_2
REMARK    2  A    between atoms: O_2  and  C_3
REMARK    3  A    between atoms: C_10  and  C_11
REMARK    4  A    between atoms: N_13  and  C_14
REMARK    5  A    between atoms: C_14  and  C_15
REMARK    6  A    between atoms: C_18  and  C_19
REMARK    7  A    between atoms: C_19  and  N_20
REMARK    8  A    between atoms: N_20  and  C_21
REMARK    9  A    between atoms: C_21  and  C_22
REMARK                            x       y       z     vdW  Elec       q    Type
REMARK                         _______ _______ _______ _____ _____    ______ ____
ROOT
ATOM      1  C   UNL     1      47.321   6.762  13.077  0.00  0.00    +0.000 A 
ATOM      2  C   UNL     1      46.036   7.228  12.773  0.00  0.00    +0.000 A 
ATOM      3  C   UNL     1      44.954   6.344  12.715  0.00  0.00    +0.000 A 
ATOM      4  C   UNL     1      45.130   4.975  12.964  0.00  0.00    +0.000 A 
ATOM      5  C   UNL     1      46.411   4.515  13.294  0.00  0.00    +0.000 A 
ATOM      6  C   UNL     1      47.494   5.399  13.356  0.00  0.00    +0.000 A 
ENDROOT
BRANCH   1   7
ATOM      7  C   UNL     1      48.488   7.714  13.160  0.00  0.00    +0.000 C 
BRANCH   7  10
ATOM      8  C   UNL     1      50.400   7.977  14.688  0.00  0.00    +0.000 C 
ATOM      9  O   UNL     1      50.346   9.203  14.604  0.00  0.00    +0.000 OA
ATOM     10  N   UNL     1      49.525   7.180  14.004  0.00  0.00    +0.000 N 
ATOM     11  H   UNL     1      49.616   6.175  14.048  0.00  0.00    +0.000 HD
BRANCH   8  19
ATOM     12  C   UNL     1      50.249   5.408  16.978  0.00  0.00    +0.000 A 
ATOM     13  N   UNL     1      50.474   4.451  17.899  0.00  0.00    +0.000 NA
ATOM     14  C   UNL     1      51.720   4.295  18.352  0.00  0.00    +0.000 A 
ATOM     15  N   UNL     1      52.795   4.991  17.992  0.00  0.00    +0.000 NA
ATOM     16  C   UNL     1      52.530   5.929  17.067  0.00  0.00    +0.000 A 
ATOM     17  S   UNL     1      53.787   6.912  16.491  0.00  0.00    +0.000 S 
ATOM     18  C   UNL     1      52.725   7.750  15.461  0.00  0.00    +0.000 A 
ATOM     19  C   UNL     1      51.409   7.309  15.531  0.00  0.00    +0.000 A 
ATOM     20  C   UNL     1      51.295   6.216  16.493  0.00  0.00    +0.000 A 
BRANCH  12  22
ATOM     21  C   UNL     1      48.072   4.547  16.965  0.00  0.00    +0.000 C 
ATOM     22  O   UNL     1      48.970   5.542  16.481  0.00  0.00    +0.000 OA
ENDBRANCH  12  22
ENDBRANCH   8  19
ENDBRANCH   7  10
ENDBRANCH   1   7
BRANCH   4  23
ATOM     23  C   UNL     1      43.958   4.020  12.886  0.00  0.00    +0.000 C 
BRANCH  23  24
ATOM     24  N   UNL     1      44.283   2.858  12.060  0.00  0.00    +0.000 NA
ATOM     25  H   UNL     1      44.002   2.013  12.558  0.00  0.00    +0.000 HD
BRANCH  24  26
ATOM     26  C   UNL     1      43.609   2.906  10.766  0.00  0.00    +0.000 C 
BRANCH  26  27
ATOM     27  C   UNL     1      44.604   3.095   9.649  0.00  0.00    +0.000 A 
ATOM     28  C   UNL     1      44.902   4.359   9.147  0.00  0.00    +0.000 A 
ATOM     29  N   UNL     1      45.788   4.593   8.150  0.00  0.00    +0.000 NA
ATOM     30  C   UNL     1      46.407   3.508   7.623  0.00  0.00    +0.000 A 
ATOM     31  C   UNL     1      46.186   2.210   8.053  0.00  0.00    +0.000 A 
ATOM     32 CL   UNL     1      47.012   0.888   7.334  0.00  0.00    +0.000 Cl
ATOM     33  C   UNL     1      45.275   2.001   9.082  0.00  0.00    +0.000 A 
ENDBRANCH  26  27
ENDBRANCH  24  26
ENDBRANCH  23  24
ENDBRANCH   4  23
TORSDOF 8
ENDMDL
MODEL 3
REMARK VINA RESULT:    -7.148      2.236      2.514
REMARK INTER + INTRA:         -11.927
REMARK INTER:                 -11.009
REMARK INTRA:                  -0.918
REMARK UNBOUND:                -1.436
REMARK  Name = 
REMARK  9 active torsions:
REMARK  status: ('A' for Active; 'I' for Inactive)
REMARK    1  A    between atoms: C_1  and  O_2
REMARK    2  A    between atoms: O_2  and  C_3
REMARK    3  A    between atoms: C_10  and  C_11
REMARK    4  A    between atoms: N_13  and  C_14
REMARK    5  A    between atoms: C_14  and  C_15
REMARK    6  A    between atoms: C_18  and  C_19
REMARK    7  A    between atoms: C_19  and  N_20
REMARK    8  A    between atoms: N_20  and  C_21
REMARK    9  A    between atoms: C_21  and  C_22
REMARK                            x       y       z     vdW  Elec       q    Type
REMARK                         _______ _______ _______ _____ _____    ______ ____
ROOT
ATOM      1  C   UNL     1      47.682   6.433  14.421  0.00  0.00    +0.000 A 
ATOM      2  C   UNL     1      47.433   5.097  14.761  0.00  0.00    +0.000 A 
ATOM      3  C   UNL     1      46.388   4.392  14.155  0.00  0.00    +0.000 A 
ATOM      4  C   UNL     1      45.572   5.004  13.192  0.00  0.00    +0.000 A 
ATOM      5  C   UNL     1      45.841   6.331  12.832  0.00  0.00    +0.000 A 
ATOM      6  C   UNL     1      46.888   7.036  13.437  0.00  0.00    +0.000 A 
ENDROOT
BRANCH   1   7
ATOM      7  C   UNL     1      48.819   7.192  15.059  0.00  0.00    +0.000 C 
BRANCH   7  10
ATOM      8  C   UNL     1      50.081   6.180  16.915  0.00  0.00    +0.000 C 
ATOM      9  O   UNL     1      49.488   6.868  17.743  0.00  0.00    +0.000 OA
ATOM     10  N   UNL     1      49.811   6.286  15.579  0.00  0.00    +0.000 N 
ATOM     11  H   UNL     1      50.341   5.746  14.911  0.00  0.00    +0.000 HD
BRANCH   8  19
ATOM     12  C   UNL     1      50.161   2.739  17.057  0.00  0.00    +0.000 A 
ATOM     13  N   UNL     1      50.460   1.434  17.210  0.00  0.00    +0.000 NA
ATOM     14  C   UNL     1      51.671   1.118  17.677  0.00  0.00    +0.000 A 
ATOM     15  N   UNL     1      52.643   1.960  18.016  0.00  0.00    +0.000 NA
ATOM     16  C   UNL     1      52.306   3.250  17.841  0.00  0.00    +0.000 A 
ATOM     17  S   UNL     1      53.428   4.465  18.223  0.00  0.00    +0.000 S 
ATOM     18  C   UNL     1      52.335   5.685  17.768  0.00  0.00    +0.000 A 
ATOM     19  C   UNL     1      51.110   5.204  17.322  0.00  0.00    +0.000 A 
ATOM     20  C   UNL     1      51.096   3.744  17.365  0.00  0.00    +0.000 A 
BRANCH  12  22
ATOM     21  C   UNL     1      47.874   2.977  17.496  0.00  0.00    +0.000 C 
ATOM     22  O   UNL     1      48.925   3.063  16.538  0.00  0.00    +0.000 OA
ENDBRANCH  12  22
ENDBRANCH   8  19
ENDBRANCH   7  10
ENDBRANCH   1   7
BRANCH   4  23
ATOM     23  C   UNL     1      44.435   4.240  12.548  0.00  0.00    +0.000 C 
BRANCH  23  24
ATOM     24  N   UNL     1      44.930   3.059  11.842  0.00  0.00    +0.000 NA
ATOM     25  H   UNL     1      44.827   2.247  12.450  0.00  0.00    +0.000 HD
BRANCH  24  26
ATOM     26  C   UNL     1      44.206   2.829  10.595  0.00  0.00    +0.000 C 
BRANCH  26  27
ATOM     27  C   UNL     1      45.088   3.095   9.403  0.00  0.00    +0.000 A 
ATOM     28  C   UNL     1      45.343   4.392   8.963  0.00  0.00    +0.000 A 
ATOM     29  N   UNL     1      46.130   4.695   7.904  0.00  0.00    +0.000 NA
ATOM     30  C   UNL     1      46.690   3.651   7.246  0.00  0.00    +0.000 A 
ATOM     31  C   UNL     1      46.505   2.326   7.605  0.00  0.00    +0.000 A 
ATOM     32 CL   UNL     1      47.252   1.058   6.721  0.00  0.00    +0.000 Cl
ATOM     33  C   UNL     1      45.697   2.045   8.701  0.00  0.00    +0.000 A 
ENDBRANCH  26  27
ENDBRANCH  24  26
ENDBRANCH  23  24
ENDBRANCH   4  23
TORSDOF 8
ENDMDL
MODEL 4
REMARK VINA RESULT:    -6.773      3.043      4.388
REMARK INTER + INTRA:         -11.376
REMARK INTER:                 -10.335
REMARK INTRA:                  -1.041
REMARK UNBOUND:                -1.436
REMARK  Name = 
REMARK  9 active torsions:
REMARK  status: ('A' for Active; 'I' for Inactive)
REMARK    1  A    between atoms: C_1  and  O_2
REMARK    2  A    between atoms: O_2  and  C_3
REMARK    3  A    between atoms: C_10  and  C_11
REMARK    4  A    between atoms: N_13  and  C_14
REMARK    5  A    between atoms: C_14  and  C_15
REMARK    6  A    between atoms: C_18  and  C_19
REMARK    7  A    between atoms: C_19  and  N_20
REMARK    8  A    between atoms: N_20  and  C_21
REMARK    9  A    between atoms: C_21  and  C_22
REMARK                            x       y       z     vdW  Elec       q    Type
REMARK                         _______ _______ _______ _____ _____    ______ ____
ROOT
ATOM      1  C   UNL     1      47.549   4.342  16.028  0.00  0.00    +0.000 A 
ATOM      2  C   UNL     1      46.782   4.030  14.898  0.00  0.00    +0.000 A 
ATOM      3  C   UNL     1      46.708   4.918  13.821  0.00  0.00    +0.000 A 
ATOM      4  C   UNL     1      47.403   6.137  13.845  0.00  0.00    +0.000 A 
ATOM      5  C   UNL     1      48.192   6.435  14.963  0.00  0.00    +0.000 A 
ATOM      6  C   UNL     1      48.269   5.545  16.041  0.00  0.00    +0.000 A 
ENDROOT
BRANCH   1   7
ATOM      7  C   UNL     1      47.647   3.379  17.185  0.00  0.00    +0.000 C 
BRANCH   7  10
ATOM      8  C   UNL     1      49.878   2.359  16.973  0.00  0.00    +0.000 C 
ATOM      9  O   UNL     1      49.515   1.673  16.019  0.00  0.00    +0.000 OA
ATOM     10  N   UNL     1      49.016   3.215  17.600  0.00  0.00    +0.000 N 
ATOM     11  H   UNL     1      49.319   3.734  18.412  0.00  0.00    +0.000 HD
BRANCH   8  19
ATOM     12  C   UNL     1      51.961   4.653  18.478  0.00  0.00    +0.000 A 
ATOM     13  N   UNL     1      52.963   5.331  19.071  0.00  0.00    +0.000 NA
ATOM     14  C   UNL     1      54.109   4.684  19.300  0.00  0.00    +0.000 A 
ATOM     15  N   UNL     1      54.386   3.417  19.006  0.00  0.00    +0.000 NA
ATOM     16  C   UNL     1      53.358   2.775  18.424  0.00  0.00    +0.000 A 
ATOM     17  S   UNL     1      53.534   1.147  17.980  0.00  0.00    +0.000 S 
ATOM     18  C   UNL     1      51.949   1.091  17.369  0.00  0.00    +0.000 A 
ATOM     19  C   UNL     1      51.259   2.292  17.486  0.00  0.00    +0.000 A 
ATOM     20  C   UNL     1      52.105   3.300  18.120  0.00  0.00    +0.000 A 
BRANCH  12  22
ATOM     21  C   UNL     1      50.906   6.725  18.201  0.00  0.00    +0.000 C 
ATOM     22  O   UNL     1      50.764   5.308  18.278  0.00  0.00    +0.000 OA
ENDBRANCH  12  22
ENDBRANCH   8  19
ENDBRANCH   7  10
ENDBRANCH   1   7
BRANCH   4  23
ATOM     23  C   UNL     1      47.310   7.100  12.682  0.00  0.00    +0.000 C 
BRANCH  23  24
ATOM     24  N   UNL     1      47.048   6.388  11.431  0.00  0.00    +0.000 NA
ATOM     25  H   UNL     1      47.347   5.419  11.539  0.00  0.00    +0.000 HD
BRANCH  24  26
ATOM     26  C   UNL     1      45.634   6.424  11.071  0.00  0.00    +0.000 C 
BRANCH  26  27
ATOM     27  C   UNL     1      45.229   5.161  10.357  0.00  0.00    +0.000 A 
ATOM     28  C   UNL     1      44.349   4.249  10.935  0.00  0.00    +0.000 A 
ATOM     29  N   UNL     1      43.945   3.101  10.342  0.00  0.00    +0.000 NA
ATOM     30  C   UNL     1      44.447   2.845   9.110  0.00  0.00    +0.000 A 
ATOM     31  C   UNL     1      45.323   3.688   8.445  0.00  0.00    +0.000 A 
ATOM     32 CL   UNL     1      45.913   3.294   6.882  0.00  0.00    +0.000 Cl
ATOM     33  C   UNL     1      45.716   4.863   9.076  0.00  0.00    +0.000 A 
ENDBRANCH  26  27
ENDBRANCH  24  26
ENDBRANCH  23  24
ENDBRANCH   4  23
TORSDOF 8
ENDMDL
MODEL 5
REMARK VINA RESULT:    -6.684      5.168      9.496
REMARK INTER + INTRA:         -11.246
REMARK INTER:                 -10.241
REMARK INTRA:                  -1.005
REMARK UNBOUND:                -1.436
REMARK  Name = 
REMARK  9 active torsions:
REMARK  status: ('A' for Active; 'I' for Inactive)
REMARK    1  A    between atoms: C_1  and  O_2
REMARK    2  A    between atoms: O_2  and  C_3
REMARK    3  A    between atoms: C_10  and  C_11
REMARK    4  A    between atoms: N_13  and  C_14
REMARK    5  A    between atoms: C_14  and  C_15
REMARK    6  A    between atoms: C_18  and  C_19
REMARK    7  A    between atoms: C_19  and  N_20
REMARK    8  A    between atoms: N_20  and  C_21
REMARK    9  A    between atoms: C_21  and  C_22
REMARK                            x       y       z     vdW  Elec       q    Type
REMARK                         _______ _______ _______ _____ _____    ______ ____
ROOT
ATOM      1  C   UNL     1      48.632   3.347  17.062  0.00  0.00    +0.000 A 
ATOM      2  C   UNL     1      49.381   2.166  16.975  0.00  0.00    +0.000 A 
ATOM      3  C   UNL     1      50.742   2.161  17.298  0.00  0.00    +0.000 A 
ATOM      4  C   UNL     1      51.385   3.334  17.720  0.00  0.00    +0.000 A 
ATOM      5  C   UNL     1      50.628   4.508  17.834  0.00  0.00    +0.000 A 
ATOM      6  C   UNL     1      49.266   4.513  17.513  0.00  0.00    +0.000 A 
ENDROOT
BRANCH   1   7
ATOM      7  C   UNL     1      47.161   3.353  16.732  0.00  0.00    +0.000 C 
BRANCH   7  10
ATOM      8  C   UNL     1      46.874   4.247  14.456  0.00  0.00    +0.000 C 
ATOM      9  O   UNL     1      47.181   3.167  13.953  0.00  0.00    +0.000 OA
ATOM     10  N   UNL     1      46.847   4.416  15.812  0.00  0.00    +0.000 N 
ATOM     11  H   UNL     1      46.639   5.323  16.205  0.00  0.00    +0.000 HD
BRANCH   8  19
ATOM     12  C   UNL     1      44.077   5.085  12.627  0.00  0.00    +0.000 A 
ATOM     13  N   UNL     1      43.135   5.650  11.848  0.00  0.00    +0.000 NA
ATOM     14  C   UNL     1      43.408   6.832  11.289  0.00  0.00    +0.000 A 
ATOM     15  N   UNL     1      44.529   7.536  11.414  0.00  0.00    +0.000 NA
ATOM     16  C   UNL     1      45.439   6.941  12.204  0.00  0.00    +0.000 A 
ATOM     17  S   UNL     1      46.932   7.700  12.476  0.00  0.00    +0.000 S 
ATOM     18  C   UNL     1      47.453   6.427  13.474  0.00  0.00    +0.000 A 
ATOM     19  C   UNL     1      46.518   5.409  13.621  0.00  0.00    +0.000 A 
ATOM     20  C   UNL     1      45.311   5.721  12.860  0.00  0.00    +0.000 A 
BRANCH  12  22
ATOM     21  C   UNL     1      43.566   2.822  12.310  0.00  0.00    +0.000 C 
ATOM     22  O   UNL     1      43.780   3.884  13.236  0.00  0.00    +0.000 OA
ENDBRANCH  12  22
ENDBRANCH   8  19
ENDBRANCH   7  10
ENDBRANCH   1   7
BRANCH   4  23
ATOM     23  C   UNL     1      52.860   3.327  18.056  0.00  0.00    +0.000 C 
BRANCH  23  24
ATOM     24  N   UNL     1      53.206   2.161  18.869  0.00  0.00    +0.000 NA
ATOM     25  H   UNL     1      52.677   1.357  18.530  0.00  0.00    +0.000 HD
BRANCH  24  26
ATOM     26  C   UNL     1      54.635   1.863  18.811  0.00  0.00    +0.000 C 
BRANCH  26  27
ATOM     27  C   UNL     1      54.909   0.731  17.856  0.00  0.00    +0.000 A 
ATOM     28  C   UNL     1      55.411   0.963  16.578  0.00  0.00    +0.000 A 
ATOM     29  N   UNL     1      55.682  -0.011  15.677  0.00  0.00    +0.000 NA
ATOM     30  C   UNL     1      55.435  -1.284  16.070  0.00  0.00    +0.000 A 
ATOM     31  C   UNL     1      54.941  -1.624  17.319  0.00  0.00    +0.000 A 
ATOM     32 CL   UNL     1      54.658  -3.263  17.741  0.00  0.00    +0.000 Cl
ATOM     33  C   UNL     1      54.678  -0.603  18.225  0.00  0.00    +0.000 A 
ENDBRANCH  26  27
ENDBRANCH  24  26
ENDBRANCH  23  24
ENDBRANCH   4  23
TORSDOF 8
ENDMDL
MODEL 6
REMARK VINA RESULT:    -6.472      3.032      3.889
REMARK INTER + INTRA:         -10.935
REMARK INTER:                 -10.219
REMARK INTRA:                  -0.716
REMARK UNBOUND:                -1.436
REMARK  Name = 
REMARK  9 active torsions:
REMARK  status: ('A' for Active; 'I' for Inactive)
REMARK    1  A    between atoms: C_1  and  O_2
REMARK    2  A    between atoms: O_2  and  C_3
REMARK    3  A    between atoms: C_10  and  C_11
REMARK    4  A    between atoms: N_13  and  C_14
REMARK    5  A    between atoms: C_14  and  C_15
REMARK    6  A    between atoms: C_18  and  C_19
REMARK    7  A    between atoms: C_19  and  N_20
REMARK    8  A    between atoms: N_20  and  C_21
REMARK    9  A    between atoms: C_21  and  C_22
REMARK                            x       y       z     vdW  Elec       q    Type
REMARK                         _______ _______ _______ _____ _____    ______ ____
ROOT
ATOM      1  C   UNL     1      47.948   5.840  15.245  0.00  0.00    +0.000 A 
ATOM      2  C   UNL     1      47.943   6.737  14.169  0.00  0.00    +0.000 A 
ATOM      3  C   UNL     1      47.213   6.455  13.011  0.00  0.00    +0.000 A 
ATOM      4  C   UNL     1      46.465   5.272  12.903  0.00  0.00    +0.000 A 
ATOM      5  C   UNL     1      46.449   4.390  13.991  0.00  0.00    +0.000 A 
ATOM      6  C   UNL     1      47.178   4.673  15.151  0.00  0.00    +0.000 A 
ENDROOT
BRANCH   1   7
ATOM      7  C   UNL     1      48.720   6.149  16.504  0.00  0.00    +0.000 C 
BRANCH   7  10
ATOM      8  C   UNL     1      49.728   4.187  17.597  0.00  0.00    +0.000 C 
ATOM      9  O   UNL     1      48.739   4.030  18.311  0.00  0.00    +0.000 OA
ATOM     10  N   UNL     1      49.793   5.207  16.690  0.00  0.00    +0.000 N 
ATOM     11  H   UNL     1      50.633   5.348  16.147  0.00  0.00    +0.000 HD
BRANCH   8  19
ATOM     12  C   UNL     1      53.040   4.649  18.425  0.00  0.00    +0.000 A 
ATOM     13  N   UNL     1      54.355   4.546  18.697  0.00  0.00    +0.000 NA
ATOM     14  C   UNL     1      54.929   3.346  18.581  0.00  0.00    +0.000 A 
ATOM     15  N   UNL     1      54.341   2.209  18.220  0.00  0.00    +0.000 NA
ATOM     16  C   UNL     1      53.029   2.354  17.964  0.00  0.00    +0.000 A 
ATOM     17  S   UNL     1      52.117   1.004  17.490  0.00  0.00    +0.000 S 
ATOM     18  C   UNL     1      50.703   1.939  17.370  0.00  0.00    +0.000 A 
ATOM     19  C   UNL     1      50.888   3.281  17.683  0.00  0.00    +0.000 A 
ATOM     20  C   UNL     1      52.283   3.526  18.041  0.00  0.00    +0.000 A 
BRANCH  12  22
ATOM     21  C   UNL     1      52.849   6.834  17.607  0.00  0.00    +0.000 C 
ATOM     22  O   UNL     1      52.439   5.880  18.583  0.00  0.00    +0.000 OA
ENDBRANCH  12  22
ENDBRANCH   8  19
ENDBRANCH   7  10
ENDBRANCH   1   7
BRANCH   4  23
ATOM     23  C   UNL     1      45.687   4.965  11.642  0.00  0.00    +0.000 C 
BRANCH  23  24
ATOM     24  N   UNL     1      44.793   3.824  11.844  0.00  0.00    +0.000 NA
ATOM     25  H   UNL     1      44.169   4.032  12.623  0.00  0.00    +0.000 HD
BRANCH  24  26
ATOM     26  C   UNL     1      44.001   3.537  10.650  0.00  0.00    +0.000 C 
BRANCH  26  27
ATOM     27  C   UNL     1      44.893   3.300   9.459  0.00  0.00    +0.000 A 
ATOM     28  C   UNL     1      45.281   4.344   8.622  0.00  0.00    +0.000 A 
ATOM     29  N   UNL     1      46.083   4.194   7.541  0.00  0.00    +0.000 NA
ATOM     30  C   UNL     1      46.517   2.938   7.278  0.00  0.00    +0.000 A 
ATOM     31  C   UNL     1      46.194   1.833   8.049  0.00  0.00    +0.000 A 
ATOM     32 CL   UNL     1      46.788   0.273   7.650  0.00  0.00    +0.000 Cl
ATOM     33  C   UNL     1      45.374   2.018   9.156  0.00  0.00    +0.000 A 
ENDBRANCH  26  27
ENDBRANCH  24  26
ENDBRANCH  23  24
ENDBRANCH   4  23
TORSDOF 8
ENDMDL
MODEL 7
REMARK VINA RESULT:    -6.325      2.548      3.399
REMARK INTER + INTRA:         -10.719
REMARK INTER:                  -9.538
REMARK INTRA:                  -1.181
REMARK UNBOUND:                -1.436
REMARK  Name = 
REMARK  9 active torsions:
REMARK  status: ('A' for Active; 'I' for Inactive)
REMARK    1  A    between atoms: C_1  and  O_2
REMARK    2  A    between atoms: O_2  and  C_3
REMARK    3  A    between atoms: C_10  and  C_11
REMARK    4  A    between atoms: N_13  and  C_14
REMARK    5  A    between atoms: C_14  and  C_15
REMARK    6  A    between atoms: C_18  and  C_19
REMARK    7  A    between atoms: C_19  and  N_20
REMARK    8  A    between atoms: N_20  and  C_21
REMARK    9  A    between atoms: C_21  and  C_22
REMARK                            x       y       z     vdW  Elec       q    Type
REMARK                         _______ _______ _______ _____ _____    ______ ____
ROOT
ATOM      1  C   UNL     1      47.433   8.611  12.113  0.00  0.00    +0.000 A 
ATOM      2  C   UNL     1      47.680   7.258  11.844  0.00  0.00    +0.000 A 
ATOM      3  C   UNL     1      46.621   6.361  11.675  0.00  0.00    +0.000 A 
ATOM      4  C   UNL     1      45.290   6.796  11.764  0.00  0.00    +0.000 A 
ATOM      5  C   UNL     1      45.044   8.154  12.004  0.00  0.00    +0.000 A 
ATOM      6  C   UNL     1      46.104   9.053  12.172  0.00  0.00    +0.000 A 
ENDROOT
BRANCH   1   7
ATOM      7  C   UNL     1      48.572   9.585  12.278  0.00  0.00    +0.000 C 
BRANCH   7  10
ATOM      8  C   UNL     1      50.934   9.539  12.972  0.00  0.00    +0.000 C 
ATOM      9  O   UNL     1      51.136  10.653  12.491  0.00  0.00    +0.000 OA
ATOM     10  N   UNL     1      49.704   8.949  12.902  0.00  0.00    +0.000 N 
ATOM     11  H   UNL     1      49.569   8.014  13.261  0.00  0.00    +0.000 HD
BRANCH   8  19
ATOM     12  C   UNL     1      50.975   7.308  15.597  0.00  0.00    +0.000 A 
ATOM     13  N   UNL     1      51.275   6.432  16.575  0.00  0.00    +0.000 NA
ATOM     14  C   UNL     1      52.557   6.096  16.745  0.00  0.00    +0.000 A 
ATOM     15  N   UNL     1      53.599   6.535  16.045  0.00  0.00    +0.000 NA
ATOM     16  C   UNL     1      53.255   7.400  15.076  0.00  0.00    +0.000 A 
ATOM     17  S   UNL     1      54.461   8.062  14.082  0.00  0.00    +0.000 S 
ATOM     18  C   UNL     1      53.315   8.966  13.211  0.00  0.00    +0.000 A 
ATOM     19  C   UNL     1      52.008   8.789  13.650  0.00  0.00    +0.000 A 
ATOM     20  C   UNL     1      51.975   7.848  14.767  0.00  0.00    +0.000 A 
BRANCH  12  22
ATOM     21  C   UNL     1      48.838   7.412  16.548  0.00  0.00    +0.000 C 
ATOM     22  O   UNL     1      49.648   7.624  15.395  0.00  0.00    +0.000 OA
ENDBRANCH  12  22
ENDBRANCH   8  19
ENDBRANCH   7  10
ENDBRANCH   1   7
BRANCH   4  23
ATOM     23  C   UNL     1      44.147   5.819  11.593  0.00  0.00    +0.000 C 
BRANCH  23  24
ATOM     24  N   UNL     1      44.641   4.445  11.507  0.00  0.00    +0.000 NA
ATOM     25  H   UNL     1      44.468   3.979  12.399  0.00  0.00    +0.000 HD
BRANCH  24  26
ATOM     26  C   UNL     1      43.988   3.699  10.435  0.00  0.00    +0.000 C 
BRANCH  26  27
ATOM     27  C   UNL     1      44.957   3.404   9.319  0.00  0.00    +0.000 A 
ATOM     28  C   UNL     1      45.492   4.422   8.533  0.00  0.00    +0.000 A 
ATOM     29  N   UNL     1      46.369   4.221   7.521  0.00  0.00    +0.000 NA
ATOM     30  C   UNL     1      46.730   2.938   7.277  0.00  0.00    +0.000 A 
ATOM     31  C   UNL     1      46.261   1.854   8.003  0.00  0.00    +0.000 A 
ATOM     32 CL   UNL     1      46.769   0.257   7.634  0.00  0.00    +0.000 Cl
ATOM     33  C   UNL     1      45.366   2.092   9.040  0.00  0.00    +0.000 A 
ENDBRANCH  26  27
ENDBRANCH  24  26
ENDBRANCH  23  24
ENDBRANCH   4  23
TORSDOF 8
ENDMDL
MODEL 8
REMARK VINA RESULT:    -6.236      3.815      8.860
REMARK INTER + INTRA:         -10.588
REMARK INTER:                  -8.866
REMARK INTRA:                  -1.722
REMARK UNBOUND:                -1.436
REMARK  Name = 
REMARK  9 active torsions:
REMARK  status: ('A' for Active; 'I' for Inactive)
REMARK    1  A    between atoms: C_1  and  O_2
REMARK    2  A    between atoms: O_2  and  C_3
REMARK    3  A    between atoms: C_10  and  C_11
REMARK    4  A    between atoms: N_13  and  C_14
REMARK    5  A    between atoms: C_14  and  C_15
REMARK    6  A    between atoms: C_18  and  C_19
REMARK    7  A    between atoms: C_19  and  N_20
REMARK    8  A    between atoms: N_20  and  C_21
REMARK    9  A    between atoms: C_21  and  C_22
REMARK                            x       y       z     vdW  Elec       q    Type
REMARK                         _______ _______ _______ _____ _____    ______ ____
ROOT
ATOM      1  C   UNL     1      48.346   3.861  17.720  0.00  0.00    +0.000 A 
ATOM      2  C   UNL     1      48.171   4.747  18.791  0.00  0.00    +0.000 A 
ATOM      3  C   UNL     1      49.266   5.173  19.548  0.00  0.00    +0.000 A 
ATOM      4  C   UNL     1      50.563   4.728  19.250  0.00  0.00    +0.000 A 
ATOM      5  C   UNL     1      50.740   3.865  18.162  0.00  0.00    +0.000 A 
ATOM      6  C   UNL     1      49.645   3.440  17.402  0.00  0.00    +0.000 A 
ENDROOT
BRANCH   1   7
ATOM      7  C   UNL     1      47.171   3.413  16.889  0.00  0.00    +0.000 C 
BRANCH   7  10
ATOM      8  C   UNL     1      46.930   4.264  14.591  0.00  0.00    +0.000 C 
ATOM      9  O   UNL     1      47.390   3.226  14.118  0.00  0.00    +0.000 OA
ATOM     10  N   UNL     1      46.797   4.431  15.941  0.00  0.00    +0.000 N 
ATOM     11  H   UNL     1      46.461   5.308  16.312  0.00  0.00    +0.000 HD
BRANCH   8  19
ATOM     12  C   UNL     1      44.176   4.776  12.586  0.00  0.00    +0.000 A 
ATOM     13  N   UNL     1      43.225   5.229  11.745  0.00  0.00    +0.000 NA
ATOM     14  C   UNL     1      43.397   6.433  11.193  0.00  0.00    +0.000 A 
ATOM     15  N   UNL     1      44.422   7.260  11.380  0.00  0.00    +0.000 NA
ATOM     16  C   UNL     1      45.343   6.774  12.230  0.00  0.00    +0.000 A 
ATOM     17  S   UNL     1      46.720   7.698  12.586  0.00  0.00    +0.000 S 
ATOM     18  C   UNL     1      47.319   6.494  13.626  0.00  0.00    +0.000 A 
ATOM     19  C   UNL     1      46.498   5.377  13.725  0.00  0.00    +0.000 A 
ATOM     20  C   UNL     1      45.313   5.548  12.888  0.00  0.00    +0.000 A 
BRANCH  12  22
ATOM     21  C   UNL     1      43.507   2.552  12.286  0.00  0.00    +0.000 C 
ATOM     22  O   UNL     1      43.979   3.551  13.187  0.00  0.00    +0.000 OA
ENDBRANCH  12  22
ENDBRANCH   8  19
ENDBRANCH   7  10
ENDBRANCH   1   7
BRANCH   4  23
ATOM     23  C   UNL     1      51.744   5.182  20.081  0.00  0.00    +0.000 C 
BRANCH  23  24
ATOM     24  N   UNL     1      52.707   5.920  19.264  0.00  0.00    +0.000 NA
ATOM     25  H   UNL     1      52.765   5.476  18.347  0.00  0.00    +0.000 HD
BRANCH  24  26
ATOM     26  C   UNL     1      52.322   7.320  19.103  0.00  0.00    +0.000 C 
BRANCH  26  27
ATOM     27  C   UNL     1      51.688   7.551  17.757  0.00  0.00    +0.000 A 
ATOM     28  C   UNL     1      52.339   7.203  16.576  0.00  0.00    +0.000 A 
ATOM     29  N   UNL     1      51.819   7.381  15.339  0.00  0.00    +0.000 NA
ATOM     30  C   UNL     1      50.587   7.940  15.274  0.00  0.00    +0.000 A 
ATOM     31  C   UNL     1      49.852   8.318  16.386  0.00  0.00    +0.000 A 
ATOM     32 CL   UNL     1      48.294   9.018  16.221  0.00  0.00    +0.000 Cl
ATOM     33  C   UNL     1      50.409   8.117  17.644  0.00  0.00    +0.000 A 
ENDBRANCH  26  27
ENDBRANCH  24  26
ENDBRANCH  23  24
ENDBRANCH   4  23
TORSDOF 8
ENDMDL
MODEL 9
REMARK VINA RESULT:    -6.092      3.657      8.384
REMARK INTER + INTRA:         -10.377
REMARK INTER:                  -8.772
REMARK INTRA:                  -1.605
REMARK UNBOUND:                -1.436
REMARK  Name = 
REMARK  9 active torsions:
REMARK  status: ('A' for Active; 'I' for Inactive)
REMARK    1  A    between atoms: C_1  and  O_2
REMARK    2  A    between atoms: O_2  and  C_3
REMARK    3  A    between atoms: C_10  and  C_11
REMARK    4  A    between atoms: N_13  and  C_14
REMARK    5  A    between atoms: C_14  and  C_15
REMARK    6  A    between atoms: C_18  and  C_19
REMARK    7  A    between atoms: C_19  and  N_20
REMARK    8  A    between atoms: N_20  and  C_21
REMARK    9  A    between atoms: C_21  and  C_22
REMARK                            x       y       z     vdW  Elec       q    Type
REMARK                         _______ _______ _______ _____ _____    ______ ____
ROOT
ATOM      1  C   UNL     1      48.268   8.652  15.538  0.00  0.00    +0.000 A 
ATOM      2  C   UNL     1      47.961   9.556  16.564  0.00  0.00    +0.000 A 
ATOM      3  C   UNL     1      48.204   9.224  17.900  0.00  0.00    +0.000 A 
ATOM      4  C   UNL     1      48.763   7.984  18.243  0.00  0.00    +0.000 A 
ATOM      5  C   UNL     1      49.095   7.093  17.214  0.00  0.00    +0.000 A 
ATOM      6  C   UNL     1      48.855   7.425  15.876  0.00  0.00    +0.000 A 
ENDROOT
BRANCH   1   7
ATOM      7  C   UNL     1      48.026   9.013  14.094  0.00  0.00    +0.000 C 
BRANCH   7  10
ATOM      8  C   UNL     1      46.939   7.348  12.643  0.00  0.00    +0.000 C 
ATOM      9  O   UNL     1      48.020   6.996  12.174  0.00  0.00    +0.000 OA
ATOM     10  N   UNL     1      46.862   8.334  13.585  0.00  0.00    +0.000 N 
ATOM     11  H   UNL     1      45.961   8.642  13.923  0.00  0.00    +0.000 HD
BRANCH   8  19
ATOM     12  C   UNL     1      45.701   4.138  12.831  0.00  0.00    +0.000 A 
ATOM     13  N   UNL     1      44.988   2.997  12.772  0.00  0.00    +0.000 NA
ATOM     14  C   UNL     1      43.782   3.038  12.198  0.00  0.00    +0.000 A 
ATOM     15  N   UNL     1      43.187   4.101  11.664  0.00  0.00    +0.000 NA
ATOM     16  C   UNL     1      43.928   5.219  11.750  0.00  0.00    +0.000 A 
ATOM     17  S   UNL     1      43.322   6.673  11.120  0.00  0.00    +0.000 S 
ATOM     18  C   UNL     1      44.726   7.514  11.580  0.00  0.00    +0.000 A 
ATOM     19  C   UNL     1      45.675   6.720  12.214  0.00  0.00    +0.000 A 
ATOM     20  C   UNL     1      45.193   5.345  12.316  0.00  0.00    +0.000 A 
BRANCH  12  22
ATOM     21  C   UNL     1      46.865   4.466  14.836  0.00  0.00    +0.000 C 
ATOM     22  O   UNL     1      46.928   4.103  13.459  0.00  0.00    +0.000 OA
ENDBRANCH  12  22
ENDBRANCH   8  19
ENDBRANCH   7  10
ENDBRANCH   1   7
BRANCH   4  23
ATOM     23  C   UNL     1      49.012   7.624  19.692  0.00  0.00    +0.000 C 
BRANCH  23  24
ATOM     24  N   UNL     1      48.271   6.419  20.067  0.00  0.00    +0.000 NA
ATOM     25  H   UNL     1      47.810   6.048  19.236  0.00  0.00    +0.000 HD
BRANCH  24  26
ATOM     26  C   UNL     1      49.147   5.398  20.635  0.00  0.00    +0.000 C 
BRANCH  26  27
ATOM     27  C   UNL     1      49.845   4.624  19.547  0.00  0.00    +0.000 A 
ATOM     28  C   UNL     1      51.228   4.681  19.387  0.00  0.00    +0.000 A 
ATOM     29  N   UNL     1      51.912   4.007  18.434  0.00  0.00    +0.000 NA
ATOM     30  C   UNL     1      51.180   3.237  17.592  0.00  0.00    +0.000 A 
ATOM     31  C   UNL     1      49.803   3.107  17.668  0.00  0.00    +0.000 A 
ATOM     32 CL   UNL     1      48.947   2.109  16.565  0.00  0.00    +0.000 Cl
ATOM     33  C   UNL     1      49.127   3.807  18.661  0.00  0.00    +0.000 A 
ENDBRANCH  26  27
ENDBRANCH  24  26
ENDBRANCH  23  24
ENDBRANCH   4  23
TORSDOF 8
ENDMDL
