MODEL 1
REMARK VINA RESULT:    -8.696      0.000      0.000
REMARK INTER + INTRA:         -11.584
REMARK INTER:                 -10.984
REMARK INTRA:                  -0.600
REMARK UNBOUND:                -0.600
REMARK  Name = 
REMARK  5 active torsions:
REMARK  status: ('A' for Active; 'I' for Inactive)
REMARK    1  A    between atoms: C_2  and  C_4
REMARK    2  A    between atoms: C_7  and  C_8
REMARK    3  A    between atoms: C_8  and  C_9
REMARK    4  A    between atoms: C_9  and  N_10
REMARK    5  A    between atoms: C_9  and  C_11
REMARK                            x       y       z     vdW  Elec       q    Type
REMARK                         _______ _______ _______ _____ _____    ______ ____
ROOT
ATOM      1  C   UNL     1      44.168   5.550  11.325  0.00  0.00    +0.000 C 
ENDROOT
BRANCH   1   2
ATOM      2  C   UNL     1      45.273   5.163  12.294  0.00  0.00    +0.000 A 
ATOM      3  C   UNL     1      45.527   3.843  12.638  0.00  0.00    +0.000 A 
ATOM      4  S   UNL     1      46.812   3.661  13.746  0.00  0.00    +0.000 S 
ATOM      5  C   UNL     1      47.083   5.341  13.798  0.00  0.00    +0.000 A 
ATOM      6  N   UNL     1      48.063   5.867  14.581  0.00  0.00    +0.000 NA
ATOM      7  C   UNL     1      48.160   7.153  14.518  0.00  0.00    +0.000 A 
ATOM      8  N   UNL     1      47.367   7.961  13.742  0.00  0.00    +0.000 N 
ATOM      9  C   UNL     1      46.388   7.473  12.903  0.00  0.00    +0.000 A 
ATOM     10  O   UNL     1      45.745   8.216  12.170  0.00  0.00    +0.000 OA
ATOM     11  C   UNL     1      46.215   6.029  12.969  0.00  0.00    +0.000 A 
ATOM     12  H   UNL     1      47.511   8.958  13.725  0.00  0.00    +0.000 HD
ENDBRANCH   1   2
BRANCH   1  13
ATOM     13  N   UNL     1      43.119   6.219  12.097  0.00  0.00    +0.000 NA
ATOM     14  H   UNL     1      43.040   5.737  12.999  0.00  0.00    +0.000 HD
ATOM     15  H   UNL     1      42.223   6.052  11.642  0.00  0.00    +0.000 HD
ENDBRANCH   1  13
BRANCH   1  16
ATOM     16  C   UNL     1      43.663   4.376  10.452  0.00  0.00    +0.000 C 
BRANCH  16  20
ATOM     17  C   UNL     1      46.492   2.520   7.723  0.00  0.00    +0.000 A 
ATOM     18  C   UNL     1      46.374   3.914   7.751  0.00  0.00    +0.000 A 
ATOM     19  C   UNL     1      45.472   4.529   8.630  0.00  0.00    +0.000 A 
ATOM     20  C   UNL     1      44.656   3.761   9.475  0.00  0.00    +0.000 A 
ATOM     21  C   UNL     1      44.800   2.364   9.450  0.00  0.00    +0.000 A 
ATOM     22  C   UNL     1      45.701   1.749   8.577  0.00  0.00    +0.000 A 
BRANCH  17  24
ATOM     23  N   UNL     1      48.493   2.523   6.325  0.00  0.00    +0.000 N 
ATOM     24  C   UNL     1      47.417   1.821   6.791  0.00  0.00    +0.000 C 
ATOM     25  O   UNL     1      47.247   0.651   6.474  0.00  0.00    +0.000 OA
ATOM     26  H   UNL     1      49.164   1.998   5.779  0.00  0.00    +0.000 HD
ATOM     27  H   UNL     1      48.807   3.380   6.756  0.00  0.00    +0.000 HD
ENDBRANCH  17  24
ENDBRANCH  16  20
ENDBRANCH   1  16
TORSDOF 5
ENDMDL
MODEL 2
REMARK VINA RESULT:    -8.516      1.605      2.021
REMARK INTER + INTRA:         -11.356
REMARK INTER:                 -10.811
REMARK INTRA:                  -0.545
REMARK UNBOUND:                -0.600
REMARK  Name = 
REMARK  5 active torsions:
REMARK  status: ('A' for Active; 'I' for Inactive)
REMARK    1  A    between atoms: C_2  and  C_4
REMARK    2  A    between atoms: C_7  and  C_8
REMARK    3  A    between atoms: C_8  and  C_9
REMARK    4  A    between atoms: C_9  and  N_10
REMARK    5  A    between atoms: C_9  and  C_11
REMARK                            x       y       z     vdW  Elec       q    Type
REMARK                         _______ _______ _______ _____ _____    ______ ____
ROOT
ATOM      1  C   UNL     1      43.877   5.748  10.905  0.00  0.00    +0.000 C 
ENDROOT
BRANCH   1   2
ATOM      2  C   UNL     1      45.226   6.059  11.529  0.00  0.00    +0.000 A 
ATOM      3  C   UNL     1      46.084   7.014  11.003  0.00  0.00    +0.000 A 
ATOM      4  S   UNL     1      47.541   7.180  11.877  0.00  0.00    +0.000 S 
ATOM      5  C   UNL     1      47.073   5.986  12.997  0.00  0.00    +0.000 A 
ATOM      6  N   UNL     1      47.893   5.633  14.024  0.00  0.00    +0.000 NA
ATOM      7  C   UNL     1      47.409   4.720  14.800  0.00  0.00    +0.000 A 
ATOM      8  N   UNL     1      46.180   4.130  14.642  0.00  0.00    +0.000 N 
ATOM      9  C   UNL     1      45.299   4.482  13.641  0.00  0.00    +0.000 A 
ATOM     10  O   UNL     1      44.180   3.985  13.571  0.00  0.00    +0.000 OA
ATOM     11  C   UNL     1      45.817   5.480  12.718  0.00  0.00    +0.000 A 
ATOM     12  H   UNL     1      45.855   3.438  15.297  0.00  0.00    +0.000 HD
ENDBRANCH   1   2
BRANCH   1  13
ATOM     13  N   UNL     1      42.844   6.267  11.805  0.00  0.00    +0.000 NA
ATOM     14  H   UNL     1      41.932   6.026  11.403  0.00  0.00    +0.000 HD
ATOM     15  H   UNL     1      42.871   7.286  11.777  0.00  0.00    +0.000 HD
ENDBRANCH   1  13
BRANCH   1  16
ATOM     16  C   UNL     1      43.694   4.260  10.521  0.00  0.00    +0.000 C 
BRANCH  16  20
ATOM     17  C   UNL     1      46.503   2.504   7.705  0.00  0.00    +0.000 A 
ATOM     18  C   UNL     1      46.271   3.884   7.678  0.00  0.00    +0.000 A 
ATOM     19  C   UNL     1      45.374   4.467   8.585  0.00  0.00    +0.000 A 
ATOM     20  C   UNL     1      44.676   3.679   9.512  0.00  0.00    +0.000 A 
ATOM     21  C   UNL     1      44.934   2.299   9.540  0.00  0.00    +0.000 A 
ATOM     22  C   UNL     1      45.830   1.715   8.641  0.00  0.00    +0.000 A 
BRANCH  17  24
ATOM     23  N   UNL     1      48.499   2.554   6.302  0.00  0.00    +0.000 N 
ATOM     24  C   UNL     1      47.425   1.836   6.749  0.00  0.00    +0.000 C 
ATOM     25  O   UNL     1      47.258   0.676   6.397  0.00  0.00    +0.000 OA
ATOM     26  H   UNL     1      49.169   2.048   5.737  0.00  0.00    +0.000 HD
ATOM     27  H   UNL     1      48.812   3.399   6.758  0.00  0.00    +0.000 HD
ENDBRANCH  17  24
ENDBRANCH  16  20
ENDBRANCH   1  16
TORSDOF 5
ENDMDL
MODEL 3
REMARK VINA RESULT:    -8.250      1.633      2.358
REMARK INTER + INTRA:         -11.020
REMARK INTER:                 -10.838
REMARK INTRA:                  -0.182
REMARK UNBOUND:                -0.600
REMARK  Name = 
REMARK  5 active torsions:
REMARK  status: ('A' for Active; 'I' for Inactive)
REMARK    1  A    between atoms: C_2  and  C_4
REMARK    2  A    between atoms: C_7  and  C_8
REMARK    3  A    between atoms: C_8  and  C_9
REMARK    4  A    between atoms: C_9  and  N_10
REMARK    5  A    between atoms: C_9  and  C_11
REMARK                            x       y       z     vdW  Elec       q    Type
REMARK                         _______ _______ _______ _____ _____    ______ ____
ROOT
ATOM      1  C   UNL     1      44.191   3.822  12.101  0.00  0.00    +0.000 C 
ENDROOT
BRANCH   1   2
ATOM      2  C   UNL     1      45.227   4.885  12.425  0.00  0.00    +0.000 A 
ATOM      3  C   UNL     1      46.467   4.572  12.964  0.00  0.00    +0.000 A 
ATOM      4  S   UNL     1      47.454   5.936  13.244  0.00  0.00    +0.000 S 
ATOM      5  C   UNL     1      46.263   6.994  12.645  0.00  0.00    +0.000 A 
ATOM      6  N   UNL     1      46.475   8.338  12.612  0.00  0.00    +0.000 NA
ATOM      7  C   UNL     1      45.491   9.019  12.127  0.00  0.00    +0.000 A 
ATOM      8  N   UNL     1      44.314   8.479  11.672  0.00  0.00    +0.000 N 
ATOM      9  C   UNL     1      44.068   7.122  11.650  0.00  0.00    +0.000 A 
ATOM     10  O   UNL     1      43.034   6.669  11.171  0.00  0.00    +0.000 OA
ATOM     11  C   UNL     1      45.135   6.316  12.223  0.00  0.00    +0.000 A 
ATOM     12  H   UNL     1      43.594   9.068  11.287  0.00  0.00    +0.000 HD
ENDBRANCH   1   2
BRANCH   1  13
ATOM     13  N   UNL     1      44.736   2.531  12.528  0.00  0.00    +0.000 NA
ATOM     14  H   UNL     1      45.064   2.039  11.690  0.00  0.00    +0.000 HD
ATOM     15  H   UNL     1      43.971   1.954  12.876  0.00  0.00    +0.000 HD
ENDBRANCH   1  13
BRANCH   1  16
ATOM     16  C   UNL     1      43.704   3.851  10.632  0.00  0.00    +0.000 C 
BRANCH  16  20
ATOM     17  C   UNL     1      46.515   2.663   7.536  0.00  0.00    +0.000 A 
ATOM     18  C   UNL     1      45.919   1.685   8.338  0.00  0.00    +0.000 A 
ATOM     19  C   UNL     1      45.004   2.050   9.336  0.00  0.00    +0.000 A 
ATOM     20  C   UNL     1      44.692   3.398   9.565  0.00  0.00    +0.000 A 
ATOM     21  C   UNL     1      45.283   4.368   8.739  0.00  0.00    +0.000 A 
ATOM     22  C   UNL     1      46.192   4.007   7.741  0.00  0.00    +0.000 A 
BRANCH  17  24
ATOM     23  N   UNL     1      47.561   3.139   5.383  0.00  0.00    +0.000 N 
ATOM     24  C   UNL     1      47.508   2.327   6.482  0.00  0.00    +0.000 C 
ATOM     25  O   UNL     1      48.278   1.383   6.600  0.00  0.00    +0.000 OA
ATOM     26  H   UNL     1      48.312   2.956   4.730  0.00  0.00    +0.000 HD
ATOM     27  H   UNL     1      47.139   4.056   5.368  0.00  0.00    +0.000 HD
ENDBRANCH  17  24
ENDBRANCH  16  20
ENDBRANCH   1  16
TORSDOF 5
ENDMDL
MODEL 4
REMARK VINA RESULT:    -6.645      3.354      4.557
REMARK INTER + INTRA:          -8.993
REMARK INTER:                  -8.945
REMARK INTRA:                  -0.048
REMARK UNBOUND:                -0.600
REMARK  Name = 
REMARK  5 active torsions:
REMARK  status: ('A' for Active; 'I' for Inactive)
REMARK    1  A    between atoms: C_2  and  C_4
REMARK    2  A    between atoms: C_7  and  C_8
REMARK    3  A    between atoms: C_8  and  C_9
REMARK    4  A    between atoms: C_9  and  N_10
REMARK    5  A    between atoms: C_9  and  C_11
REMARK                            x       y       z     vdW  Elec       q    Type
REMARK                         _______ _______ _______ _____ _____    ______ ____
ROOT
ATOM      1  C   UNL     1      46.539   4.431  14.579  0.00  0.00    +0.000 C 
ENDROOT
BRANCH   1   2
ATOM      2  C   UNL     1      47.582   5.115  15.447  0.00  0.00    +0.000 A 
ATOM      3  C   UNL     1      48.288   6.230  15.018  0.00  0.00    +0.000 A 
ATOM      4  S   UNL     1      49.405   6.815  16.167  0.00  0.00    +0.000 S 
ATOM      5  C   UNL     1      48.979   5.605  17.285  0.00  0.00    +0.000 A 
ATOM      6  N   UNL     1      49.584   5.534  18.502  0.00  0.00    +0.000 NA
ATOM      7  C   UNL     1      49.157   4.572  19.251  0.00  0.00    +0.000 A 
ATOM      8  N   UNL     1      48.181   3.675  18.894  0.00  0.00    +0.000 N 
ATOM      9  C   UNL     1      47.513   3.730  17.690  0.00  0.00    +0.000 A 
ATOM     10  O   UNL     1      46.597   2.958  17.432  0.00  0.00    +0.000 OA
ATOM     11  C   UNL     1      47.986   4.776  16.796  0.00  0.00    +0.000 A 
ATOM     12  H   UNL     1      47.882   2.960  19.537  0.00  0.00    +0.000 HD
ENDBRANCH   1   2
BRANCH   1  13
ATOM     13  N   UNL     1      47.195   3.308  13.904  0.00  0.00    +0.000 NA
ATOM     14  H   UNL     1      47.959   3.690  13.338  0.00  0.00    +0.000 HD
ATOM     15  H   UNL     1      46.547   2.915  13.223  0.00  0.00    +0.000 HD
ENDBRANCH   1  13
BRANCH   1  16
ATOM     16  C   UNL     1      45.789   5.393  13.627  0.00  0.00    +0.000 C 
BRANCH  16  20
ATOM     17  C   UNL     1      45.367   4.254   9.453  0.00  0.00    +0.000 A 
ATOM     18  C   UNL     1      45.005   3.348  10.455  0.00  0.00    +0.000 A 
ATOM     19  C   UNL     1      45.128   3.702  11.806  0.00  0.00    +0.000 A 
ATOM     20  C   UNL     1      45.638   4.955  12.177  0.00  0.00    +0.000 A 
ATOM     21  C   UNL     1      45.978   5.863  11.160  0.00  0.00    +0.000 A 
ATOM     22  C   UNL     1      45.854   5.514   9.813  0.00  0.00    +0.000 A 
BRANCH  17  24
ATOM     23  N   UNL     1      44.170   3.237   7.586  0.00  0.00    +0.000 N 
ATOM     24  C   UNL     1      45.278   3.916   8.008  0.00  0.00    +0.000 C 
ATOM     25  O   UNL     1      46.143   4.260   7.212  0.00  0.00    +0.000 OA
ATOM     26  H   UNL     1      44.080   3.110   6.586  0.00  0.00    +0.000 HD
ATOM     27  H   UNL     1      43.333   3.168   8.146  0.00  0.00    +0.000 HD
ENDBRANCH  17  24
ENDBRANCH  16  20
ENDBRANCH   1  16
TORSDOF 5
ENDMDL
MODEL 5
REMARK VINA RESULT:    -6.574      4.740      6.850
REMARK INTER + INTRA:          -8.903
REMARK INTER:                  -8.382
REMARK INTRA:                  -0.521
REMARK UNBOUND:                -0.600
REMARK  Name = 
REMARK  5 active torsions:
REMARK  status: ('A' for Active; 'I' for Inactive)
REMARK    1  A    between atoms: C_2  and  C_4
REMARK    2  A    between atoms: C_7  and  C_8
REMARK    3  A    between atoms: C_8  and  C_9
REMARK    4  A    between atoms: C_9  and  N_10
REMARK    5  A    between atoms: C_9  and  C_11
REMARK                            x       y       z     vdW  Elec       q    Type
REMARK                         _______ _______ _______ _____ _____    ______ ____
ROOT
ATOM      1  C   UNL     1      47.390   4.279  16.544  0.00  0.00    +0.000 C 
ENDROOT
BRANCH   1   2
ATOM      2  C   UNL     1      48.751   4.425  17.203  0.00  0.00    +0.000 A 
ATOM      3  C   UNL     1      49.139   5.586  17.856  0.00  0.00    +0.000 A 
ATOM      4  S   UNL     1      50.713   5.509  18.511  0.00  0.00    +0.000 S 
ATOM      5  C   UNL     1      50.930   3.916  17.954  0.00  0.00    +0.000 A 
ATOM      6  N   UNL     1      52.095   3.249  18.182  0.00  0.00    +0.000 NA
ATOM      7  C   UNL     1      52.118   2.047  17.710  0.00  0.00    +0.000 A 
ATOM      8  N   UNL     1      51.084   1.451  17.032  0.00  0.00    +0.000 N 
ATOM      9  C   UNL     1      49.873   2.071  16.812  0.00  0.00    +0.000 A 
ATOM     10  O   UNL     1      48.945   1.484  16.265  0.00  0.00    +0.000 OA
ATOM     11  C   UNL     1      49.812   3.443  17.292  0.00  0.00    +0.000 A 
ATOM     12  H   UNL     1      51.163   0.500  16.709  0.00  0.00    +0.000 HD
ENDBRANCH   1   2
BRANCH   1  13
ATOM     13  N   UNL     1      46.649   3.255  17.284  0.00  0.00    +0.000 NA
ATOM     14  H   UNL     1      46.946   3.303  18.264  0.00  0.00    +0.000 HD
ATOM     15  H   UNL     1      46.962   2.337  16.969  0.00  0.00    +0.000 HD
ENDBRANCH   1  13
BRANCH   1  16
ATOM     16  C   UNL     1      47.459   4.035  15.017  0.00  0.00    +0.000 C 
BRANCH  16  20
ATOM     17  C   UNL     1      45.372   6.841  12.435  0.00  0.00    +0.000 A 
ATOM     18  C   UNL     1      46.685   7.115  12.831  0.00  0.00    +0.000 A 
ATOM     19  C   UNL     1      47.375   6.217  13.658  0.00  0.00    +0.000 A 
ATOM     20  C   UNL     1      46.756   5.047  14.121  0.00  0.00    +0.000 A 
ATOM     21  C   UNL     1      45.444   4.775  13.698  0.00  0.00    +0.000 A 
ATOM     22  C   UNL     1      44.755   5.667  12.872  0.00  0.00    +0.000 A 
BRANCH  17  24
ATOM     23  N   UNL     1      43.410   7.319  11.064  0.00  0.00    +0.000 N 
ATOM     24  C   UNL     1      44.591   7.774  11.579  0.00  0.00    +0.000 C 
ATOM     25  O   UNL     1      44.966   8.920  11.368  0.00  0.00    +0.000 OA
ATOM     26  H   UNL     1      42.845   8.001  10.574  0.00  0.00    +0.000 HD
ATOM     27  H   UNL     1      42.947   6.495  11.420  0.00  0.00    +0.000 HD
ENDBRANCH  17  24
ENDBRANCH  16  20
ENDBRANCH   1  16
TORSDOF 5
ENDMDL
MODEL 6
REMARK VINA RESULT:    -6.555      3.390      7.203
REMARK INTER + INTRA:          -8.880
REMARK INTER:                  -8.257
REMARK INTRA:                  -0.623
REMARK UNBOUND:                -0.600
REMARK  Name = 
REMARK  5 active torsions:
REMARK  status: ('A' for Active; 'I' for Inactive)
REMARK    1  A    between atoms: C_2  and  C_4
REMARK    2  A    between atoms: C_7  and  C_8
REMARK    3  A    between atoms: C_8  and  C_9
REMARK    4  A    between atoms: C_9  and  N_10
REMARK    5  A    between atoms: C_9  and  C_11
REMARK                            x       y       z     vdW  Elec       q    Type
REMARK                         _______ _______ _______ _____ _____    ______ ____
ROOT
ATOM      1  C   UNL     1      45.382   5.778  13.256  0.00  0.00    +0.000 C 
ENDROOT
BRANCH   1   2
ATOM      2  C   UNL     1      44.782   4.700  12.369  0.00  0.00    +0.000 A 
ATOM      3  C   UNL     1      43.947   3.710  12.868  0.00  0.00    +0.000 A 
ATOM      4  S   UNL     1      43.404   2.612  11.680  0.00  0.00    +0.000 S 
ATOM      5  C   UNL     1      44.257   3.427  10.453  0.00  0.00    +0.000 A 
ATOM      6  N   UNL     1      44.220   2.986   9.166  0.00  0.00    +0.000 NA
ATOM      7  C   UNL     1      44.907   3.704   8.339  0.00  0.00    +0.000 A 
ATOM      8  N   UNL     1      45.626   4.821   8.683  0.00  0.00    +0.000 N 
ATOM      9  C   UNL     1      45.663   5.328   9.965  0.00  0.00    +0.000 A 
ATOM     10  O   UNL     1      46.257   6.368  10.224  0.00  0.00    +0.000 OA
ATOM     11  C   UNL     1      44.934   4.530  10.939  0.00  0.00    +0.000 A 
ATOM     12  H   UNL     1      46.124   5.346   7.983  0.00  0.00    +0.000 HD
ENDBRANCH   1   2
BRANCH   1  13
ATOM     13  N   UNL     1      44.866   7.068  12.793  0.00  0.00    +0.000 NA
ATOM     14  H   UNL     1      44.678   7.644  13.620  0.00  0.00    +0.000 HD
ATOM     15  H   UNL     1      43.948   6.920  12.375  0.00  0.00    +0.000 HD
ENDBRANCH   1  13
BRANCH   1  16
ATOM     16  C   UNL     1      46.925   5.713  13.361  0.00  0.00    +0.000 C 
BRANCH  16  20
ATOM     17  C   UNL     1      48.518   4.530  17.229  0.00  0.00    +0.000 A 
ATOM     18  C   UNL     1      48.896   5.757  16.674  0.00  0.00    +0.000 A 
ATOM     19  C   UNL     1      48.385   6.157  15.431  0.00  0.00    +0.000 A 
ATOM     20  C   UNL     1      47.512   5.327  14.712  0.00  0.00    +0.000 A 
ATOM     21  C   UNL     1      47.125   4.108  15.292  0.00  0.00    +0.000 A 
ATOM     22  C   UNL     1      47.629   3.708  16.532  0.00  0.00    +0.000 A 
BRANCH  17  24
ATOM     23  N   UNL     1      48.295   3.151  19.231  0.00  0.00    +0.000 N 
ATOM     24  C   UNL     1      49.050   4.051  18.533  0.00  0.00    +0.000 C 
ATOM     25  O   UNL     1      50.139   4.417  18.956  0.00  0.00    +0.000 OA
ATOM     26  H   UNL     1      48.723   2.760  20.060  0.00  0.00    +0.000 HD
ATOM     27  H   UNL     1      47.537   2.637  18.806  0.00  0.00    +0.000 HD
ENDBRANCH  17  24
ENDBRANCH  16  20
ENDBRANCH   1  16
TORSDOF 5
ENDMDL
MODEL 7
REMARK VINA RESULT:    -6.327      3.385      5.364
REMARK INTER + INTRA:          -8.592
REMARK INTER:                  -8.013
REMARK INTRA:                  -0.579
REMARK UNBOUND:                -0.600
REMARK  Name = 
REMARK  5 active torsions:
REMARK  status: ('A' for Active; 'I' for Inactive)
REMARK    1  A    between atoms: C_2  and  C_4
REMARK    2  A    between atoms: C_7  and  C_8
REMARK    3  A    between atoms: C_8  and  C_9
REMARK    4  A    between atoms: C_9  and  N_10
REMARK    5  A    between atoms: C_9  and  C_11
REMARK                            x       y       z     vdW  Elec       q    Type
REMARK                         _______ _______ _______ _____ _____    ______ ____
ROOT
ATOM      1  C   UNL     1      48.668   6.510  14.288  0.00  0.00    +0.000 C 
ENDROOT
BRANCH   1   2
ATOM      2  C   UNL     1      48.781   6.656  15.796  0.00  0.00    +0.000 A 
ATOM      3  C   UNL     1      49.062   7.871  16.404  0.00  0.00    +0.000 A 
ATOM      4  S   UNL     1      49.142   7.780  18.106  0.00  0.00    +0.000 S 
ATOM      5  C   UNL     1      48.796   6.114  18.093  0.00  0.00    +0.000 A 
ATOM      6  N   UNL     1      48.724   5.406  19.253  0.00  0.00    +0.000 NA
ATOM      7  C   UNL     1      48.446   4.155  19.095  0.00  0.00    +0.000 A 
ATOM      8  N   UNL     1      48.234   3.547  17.882  0.00  0.00    +0.000 N 
ATOM      9  C   UNL     1      48.258   4.229  16.684  0.00  0.00    +0.000 A 
ATOM     10  O   UNL     1      47.994   3.670  15.626  0.00  0.00    +0.000 OA
ATOM     11  C   UNL     1      48.605   5.637  16.809  0.00  0.00    +0.000 A 
ATOM     12  H   UNL     1      48.001   2.568  17.833  0.00  0.00    +0.000 HD
ENDBRANCH   1   2
BRANCH   1  13
ATOM     13  N   UNL     1      49.898   7.045  13.699  0.00  0.00    +0.000 NA
ATOM     14  H   UNL     1      50.068   6.543  12.822  0.00  0.00    +0.000 HD
ATOM     15  H   UNL     1      50.683   6.786  14.295  0.00  0.00    +0.000 HD
ENDBRANCH   1  13
BRANCH   1  16
ATOM     16  C   UNL     1      47.368   7.109  13.698  0.00  0.00    +0.000 C 
BRANCH  16  20
ATOM     17  C   UNL     1      44.997   4.628  11.030  0.00  0.00    +0.000 A 
ATOM     18  C   UNL     1      45.134   4.262  12.373  0.00  0.00    +0.000 A 
ATOM     19  C   UNL     1      45.889   5.055  13.248  0.00  0.00    +0.000 A 
ATOM     20  C   UNL     1      46.540   6.210  12.791  0.00  0.00    +0.000 A 
ATOM     21  C   UNL     1      46.376   6.577  11.445  0.00  0.00    +0.000 A 
ATOM     22  C   UNL     1      45.622   5.790  10.571  0.00  0.00    +0.000 A 
BRANCH  17  24
ATOM     23  N   UNL     1      44.102   4.289   8.785  0.00  0.00    +0.000 N 
ATOM     24  C   UNL     1      44.227   3.807  10.058  0.00  0.00    +0.000 C 
ATOM     25  O   UNL     1      43.750   2.723  10.367  0.00  0.00    +0.000 OA
ATOM     26  H   UNL     1      43.667   3.668   8.115  0.00  0.00    +0.000 HD
ATOM     27  H   UNL     1      44.687   5.030   8.428  0.00  0.00    +0.000 HD
ENDBRANCH  17  24
ENDBRANCH  16  20
ENDBRANCH   1  16
TORSDOF 5
ENDMDL
MODEL 8
REMARK VINA RESULT:    -6.083      3.568      5.228
REMARK INTER + INTRA:          -8.283
REMARK INTER:                  -7.767
REMARK INTRA:                  -0.517
REMARK UNBOUND:                -0.600
REMARK  Name = 
REMARK  5 active torsions:
REMARK  status: ('A' for Active; 'I' for Inactive)
REMARK    1  A    between atoms: C_2  and  C_4
REMARK    2  A    between atoms: C_7  and  C_8
REMARK    3  A    between atoms: C_8  and  C_9
REMARK    4  A    between atoms: C_9  and  N_10
REMARK    5  A    between atoms: C_9  and  C_11
REMARK                            x       y       z     vdW  Elec       q    Type
REMARK                         _______ _______ _______ _____ _____    ______ ____
ROOT
ATOM      1  C   UNL     1      48.473   6.806  13.887  0.00  0.00    +0.000 C 
ENDROOT
BRANCH   1   2
ATOM      2  C   UNL     1      48.583   7.560  15.202  0.00  0.00    +0.000 A 
ATOM      3  C   UNL     1      48.439   8.938  15.280  0.00  0.00    +0.000 A 
ATOM      4  S   UNL     1      48.609   9.553  16.863  0.00  0.00    +0.000 S 
ATOM      5  C   UNL     1      48.871   7.998  17.503  0.00  0.00    +0.000 A 
ATOM      6  N   UNL     1      49.096   7.819  18.833  0.00  0.00    +0.000 NA
ATOM      7  C   UNL     1      49.272   6.587  19.180  0.00  0.00    +0.000 A 
ATOM      8  N   UNL     1      49.243   5.519  18.319  0.00  0.00    +0.000 N 
ATOM      9  C   UNL     1      48.981   5.646  16.971  0.00  0.00    +0.000 A 
ATOM     10  O   UNL     1      48.892   4.664  16.242  0.00  0.00    +0.000 OA
ATOM     11  C   UNL     1      48.814   7.021  16.526  0.00  0.00    +0.000 A 
ATOM     12  H   UNL     1      49.368   4.580  18.661  0.00  0.00    +0.000 HD
ENDBRANCH   1   2
BRANCH   1  13
ATOM     13  N   UNL     1      49.767   6.912  13.209  0.00  0.00    +0.000 NA
ATOM     14  H   UNL     1      50.073   7.888  13.273  0.00  0.00    +0.000 HD
ATOM     15  H   UNL     1      49.625   6.757  12.211  0.00  0.00    +0.000 HD
ENDBRANCH   1  13
BRANCH   1  16
ATOM     16  C   UNL     1      47.265   7.235  13.020  0.00  0.00    +0.000 C 
BRANCH  16  20
ATOM     17  C   UNL     1      44.908   3.992  11.340  0.00  0.00    +0.000 A 
ATOM     18  C   UNL     1      45.135   5.145  10.580  0.00  0.00    +0.000 A 
ATOM     19  C   UNL     1      45.900   6.197  11.104  0.00  0.00    +0.000 A 
ATOM     20  C   UNL     1      46.426   6.125  12.403  0.00  0.00    +0.000 A 
ATOM     21  C   UNL     1      46.206   4.953  13.146  0.00  0.00    +0.000 A 
ATOM     22  C   UNL     1      45.448   3.902  12.625  0.00  0.00    +0.000 A 
BRANCH  17  24
ATOM     23  N   UNL     1      44.592   2.117   9.809  0.00  0.00    +0.000 N 
ATOM     24  C   UNL     1      44.084   2.861  10.837  0.00  0.00    +0.000 C 
ATOM     25  O   UNL     1      43.006   2.576  11.342  0.00  0.00    +0.000 OA
ATOM     26  H   UNL     1      44.066   1.291   9.555  0.00  0.00    +0.000 HD
ATOM     27  H   UNL     1      45.567   2.153   9.547  0.00  0.00    +0.000 HD
ENDBRANCH  17  24
ENDBRANCH  16  20
ENDBRANCH   1  16
TORSDOF 5
ENDMDL
