MODEL 1
REMARK VINA RESULT:    -7.731      0.000      0.000
REMARK INTER + INTRA:         -11.401
REMARK INTER:                 -10.443
REMARK INTRA:                  -0.958
REMARK UNBOUND:                -0.958
REMARK  Name = 
REMARK  7 active torsions:
REMARK  status: ('A' for Active; 'I' for Inactive)
REMARK    1  A    between atoms: C_1  and  N_2
REMARK    2  A    between atoms: N_2  and  C_3
REMARK    3  A    between atoms: C_3  and  C_4
REMARK    4  A    between atoms: C_7  and  C_8
REMARK    5  A    between atoms: C_8  and  N_9
REMARK    6  A    between atoms: C_10  and  C_12
REMARK    7  A    between atoms: C_24  and  C_26
REMARK                            x       y       z     vdW  Elec       q    Type
REMARK                         _______ _______ _______ _____ _____    ______ ____
ROOT
ATOM      1  C   UNL     1      46.225   4.266  13.376  0.00  0.00    +0.000 A 
ATOM      2  C   UNL     1      46.810   5.414  12.826  0.00  0.00    +0.000 A 
ATOM      3  C   UNL     1      47.652   6.219  13.596  0.00  0.00    +0.000 A 
ATOM      4  C   UNL     1      47.949   5.875  14.921  0.00  0.00    +0.000 A 
ATOM      5  C   UNL     1      47.342   4.743  15.480  0.00  0.00    +0.000 A 
ATOM      6  C   UNL     1      46.490   3.946  14.715  0.00  0.00    +0.000 A 
ENDROOT
BRANCH   1   7
ATOM      7  C   UNL     1      45.312   3.399  12.547  0.00  0.00    +0.000 C 
BRANCH   7   9
ATOM      8  C   UNL     1      43.302   4.913  12.629  0.00  0.00    +0.000 C 
ATOM      9  N   UNL     1      44.220   4.087  11.853  0.00  0.00    +0.000 N 
ATOM     10  C   UNL     1      44.228   4.339  10.476  0.00  0.00    +0.000 C 
ATOM     11  O   UNL     1      43.363   5.050   9.955  0.00  0.00    +0.000 OA
BRANCH  10  12
ATOM     12  C   UNL     1      45.338   3.718   9.625  0.00  0.00    +0.000 C 
ATOM     13  C   UNL     1      45.561   4.445   8.297  0.00  0.00    +0.000 C 
ATOM     14  C   UNL     1      46.199   3.425   7.362  0.00  0.00    +0.000 C 
ATOM     15  C   UNL     1      45.947   2.057   7.981  0.00  0.00    +0.000 C 
ATOM     16  C   UNL     1      45.003   2.298   9.151  0.00  0.00    +0.000 C 
ENDBRANCH  10  12
ENDBRANCH   7   9
ENDBRANCH   1   7
BRANCH   4  17
ATOM     17  C   UNL     1      48.888   6.717  15.743  0.00  0.00    +0.000 C 
BRANCH  17  18
ATOM     18  N   UNL     1      49.979   5.936  16.264  0.00  0.00    +0.000 N 
ATOM     19  C   UNL     1      49.966   5.500  17.564  0.00  0.00    +0.000 C 
ATOM     20  O   UNL     1      49.015   5.713  18.310  0.00  0.00    +0.000 OA
ATOM     21  H   UNL     1      50.849   5.939  15.741  0.00  0.00    +0.000 HD
BRANCH  19  22
ATOM     22  C   UNL     1      51.123   4.713  18.007  0.00  0.00    +0.000 A 
ATOM     23  C   UNL     1      52.160   5.344  18.681  0.00  0.00    +0.000 A 
ATOM     24  S   UNL     1      53.406   4.287  19.164  0.00  0.00    +0.000 S 
ATOM     25  C   UNL     1      52.627   2.958  18.447  0.00  0.00    +0.000 A 
ATOM     26  N   UNL     1      53.190   1.719  18.476  0.00  0.00    +0.000 NA
ATOM     27  C   UNL     1      52.511   0.806  17.863  0.00  0.00    +0.000 A 
ATOM     28  N   UNL     1      51.315   1.020  17.227  0.00  0.00    +0.000 N 
ATOM     29  C   UNL     1      50.691   2.244  17.201  0.00  0.00    +0.000 A 
ATOM     30  O   UNL     1      49.593   2.388  16.670  0.00  0.00    +0.000 OA
ATOM     31  C   UNL     1      51.423   3.309  17.861  0.00  0.00    +0.000 A 
ATOM     32  H   UNL     1      50.828   0.260  16.776  0.00  0.00    +0.000 HD
ENDBRANCH  19  22
ENDBRANCH  17  18
ENDBRANCH   4  17
TORSDOF 6
ENDMDL
MODEL 2
REMARK VINA RESULT:    -7.693      2.468      3.024
REMARK INTER + INTRA:         -11.349
REMARK INTER:                 -10.255
REMARK INTRA:                  -1.094
REMARK UNBOUND:                -0.958
REMARK  Name = 
REMARK  7 active torsions:
REMARK  status: ('A' for Active; 'I' for Inactive)
REMARK    1  A    between atoms: C_1  and  N_2
REMARK    2  A    between atoms: N_2  and  C_3
REMARK    3  A    between atoms: C_3  and  C_4
REMARK    4  A    between atoms: C_7  and  C_8
REMARK    5  A    between atoms: C_8  and  N_9
REMARK    6  A    between atoms: C_10  and  C_12
REMARK    7  A    between atoms: C_24  and  C_26
REMARK                            x       y       z     vdW  Elec       q    Type
REMARK                         _______ _______ _______ _____ _____    ______ ____
ROOT
ATOM      1  C   UNL     1      45.320   6.921  11.529  0.00  0.00    +0.000 A 
ATOM      2  C   UNL     1      46.495   6.226  11.843  0.00  0.00    +0.000 A 
ATOM      3  C   UNL     1      47.434   6.781  12.716  0.00  0.00    +0.000 A 
ATOM      4  C   UNL     1      47.202   8.026  13.313  0.00  0.00    +0.000 A 
ATOM      5  C   UNL     1      46.040   8.734  12.977  0.00  0.00    +0.000 A 
ATOM      6  C   UNL     1      45.109   8.186  12.094  0.00  0.00    +0.000 A 
ENDROOT
BRANCH   1   7
ATOM      7  C   UNL     1      44.308   6.326  10.583  0.00  0.00    +0.000 C 
BRANCH   7   9
ATOM      8  C   UNL     1      42.273   5.401  11.744  0.00  0.00    +0.000 C 
ATOM      9  N   UNL     1      43.554   5.173  11.085  0.00  0.00    +0.000 N 
ATOM     10  C   UNL     1      43.764   3.866  10.631  0.00  0.00    +0.000 C 
ATOM     11  O   UNL     1      43.011   2.947  10.967  0.00  0.00    +0.000 OA
BRANCH  10  12
ATOM     12  C   UNL     1      44.951   3.597   9.701  0.00  0.00    +0.000 C 
ATOM     13  C   UNL     1      44.733   4.116   8.278  0.00  0.00    +0.000 C 
ATOM     14  C   UNL     1      45.648   3.287   7.384  0.00  0.00    +0.000 C 
ATOM     15  C   UNL     1      46.038   2.056   8.193  0.00  0.00    +0.000 C 
ATOM     16  C   UNL     1      45.188   2.102   9.455  0.00  0.00    +0.000 C 
ENDBRANCH  10  12
ENDBRANCH   7   9
ENDBRANCH   1   7
BRANCH   4  17
ATOM     17  C   UNL     1      48.191   8.610  14.286  0.00  0.00    +0.000 C 
BRANCH  17  18
ATOM     18  N   UNL     1      48.364   7.762  15.437  0.00  0.00    +0.000 N 
ATOM     19  C   UNL     1      49.502   7.010  15.584  0.00  0.00    +0.000 C 
ATOM     20  O   UNL     1      50.426   7.068  14.778  0.00  0.00    +0.000 OA
ATOM     21  H   UNL     1      47.538   7.542  15.985  0.00  0.00    +0.000 HD
BRANCH  19  22
ATOM     22  C   UNL     1      49.588   6.174  16.787  0.00  0.00    +0.000 A 
ATOM     23  C   UNL     1      50.538   6.468  17.756  0.00  0.00    +0.000 A 
ATOM     24  S   UNL     1      50.481   5.433  19.107  0.00  0.00    +0.000 S 
ATOM     25  C   UNL     1      49.217   4.525  18.423  0.00  0.00    +0.000 A 
ATOM     26  N   UNL     1      48.702   3.445  19.072  0.00  0.00    +0.000 NA
ATOM     27  C   UNL     1      47.771   2.824  18.426  0.00  0.00    +0.000 A 
ATOM     28  N   UNL     1      47.305   3.189  17.189  0.00  0.00    +0.000 N 
ATOM     29  C   UNL     1      47.768   4.291  16.512  0.00  0.00    +0.000 A 
ATOM     30  O   UNL     1      47.289   4.622  15.431  0.00  0.00    +0.000 OA
ATOM     31  C   UNL     1      48.830   5.014  17.188  0.00  0.00    +0.000 A 
ATOM     32  H   UNL     1      46.565   2.667  16.743  0.00  0.00    +0.000 HD
ENDBRANCH  19  22
ENDBRANCH  17  18
ENDBRANCH   4  17
TORSDOF 6
ENDMDL
MODEL 3
REMARK VINA RESULT:    -7.439      2.513      3.007
REMARK INTER + INTRA:         -11.007
REMARK INTER:                 -10.108
REMARK INTRA:                  -0.898
REMARK UNBOUND:                -0.958
REMARK  Name = 
REMARK  7 active torsions:
REMARK  status: ('A' for Active; 'I' for Inactive)
REMARK    1  A    between atoms: C_1  and  N_2
REMARK    2  A    between atoms: N_2  and  C_3
REMARK    3  A    between atoms: C_3  and  C_4
REMARK    4  A    between atoms: C_7  and  C_8
REMARK    5  A    between atoms: C_8  and  N_9
REMARK    6  A    between atoms: C_10  and  C_12
REMARK    7  A    between atoms: C_24  and  C_26
REMARK                            x       y       z     vdW  Elec       q    Type
REMARK                         _______ _______ _______ _____ _____    ______ ____
ROOT
ATOM      1  C   UNL     1      45.916   4.477  12.459  0.00  0.00    +0.000 A 
ATOM      2  C   UNL     1      46.418   4.298  13.754  0.00  0.00    +0.000 A 
ATOM      3  C   UNL     1      47.272   5.248  14.320  0.00  0.00    +0.000 A 
ATOM      4  C   UNL     1      47.616   6.407  13.613  0.00  0.00    +0.000 A 
ATOM      5  C   UNL     1      47.136   6.572  12.307  0.00  0.00    +0.000 A 
ATOM      6  C   UNL     1      46.294   5.617  11.736  0.00  0.00    +0.000 A 
ENDROOT
BRANCH   1   7
ATOM      7  C   UNL     1      44.998   3.450  11.844  0.00  0.00    +0.000 C 
BRANCH   7   9
ATOM      8  C   UNL     1      43.050   4.897  11.169  0.00  0.00    +0.000 C 
ATOM      9  N   UNL     1      44.087   3.938  10.805  0.00  0.00    +0.000 N 
ATOM     10  C   UNL     1      44.381   3.870   9.438  0.00  0.00    +0.000 C 
ATOM     11  O   UNL     1      43.657   4.424   8.604  0.00  0.00    +0.000 OA
BRANCH  10  12
ATOM     12  C   UNL     1      45.625   3.097   8.995  0.00  0.00    +0.000 C 
ATOM     13  C   UNL     1      46.165   3.548   7.636  0.00  0.00    +0.000 C 
ATOM     14  C   UNL     1      46.952   2.365   7.083  0.00  0.00    +0.000 C 
ATOM     15  C   UNL     1      46.514   1.146   7.884  0.00  0.00    +0.000 C 
ATOM     16  C   UNL     1      45.346   1.611   8.742  0.00  0.00    +0.000 C 
ENDBRANCH  10  12
ENDBRANCH   7   9
ENDBRANCH   1   7
BRANCH   4  17
ATOM     17  C   UNL     1      48.502   7.453  14.234  0.00  0.00    +0.000 C 
BRANCH  17  18
ATOM     18  N   UNL     1      48.482   7.377  15.671  0.00  0.00    +0.000 N 
ATOM     19  C   UNL     1      49.637   7.139  16.373  0.00  0.00    +0.000 C 
ATOM     20  O   UNL     1      50.724   7.033  15.814  0.00  0.00    +0.000 OA
ATOM     21  H   UNL     1      47.582   7.248  16.121  0.00  0.00    +0.000 HD
BRANCH  19  22
ATOM     22  C   UNL     1      49.518   7.076  17.834  0.00  0.00    +0.000 A 
ATOM     23  C   UNL     1      49.786   8.209  18.590  0.00  0.00    +0.000 A 
ATOM     24  S   UNL     1      49.562   7.984  20.264  0.00  0.00    +0.000 S 
ATOM     25  C   UNL     1      49.146   6.352  20.041  0.00  0.00    +0.000 A 
ATOM     26  N   UNL     1      48.855   5.553  21.105  0.00  0.00    +0.000 NA
ATOM     27  C   UNL     1      48.590   4.326  20.799  0.00  0.00    +0.000 A 
ATOM     28  N   UNL     1      48.586   3.825  19.523  0.00  0.00    +0.000 N 
ATOM     29  C   UNL     1      48.839   4.599  18.416  0.00  0.00    +0.000 A 
ATOM     30  O   UNL     1      48.771   4.131  17.282  0.00  0.00    +0.000 OA
ATOM     31  C   UNL     1      49.160   5.984  18.707  0.00  0.00    +0.000 A 
ATOM     32  H   UNL     1      48.359   2.858  19.350  0.00  0.00    +0.000 HD
ENDBRANCH  19  22
ENDBRANCH  17  18
ENDBRANCH   4  17
TORSDOF 6
ENDMDL
MODEL 4
REMARK VINA RESULT:    -7.370      1.316      1.642
REMARK INTER + INTRA:         -10.913
REMARK INTER:                  -9.811
REMARK INTRA:                  -1.102
REMARK UNBOUND:                -0.958
REMARK  Name = 
REMARK  7 active torsions:
REMARK  status: ('A' for Active; 'I' for Inactive)
REMARK    1  A    between atoms: C_1  and  N_2
REMARK    2  A    between atoms: N_2  and  C_3
REMARK    3  A    between atoms: C_3  and  C_4
REMARK    4  A    between atoms: C_7  and  C_8
REMARK    5  A    between atoms: C_8  and  N_9
REMARK    6  A    between atoms: C_10  and  C_12
REMARK    7  A    between atoms: C_24  and  C_26
REMARK                            x       y       z     vdW  Elec       q    Type
REMARK                         _______ _______ _______ _____ _____    ______ ____
ROOT
ATOM      1  C   UNL     1      47.132   5.645  13.434  0.00  0.00    +0.000 A 
ATOM      2  C   UNL     1      48.027   6.531  14.047  0.00  0.00    +0.000 A 
ATOM      3  C   UNL     1      48.472   6.300  15.350  0.00  0.00    +0.000 A 
ATOM      4  C   UNL     1      48.054   5.164  16.054  0.00  0.00    +0.000 A 
ATOM      5  C   UNL     1      47.137   4.293  15.452  0.00  0.00    +0.000 A 
ATOM      6  C   UNL     1      46.681   4.531  14.155  0.00  0.00    +0.000 A 
ENDROOT
BRANCH   1   7
ATOM      7  C   UNL     1      46.647   5.896  12.029  0.00  0.00    +0.000 C 
BRANCH   7   9
ATOM      8  C   UNL     1      44.593   7.327  12.305  0.00  0.00    +0.000 C 
ATOM      9  N   UNL     1      45.202   6.077  11.866  0.00  0.00    +0.000 N 
ATOM     10  C   UNL     1      44.434   5.325  10.968  0.00  0.00    +0.000 C 
ATOM     11  O   UNL     1      43.251   5.607  10.753  0.00  0.00    +0.000 OA
BRANCH  10  12
ATOM     12  C   UNL     1      45.094   4.144  10.252  0.00  0.00    +0.000 C 
ATOM     13  C   UNL     1      45.342   4.402   8.764  0.00  0.00    +0.000 C 
ATOM     14  C   UNL     1      45.412   3.028   8.106  0.00  0.00    +0.000 C 
ATOM     15  C   UNL     1      44.792   2.048   9.093  0.00  0.00    +0.000 C 
ATOM     16  C   UNL     1      44.202   2.898  10.208  0.00  0.00    +0.000 C 
ENDBRANCH  10  12
ENDBRANCH   7   9
ENDBRANCH   1   7
BRANCH   4  17
ATOM     17  C   UNL     1      48.562   4.888  17.444  0.00  0.00    +0.000 C 
BRANCH  17  18
ATOM     18  N   UNL     1      49.899   4.356  17.422  0.00  0.00    +0.000 N 
ATOM     19  C   UNL     1      50.680   4.385  18.550  0.00  0.00    +0.000 C 
ATOM     20  O   UNL     1      50.258   4.813  19.619  0.00  0.00    +0.000 OA
ATOM     21  H   UNL     1      50.328   4.204  16.515  0.00  0.00    +0.000 HD
BRANCH  19  22
ATOM     22  C   UNL     1      52.030   3.822  18.431  0.00  0.00    +0.000 A 
ATOM     23  C   UNL     1      53.126   4.595  18.794  0.00  0.00    +0.000 A 
ATOM     24  S   UNL     1      54.616   3.784  18.638  0.00  0.00    +0.000 S 
ATOM     25  C   UNL     1      53.854   2.391  18.034  0.00  0.00    +0.000 A 
ATOM     26  N   UNL     1      54.582   1.300  17.667  0.00  0.00    +0.000 NA
ATOM     27  C   UNL     1      53.882   0.322  17.192  0.00  0.00    +0.000 A 
ATOM     28  N   UNL     1      52.518   0.337  17.054  0.00  0.00    +0.000 N 
ATOM     29  C   UNL     1      51.739   1.399  17.442  0.00  0.00    +0.000 A 
ATOM     30  O   UNL     1      50.514   1.356  17.356  0.00  0.00    +0.000 OA
ATOM     31  C   UNL     1      52.479   2.532  17.967  0.00  0.00    +0.000 A 
ATOM     32  H   UNL     1      52.030  -0.466  16.685  0.00  0.00    +0.000 HD
ENDBRANCH  19  22
ENDBRANCH  17  18
ENDBRANCH   4  17
TORSDOF 6
ENDMDL
MODEL 5
REMARK VINA RESULT:    -7.286      3.669      8.727
REMARK INTER + INTRA:         -10.800
REMARK INTER:                  -9.521
REMARK INTRA:                  -1.279
REMARK UNBOUND:                -0.958
REMARK  Name = 
REMARK  7 active torsions:
REMARK  status: ('A' for Active; 'I' for Inactive)
REMARK    1  A    between atoms: C_1  and  N_2
REMARK    2  A    between atoms: N_2  and  C_3
REMARK    3  A    between atoms: C_3  and  C_4
REMARK    4  A    between atoms: C_7  and  C_8
REMARK    5  A    between atoms: C_8  and  N_9
REMARK    6  A    between atoms: C_10  and  C_12
REMARK    7  A    between atoms: C_24  and  C_26
REMARK                            x       y       z     vdW  Elec       q    Type
REMARK                         _______ _______ _______ _____ _____    ______ ____
ROOT
ATOM      1  C   UNL     1      49.030   7.873  16.177  0.00  0.00    +0.000 A 
ATOM      2  C   UNL     1      48.118   8.825  15.704  0.00  0.00    +0.000 A 
ATOM      3  C   UNL     1      47.700   8.805  14.372  0.00  0.00    +0.000 A 
ATOM      4  C   UNL     1      48.164   7.817  13.495  0.00  0.00    +0.000 A 
ATOM      5  C   UNL     1      49.098   6.882  13.959  0.00  0.00    +0.000 A 
ATOM      6  C   UNL     1      49.526   6.910  15.287  0.00  0.00    +0.000 A 
ENDROOT
BRANCH   1   7
ATOM      7  C   UNL     1      49.486   7.895  17.614  0.00  0.00    +0.000 C 
BRANCH   7   9
ATOM      8  C   UNL     1      47.726   8.573  19.283  0.00  0.00    +0.000 C 
ATOM      9  N   UNL     1      48.484   7.521  18.616  0.00  0.00    +0.000 N 
ATOM     10  C   UNL     1      47.919   6.242  18.689  0.00  0.00    +0.000 C 
ATOM     11  O   UNL     1      46.973   6.008  19.449  0.00  0.00    +0.000 OA
BRANCH  10  12
ATOM     12  C   UNL     1      48.495   5.135  17.803  0.00  0.00    +0.000 C 
ATOM     13  C   UNL     1      47.420   4.310  17.092  0.00  0.00    +0.000 C 
ATOM     14  C   UNL     1      48.065   2.964  16.777  0.00  0.00    +0.000 C 
ATOM     15  C   UNL     1      49.302   2.864  17.659  0.00  0.00    +0.000 C 
ATOM     16  C   UNL     1      49.239   4.058  18.601  0.00  0.00    +0.000 C 
ENDBRANCH  10  12
ENDBRANCH   7   9
ENDBRANCH   1   7
BRANCH   4  17
ATOM     17  C   UNL     1      47.685   7.767  12.069  0.00  0.00    +0.000 C 
BRANCH  17  18
ATOM     18  N   UNL     1      46.991   6.537  11.787  0.00  0.00    +0.000 N 
ATOM     19  C   UNL     1      45.635   6.444  11.974  0.00  0.00    +0.000 C 
ATOM     20  O   UNL     1      44.962   7.406  12.334  0.00  0.00    +0.000 OA
ATOM     21  H   UNL     1      47.548   5.694  11.701  0.00  0.00    +0.000 HD
BRANCH  19  22
ATOM     22  C   UNL     1      45.014   5.151  11.663  0.00  0.00    +0.000 A 
ATOM     23  C   UNL     1      44.310   4.477  12.652  0.00  0.00    +0.000 A 
ATOM     24  S   UNL     1      43.616   3.014  12.122  0.00  0.00    +0.000 S 
ATOM     25  C   UNL     1      44.272   3.206  10.567  0.00  0.00    +0.000 A 
ATOM     26  N   UNL     1      44.074   2.265   9.603  0.00  0.00    +0.000 NA
ATOM     27  C   UNL     1      44.657   2.518   8.477  0.00  0.00    +0.000 A 
ATOM     28  N   UNL     1      45.418   3.630   8.227  0.00  0.00    +0.000 N 
ATOM     29  C   UNL     1      45.618   4.623   9.155  0.00  0.00    +0.000 A 
ATOM     30  O   UNL     1      46.259   5.634   8.879  0.00  0.00    +0.000 OA
ATOM     31  C   UNL     1      44.998   4.379  10.444  0.00  0.00    +0.000 A 
ATOM     32  H   UNL     1      45.837   3.774   7.320  0.00  0.00    +0.000 HD
ENDBRANCH  19  22
ENDBRANCH  17  18
ENDBRANCH   4  17
TORSDOF 6
ENDMDL
MODEL 6
REMARK VINA RESULT:    -7.284      2.613      3.318
REMARK INTER + INTRA:         -10.796
REMARK INTER:                 -10.039
REMARK INTRA:                  -0.757
REMARK UNBOUND:                -0.958
REMARK  Name = 
REMARK  7 active torsions:
REMARK  status: ('A' for Active; 'I' for Inactive)
REMARK    1  A    between atoms: C_1  and  N_2
REMARK    2  A    between atoms: N_2  and  C_3
REMARK    3  A    between atoms: C_3  and  C_4
REMARK    4  A    between atoms: C_7  and  C_8
REMARK    5  A    between atoms: C_8  and  N_9
REMARK    6  A    between atoms: C_10  and  C_12
REMARK    7  A    between atoms: C_24  and  C_26
REMARK                            x       y       z     vdW  Elec       q    Type
REMARK                         _______ _______ _______ _____ _____    ______ ____
ROOT
ATOM      1  C   UNL     1      45.957   6.178  11.714  0.00  0.00    +0.000 A 
ATOM      2  C   UNL     1      46.972   7.069  11.343  0.00  0.00    +0.000 A 
ATOM      3  C   UNL     1      48.036   7.330  12.208  0.00  0.00    +0.000 A 
ATOM      4  C   UNL     1      48.120   6.685  13.449  0.00  0.00    +0.000 A 
ATOM      5  C   UNL     1      47.090   5.816  13.832  0.00  0.00    +0.000 A 
ATOM      6  C   UNL     1      46.020   5.565  12.973  0.00  0.00    +0.000 A 
ENDROOT
BRANCH   1   7
ATOM      7  C   UNL     1      44.805   5.898  10.782  0.00  0.00    +0.000 C 
BRANCH   7   9
ATOM      8  C   UNL     1      42.692   4.943  11.766  0.00  0.00    +0.000 C 
ATOM      9  N   UNL     1      43.977   4.733  11.109  0.00  0.00    +0.000 N 
ATOM     10  C   UNL     1      44.132   3.488  10.489  0.00  0.00    +0.000 C 
ATOM     11  O   UNL     1      43.322   2.576  10.684  0.00  0.00    +0.000 OA
BRANCH  10  12
ATOM     12  C   UNL     1      45.328   3.278   9.557  0.00  0.00    +0.000 C 
ATOM     13  C   UNL     1      45.249   4.111   8.276  0.00  0.00    +0.000 C 
ATOM     14  C   UNL     1      46.110   3.384   7.249  0.00  0.00    +0.000 C 
ATOM     15  C   UNL     1      46.313   1.972   7.781  0.00  0.00    +0.000 C 
ATOM     16  C   UNL     1      45.407   1.852   8.998  0.00  0.00    +0.000 C 
ENDBRANCH  10  12
ENDBRANCH   7   9
ENDBRANCH   1   7
BRANCH   4  17
ATOM     17  C   UNL     1      49.286   6.932  14.368  0.00  0.00    +0.000 C 
BRANCH  17  18
ATOM     18  N   UNL     1      48.911   6.780  15.750  0.00  0.00    +0.000 N 
ATOM     19  C   UNL     1      49.186   7.770  16.660  0.00  0.00    +0.000 C 
ATOM     20  O   UNL     1      49.709   8.829  16.327  0.00  0.00    +0.000 OA
ATOM     21  H   UNL     1      48.683   5.846  16.073  0.00  0.00    +0.000 HD
BRANCH  19  22
ATOM     22  C   UNL     1      48.769   7.524  18.045  0.00  0.00    +0.000 A 
ATOM     23  C   UNL     1      48.170   8.547  18.768  0.00  0.00    +0.000 A 
ATOM     24  S   UNL     1      47.707   8.091  20.343  0.00  0.00    +0.000 S 
ATOM     25  C   UNL     1      48.335   6.526  20.131  0.00  0.00    +0.000 A 
ATOM     26  N   UNL     1      48.286   5.611  21.137  0.00  0.00    +0.000 NA
ATOM     27  C   UNL     1      48.830   4.472  20.855  0.00  0.00    +0.000 A 
ATOM     28  N   UNL     1      49.417   4.166  19.654  0.00  0.00    +0.000 N 
ATOM     29  C   UNL     1      49.459   5.044  18.598  0.00  0.00    +0.000 A 
ATOM     30  O   UNL     1      49.942   4.717  17.517  0.00  0.00    +0.000 OA
ATOM     31  C   UNL     1      48.876   6.345  18.869  0.00  0.00    +0.000 A 
ATOM     32  H   UNL     1      49.814   3.253  19.494  0.00  0.00    +0.000 HD
ENDBRANCH  19  22
ENDBRANCH  17  18
ENDBRANCH   4  17
TORSDOF 6
ENDMDL
MODEL 7
REMARK VINA RESULT:    -7.147      3.423      9.705
REMARK INTER + INTRA:         -10.612
REMARK INTER:                  -9.411
REMARK INTRA:                  -1.202
REMARK UNBOUND:                -0.958
REMARK  Name = 
REMARK  7 active torsions:
REMARK  status: ('A' for Active; 'I' for Inactive)
REMARK    1  A    between atoms: C_1  and  N_2
REMARK    2  A    between atoms: N_2  and  C_3
REMARK    3  A    between atoms: C_3  and  C_4
REMARK    4  A    between atoms: C_7  and  C_8
REMARK    5  A    between atoms: C_8  and  N_9
REMARK    6  A    between atoms: C_10  and  C_12
REMARK    7  A    between atoms: C_24  and  C_26
REMARK                            x       y       z     vdW  Elec       q    Type
REMARK                         _______ _______ _______ _____ _____    ______ ____
ROOT
ATOM      1  C   UNL     1      51.326   4.153  18.066  0.00  0.00    +0.000 A 
ATOM      2  C   UNL     1      50.408   5.208  17.985  0.00  0.00    +0.000 A 
ATOM      3  C   UNL     1      49.100   4.977  17.553  0.00  0.00    +0.000 A 
ATOM      4  C   UNL     1      48.678   3.684  17.220  0.00  0.00    +0.000 A 
ATOM      5  C   UNL     1      49.604   2.634  17.273  0.00  0.00    +0.000 A 
ATOM      6  C   UNL     1      50.915   2.866  17.692  0.00  0.00    +0.000 A 
ENDROOT
BRANCH   1   7
ATOM      7  C   UNL     1      52.739   4.401  18.529  0.00  0.00    +0.000 C 
BRANCH   7   9
ATOM      8  C   UNL     1      54.236   5.539  16.852  0.00  0.00    +0.000 C 
ATOM      9  N   UNL     1      53.781   4.314  17.501  0.00  0.00    +0.000 N 
ATOM     10  C   UNL     1      54.648   3.222  17.383  0.00  0.00    +0.000 C 
ATOM     11  O   UNL     1      55.605   3.251  16.602  0.00  0.00    +0.000 OA
BRANCH  10  12
ATOM     12  C   UNL     1      54.388   1.985  18.247  0.00  0.00    +0.000 C 
ATOM     13  C   UNL     1      55.646   1.456  18.939  0.00  0.00    +0.000 C 
ATOM     14  C   UNL     1      55.379  -0.017  19.226  0.00  0.00    +0.000 C 
ATOM     15  C   UNL     1      54.205  -0.421  18.344  0.00  0.00    +0.000 C 
ATOM     16  C   UNL     1      53.947   0.766  17.427  0.00  0.00    +0.000 C 
ENDBRANCH  10  12
ENDBRANCH   7   9
ENDBRANCH   1   7
BRANCH   4  17
ATOM     17  C   UNL     1      47.259   3.423  16.791  0.00  0.00    +0.000 C 
BRANCH  17  18
ATOM     18  N   UNL     1      46.796   4.420  15.862  0.00  0.00    +0.000 N 
ATOM     19  C   UNL     1      46.851   4.191  14.510  0.00  0.00    +0.000 C 
ATOM     20  O   UNL     1      47.244   3.124  14.049  0.00  0.00    +0.000 OA
ATOM     21  H   UNL     1      46.677   5.366  16.209  0.00  0.00    +0.000 HD
BRANCH  19  22
ATOM     22  C   UNL     1      46.360   5.266  13.640  0.00  0.00    +0.000 A 
ATOM     23  C   UNL     1      47.152   6.386  13.425  0.00  0.00    +0.000 A 
ATOM     24  S   UNL     1      46.459   7.520  12.359  0.00  0.00    +0.000 S 
ATOM     25  C   UNL     1      45.056   6.577  12.185  0.00  0.00    +0.000 A 
ATOM     26  N   UNL     1      44.023   6.999  11.406  0.00  0.00    +0.000 NA
ATOM     27  C   UNL     1      43.003   6.204  11.389  0.00  0.00    +0.000 A 
ATOM     28  N   UNL     1      42.927   5.022  12.078  0.00  0.00    +0.000 N 
ATOM     29  C   UNL     1      43.956   4.538  12.848  0.00  0.00    +0.000 A 
ATOM     30  O   UNL     1      43.875   3.447  13.408  0.00  0.00    +0.000 OA
ATOM     31  C   UNL     1      45.119   5.403  12.916  0.00  0.00    +0.000 A 
ATOM     32  H   UNL     1      42.105   4.440  12.013  0.00  0.00    +0.000 HD
ENDBRANCH  19  22
ENDBRANCH  17  18
ENDBRANCH   4  17
TORSDOF 6
ENDMDL
MODEL 8
REMARK VINA RESULT:    -6.742      3.583      9.218
REMARK INTER + INTRA:         -10.065
REMARK INTER:                  -8.695
REMARK INTRA:                  -1.369
REMARK UNBOUND:                -0.958
REMARK  Name = 
REMARK  7 active torsions:
REMARK  status: ('A' for Active; 'I' for Inactive)
REMARK    1  A    between atoms: C_1  and  N_2
REMARK    2  A    between atoms: N_2  and  C_3
REMARK    3  A    between atoms: C_3  and  C_4
REMARK    4  A    between atoms: C_7  and  C_8
REMARK    5  A    between atoms: C_8  and  N_9
REMARK    6  A    between atoms: C_10  and  C_12
REMARK    7  A    between atoms: C_24  and  C_26
REMARK                            x       y       z     vdW  Elec       q    Type
REMARK                         _______ _______ _______ _____ _____    ______ ____
ROOT
ATOM      1  C   UNL     1      49.958   8.067  15.043  0.00  0.00    +0.000 A 
ATOM      2  C   UNL     1      50.180   7.512  13.776  0.00  0.00    +0.000 A 
ATOM      3  C   UNL     1      49.159   7.494  12.823  0.00  0.00    +0.000 A 
ATOM      4  C   UNL     1      47.908   8.054  13.108  0.00  0.00    +0.000 A 
ATOM      5  C   UNL     1      47.677   8.583  14.384  0.00  0.00    +0.000 A 
ATOM      6  C   UNL     1      48.692   8.590  15.342  0.00  0.00    +0.000 A 
ENDROOT
BRANCH   1   7
ATOM      7  C   UNL     1      51.057   8.085  16.075  0.00  0.00    +0.000 C 
BRANCH   7   9
ATOM      8  C   UNL     1      53.185   6.737  16.058  0.00  0.00    +0.000 C 
ATOM      9  N   UNL     1      51.749   6.813  16.304  0.00  0.00    +0.000 N 
ATOM     10  C   UNL     1      51.230   5.796  17.113  0.00  0.00    +0.000 C 
ATOM     11  O   UNL     1      51.908   4.804  17.400  0.00  0.00    +0.000 OA
BRANCH  10  12
ATOM     12  C   UNL     1      49.800   5.938  17.641  0.00  0.00    +0.000 C 
ATOM     13  C   UNL     1      49.627   5.409  19.067  0.00  0.00    +0.000 C 
ATOM     14  C   UNL     1      48.149   5.064  19.209  0.00  0.00    +0.000 C 
ATOM     15  C   UNL     1      47.589   4.982  17.796  0.00  0.00    +0.000 C 
ATOM     16  C   UNL     1      48.789   5.085  16.866  0.00  0.00    +0.000 C 
ENDBRANCH  10  12
ENDBRANCH   7   9
ENDBRANCH   1   7
BRANCH   4  17
ATOM     17  C   UNL     1      46.818   8.073  12.070  0.00  0.00    +0.000 C 
BRANCH  17  18
ATOM     18  N   UNL     1      46.330   6.747  11.792  0.00  0.00    +0.000 N 
ATOM     19  C   UNL     1      45.001   6.534  11.529  0.00  0.00    +0.000 C 
ATOM     20  O   UNL     1      44.195   7.459  11.472  0.00  0.00    +0.000 OA
ATOM     21  H   UNL     1      46.927   5.966  12.045  0.00  0.00    +0.000 HD
BRANCH  19  22
ATOM     22  C   UNL     1      44.596   5.150  11.260  0.00  0.00    +0.000 A 
ATOM     23  C   UNL     1      43.819   4.473  12.192  0.00  0.00    +0.000 A 
ATOM     24  S   UNL     1      43.399   2.893  11.713  0.00  0.00    +0.000 S 
ATOM     25  C   UNL     1      44.280   3.041  10.267  0.00  0.00    +0.000 A 
ATOM     26  N   UNL     1      44.357   2.006   9.386  0.00  0.00    +0.000 NA
ATOM     27  C   UNL     1      45.087   2.239   8.345  0.00  0.00    +0.000 A 
ATOM     28  N   UNL     1      45.744   3.417   8.104  0.00  0.00    +0.000 N 
ATOM     29  C   UNL     1      45.669   4.501   8.945  0.00  0.00    +0.000 A 
ATOM     30  O   UNL     1      46.225   5.561   8.670  0.00  0.00    +0.000 OA
ATOM     31  C   UNL     1      44.874   4.284  10.140  0.00  0.00    +0.000 A 
ATOM     32  H   UNL     1      46.290   3.539   7.264  0.00  0.00    +0.000 HD
ENDBRANCH  19  22
ENDBRANCH  17  18
ENDBRANCH   4  17
TORSDOF 6
ENDMDL
MODEL 9
REMARK VINA RESULT:    -6.668      6.062      8.998
REMARK INTER + INTRA:          -9.964
REMARK INTER:                  -8.798
REMARK INTRA:                  -1.166
REMARK UNBOUND:                -0.958
REMARK  Name = 
REMARK  7 active torsions:
REMARK  status: ('A' for Active; 'I' for Inactive)
REMARK    1  A    between atoms: C_1  and  N_2
REMARK    2  A    between atoms: N_2  and  C_3
REMARK    3  A    between atoms: C_3  and  C_4
REMARK    4  A    between atoms: C_7  and  C_8
REMARK    5  A    between atoms: C_8  and  N_9
REMARK    6  A    between atoms: C_10  and  C_12
REMARK    7  A    between atoms: C_24  and  C_26
REMARK                            x       y       z     vdW  Elec       q    Type
REMARK                         _______ _______ _______ _____ _____    ______ ____
ROOT
ATOM      1  C   UNL     1      50.453   8.818  11.852  0.00  0.00    +0.000 A 
ATOM      2  C   UNL     1      49.776   9.744  12.655  0.00  0.00    +0.000 A 
ATOM      3  C   UNL     1      48.441   9.534  13.006  0.00  0.00    +0.000 A 
ATOM      4  C   UNL     1      47.767   8.380  12.586  0.00  0.00    +0.000 A 
ATOM      5  C   UNL     1      48.435   7.468  11.759  0.00  0.00    +0.000 A 
ATOM      6  C   UNL     1      49.765   7.684  11.397  0.00  0.00    +0.000 A 
ENDROOT
BRANCH   1   7
ATOM      7  C   UNL     1      51.894   9.045  11.468  0.00  0.00    +0.000 C 
BRANCH   7   9
ATOM      8  C   UNL     1      52.115  11.100  10.029  0.00  0.00    +0.000 C 
ATOM      9  N   UNL     1      52.125   9.647  10.152  0.00  0.00    +0.000 N 
ATOM     10  C   UNL     1      52.746   8.966   9.099  0.00  0.00    +0.000 C 
ATOM     11  O   UNL     1      53.056   9.553   8.057  0.00  0.00    +0.000 OA
BRANCH  10  12
ATOM     12  C   UNL     1      53.040   7.473   9.265  0.00  0.00    +0.000 C 
ATOM     13  C   UNL     1      54.512   7.176   9.562  0.00  0.00    +0.000 C 
ATOM     14  C   UNL     1      54.750   5.740   9.110  0.00  0.00    +0.000 C 
ATOM     15  C   UNL     1      53.588   5.380   8.193  0.00  0.00    +0.000 C 
ATOM     16  C   UNL     1      52.814   6.673   7.977  0.00  0.00    +0.000 C 
ENDBRANCH  10  12
ENDBRANCH   7   9
ENDBRANCH   1   7
BRANCH   4  17
ATOM     17  C   UNL     1      46.340   8.129  12.995  0.00  0.00    +0.000 C 
BRANCH  17  18
ATOM     18  N   UNL     1      45.916   6.798  12.646  0.00  0.00    +0.000 N 
ATOM     19  C   UNL     1      44.890   6.605  11.756  0.00  0.00    +0.000 C 
ATOM     20  O   UNL     1      44.336   7.544  11.192  0.00  0.00    +0.000 OA
ATOM     21  H   UNL     1      46.209   6.039  13.252  0.00  0.00    +0.000 HD
BRANCH  19  22
ATOM     22  C   UNL     1      44.526   5.214  11.463  0.00  0.00    +0.000 A 
ATOM     23  C   UNL     1      43.781   4.495  12.388  0.00  0.00    +0.000 A 
ATOM     24  S   UNL     1      43.404   2.912  11.882  0.00  0.00    +0.000 S 
ATOM     25  C   UNL     1      44.265   3.116  10.431  0.00  0.00    +0.000 A 
ATOM     26  N   UNL     1      44.364   2.102   9.528  0.00  0.00    +0.000 NA
ATOM     27  C   UNL     1      45.076   2.378   8.485  0.00  0.00    +0.000 A 
ATOM     28  N   UNL     1      45.694   3.581   8.261  0.00  0.00    +0.000 N 
ATOM     29  C   UNL     1      45.594   4.645   9.124  0.00  0.00    +0.000 A 
ATOM     30  O   UNL     1      46.114   5.727   8.865  0.00  0.00    +0.000 OA
ATOM     31  C   UNL     1      44.819   4.380  10.322  0.00  0.00    +0.000 A 
ATOM     32  H   UNL     1      46.226   3.737   7.418  0.00  0.00    +0.000 HD
ENDBRANCH  19  22
ENDBRANCH  17  18
ENDBRANCH   4  17
TORSDOF 6
ENDMDL
