MODEL 1
REMARK VINA RESULT:    -8.120      0.000      0.000
REMARK INTER + INTRA:         -11.787
REMARK INTER:                 -10.731
REMARK INTRA:                  -1.055
REMARK UNBOUND:                -1.055
REMARK  Name = 
REMARK  8 active torsions:
REMARK  status: ('A' for Active; 'I' for Inactive)
REMARK    1  A    between atoms: C_1  and  C_2
REMARK    2  A    between atoms: C_2  and  N_3
REMARK    3  A    between atoms: C_2  and  C_17
REMARK    4  A    between atoms: C_4  and  C_6
REMARK    5  A    between atoms: N_12  and  C_13
REMARK    6  A    between atoms: C_20  and  C_21
REMARK    7  A    between atoms: C_21  and  O_22
REMARK    8  A    between atoms: C_21  and  C_23
REMARK                            x       y       z     vdW  Elec       q    Type
REMARK                         _______ _______ _______ _____ _____    ______ ____
ROOT
ATOM      1  C   UNL     1      47.389   8.745  13.872  0.00  0.00    +0.000 C 
ATOM      2  C   UNL     1      47.852   7.289  13.832  0.00  0.00    +0.000 C 
ENDROOT
BRANCH   2   3
ATOM      3  C   UNL     1      46.935   6.493  12.911  0.00  0.00    +0.000 A 
ATOM      4  N   UNL     1      46.506   7.090  11.781  0.00  0.00    +0.000 NA
ATOM      5  C   UNL     1      45.715   6.353  10.976  0.00  0.00    +0.000 A 
ATOM      6  C   UNL     1      45.325   5.057  11.243  0.00  0.00    +0.000 A 
ATOM      7  C   UNL     1      45.793   4.555  12.440  0.00  0.00    +0.000 A 
ATOM      8  N   UNL     1      46.595   5.241  13.283  0.00  0.00    +0.000 NA
BRANCH   6   9
ATOM      9  C   UNL     1      44.433   4.281  10.319  0.00  0.00    +0.000 C 
BRANCH   9  10
ATOM     10  C   UNL     1      45.192   3.580   9.202  0.00  0.00    +0.000 A 
ATOM     11  C   UNL     1      45.342   2.193   9.200  0.00  0.00    +0.000 A 
ATOM     12  C   UNL     1      46.078   1.600   8.178  0.00  0.00    +0.000 A 
ATOM     13  C   UNL     1      46.638   2.398   7.188  0.00  0.00    +0.000 A 
ATOM     14  C   UNL     1      46.425   3.765   7.249  0.00  0.00    +0.000 A 
ATOM     15  N   UNL     1      45.712   4.373   8.223  0.00  0.00    +0.000 NA
ENDBRANCH   9  10
BRANCH   9  16
ATOM     16  O   UNL     1      43.461   5.174   9.754  0.00  0.00    +0.000 OA
ATOM     17  H   UNL     1      42.732   4.592   9.454  0.00  0.00    +0.000 HD
ENDBRANCH   9  16
ENDBRANCH   6   9
ENDBRANCH   2   3
BRANCH   2  18
ATOM     18  N   UNL     1      47.868   6.718  15.170  0.00  0.00    +0.000 N 
ATOM     19  C   UNL     1      49.005   6.484  15.887  0.00  0.00    +0.000 C 
ATOM     20  O   UNL     1      50.129   6.598  15.408  0.00  0.00    +0.000 OA
ATOM     21  H   UNL     1      46.964   6.735  15.635  0.00  0.00    +0.000 HD
BRANCH  19  22
ATOM     22  C   UNL     1      48.798   6.034  17.268  0.00  0.00    +0.000 A 
ATOM     23  C   UNL     1      49.106   4.735  17.644  0.00  0.00    +0.000 A 
ATOM     24  S   UNL     1      48.781   4.415  19.290  0.00  0.00    +0.000 S 
ATOM     25  C   UNL     1      48.255   6.011  19.558  0.00  0.00    +0.000 A 
ATOM     26  N   UNL     1      47.849   6.422  20.787  0.00  0.00    +0.000 NA
ATOM     27  C   UNL     1      47.495   7.666  20.846  0.00  0.00    +0.000 A 
ATOM     28  N   UNL     1      47.502   8.552  19.791  0.00  0.00    +0.000 N 
ATOM     29  C   UNL     1      47.074   9.924  19.959  0.00  0.00    +0.000 C 
ATOM     30  C   UNL     1      47.904   8.162  18.518  0.00  0.00    +0.000 A 
ATOM     31  O   UNL     1      47.900   8.930  17.562  0.00  0.00    +0.000 OA
ATOM     32  C   UNL     1      48.308   6.773  18.409  0.00  0.00    +0.000 A 
ENDBRANCH  19  22
ENDBRANCH   2  18
TORSDOF 6
ENDMDL
MODEL 2
REMARK VINA RESULT:    -8.090      3.496      4.366
REMARK INTER + INTRA:         -11.747
REMARK INTER:                 -10.622
REMARK INTRA:                  -1.125
REMARK UNBOUND:                -1.055
REMARK  Name = 
REMARK  8 active torsions:
REMARK  status: ('A' for Active; 'I' for Inactive)
REMARK    1  A    between atoms: C_1  and  C_2
REMARK    2  A    between atoms: C_2  and  N_3
REMARK    3  A    between atoms: C_2  and  C_17
REMARK    4  A    between atoms: C_4  and  C_6
REMARK    5  A    between atoms: N_12  and  C_13
REMARK    6  A    between atoms: C_20  and  C_21
REMARK    7  A    between atoms: C_21  and  O_22
REMARK    8  A    between atoms: C_21  and  C_23
REMARK                            x       y       z     vdW  Elec       q    Type
REMARK                         _______ _______ _______ _____ _____    ______ ____
ROOT
ATOM      1  C   UNL     1      47.007   4.403  15.072  0.00  0.00    +0.000 C 
ATOM      2  C   UNL     1      46.711   5.527  14.079  0.00  0.00    +0.000 C 
ENDROOT
BRANCH   2   3
ATOM      3  C   UNL     1      46.103   4.935  12.813  0.00  0.00    +0.000 A 
ATOM      4  N   UNL     1      46.011   5.731  11.729  0.00  0.00    +0.000 NA
ATOM      5  C   UNL     1      45.489   5.174  10.617  0.00  0.00    +0.000 A 
ATOM      6  C   UNL     1      45.049   3.869  10.535  0.00  0.00    +0.000 A 
ATOM      7  C   UNL     1      45.158   3.154  11.710  0.00  0.00    +0.000 A 
ATOM      8  N   UNL     1      45.679   3.654  12.851  0.00  0.00    +0.000 NA
BRANCH   6   9
ATOM      9  C   UNL     1      44.465   3.298   9.276  0.00  0.00    +0.000 C 
BRANCH   9  10
ATOM     10  C   UNL     1      45.513   2.709   8.343  0.00  0.00    +0.000 A 
ATOM     11  C   UNL     1      46.087   3.481   7.333  0.00  0.00    +0.000 A 
ATOM     12  C   UNL     1      47.013   2.888   6.480  0.00  0.00    +0.000 A 
ATOM     13  C   UNL     1      47.346   1.550   6.656  0.00  0.00    +0.000 A 
ATOM     14  C   UNL     1      46.748   0.858   7.697  0.00  0.00    +0.000 A 
ATOM     15  N   UNL     1      45.850   1.404   8.546  0.00  0.00    +0.000 NA
ENDBRANCH   9  10
BRANCH   9  16
ATOM     16  O   UNL     1      43.736   4.328   8.593  0.00  0.00    +0.000 OA
ATOM     17  H   UNL     1      43.261   3.863   7.874  0.00  0.00    +0.000 HD
ENDBRANCH   9  16
ENDBRANCH   6   9
ENDBRANCH   2   3
BRANCH   2  18
ATOM     18  N   UNL     1      47.921   6.275  13.774  0.00  0.00    +0.000 N 
ATOM     19  C   UNL     1      48.007   7.636  13.813  0.00  0.00    +0.000 C 
ATOM     20  O   UNL     1      47.029   8.361  13.967  0.00  0.00    +0.000 OA
ATOM     21  H   UNL     1      48.765   5.709  13.772  0.00  0.00    +0.000 HD
BRANCH  19  22
ATOM     22  C   UNL     1      49.350   8.189  13.608  0.00  0.00    +0.000 A 
ATOM     23  C   UNL     1      49.586   9.132  12.619  0.00  0.00    +0.000 A 
ATOM     24  S   UNL     1      51.217   9.635  12.542  0.00  0.00    +0.000 S 
ATOM     25  C   UNL     1      51.649   8.637  13.851  0.00  0.00    +0.000 A 
ATOM     26  N   UNL     1      52.921   8.606  14.324  0.00  0.00    +0.000 NA
ATOM     27  C   UNL     1      53.099   7.817  15.334  0.00  0.00    +0.000 A 
ATOM     28  N   UNL     1      52.125   7.043  15.927  0.00  0.00    +0.000 N 
ATOM     29  C   UNL     1      52.429   6.182  17.049  0.00  0.00    +0.000 C 
ATOM     30  C   UNL     1      50.813   7.045  15.464  0.00  0.00    +0.000 A 
ATOM     31  O   UNL     1      49.936   6.350  15.966  0.00  0.00    +0.000 OA
ATOM     32  C   UNL     1      50.573   7.917  14.329  0.00  0.00    +0.000 A 
ENDBRANCH  19  22
ENDBRANCH   2  18
TORSDOF 6
ENDMDL
MODEL 3
REMARK VINA RESULT:    -7.841      2.918      4.157
REMARK INTER + INTRA:         -11.418
REMARK INTER:                 -10.542
REMARK INTRA:                  -0.876
REMARK UNBOUND:                -1.055
REMARK  Name = 
REMARK  8 active torsions:
REMARK  status: ('A' for Active; 'I' for Inactive)
REMARK    1  A    between atoms: C_1  and  C_2
REMARK    2  A    between atoms: C_2  and  N_3
REMARK    3  A    between atoms: C_2  and  C_17
REMARK    4  A    between atoms: C_4  and  C_6
REMARK    5  A    between atoms: N_12  and  C_13
REMARK    6  A    between atoms: C_20  and  C_21
REMARK    7  A    between atoms: C_21  and  O_22
REMARK    8  A    between atoms: C_21  and  C_23
REMARK                            x       y       z     vdW  Elec       q    Type
REMARK                         _______ _______ _______ _____ _____    ______ ____
ROOT
ATOM      1  C   UNL     1      47.476   3.637  15.437  0.00  0.00    +0.000 C 
ATOM      2  C   UNL     1      46.878   4.915  14.850  0.00  0.00    +0.000 C 
ENDROOT
BRANCH   2   3
ATOM      3  C   UNL     1      46.194   4.591  13.527  0.00  0.00    +0.000 A 
ATOM      4  N   UNL     1      45.876   3.305  13.282  0.00  0.00    +0.000 NA
ATOM      5  C   UNL     1      45.252   3.053  12.113  0.00  0.00    +0.000 A 
ATOM      6  C   UNL     1      44.938   4.015  11.176  0.00  0.00    +0.000 A 
ATOM      7  C   UNL     1      45.338   5.292  11.513  0.00  0.00    +0.000 A 
ATOM      8  N   UNL     1      45.957   5.607  12.671  0.00  0.00    +0.000 NA
BRANCH   6   9
ATOM      9  C   UNL     1      44.252   3.682   9.884  0.00  0.00    +0.000 C 
BRANCH   9  10
ATOM     10  C   UNL     1      45.213   3.212   8.801  0.00  0.00    +0.000 A 
ATOM     11  C   UNL     1      45.607   1.876   8.724  0.00  0.00    +0.000 A 
ATOM     12  C   UNL     1      46.517   1.501   7.740  0.00  0.00    +0.000 A 
ATOM     13  C   UNL     1      47.006   2.459   6.860  0.00  0.00    +0.000 A 
ATOM     14  C   UNL     1      46.549   3.761   6.989  0.00  0.00    +0.000 A 
ATOM     15  N   UNL     1      45.662   4.158   7.928  0.00  0.00    +0.000 NA
ENDBRANCH   9  10
BRANCH   9  16
ATOM     16  O   UNL     1      43.538   4.839   9.424  0.00  0.00    +0.000 OA
ATOM     17  H   UNL     1      43.568   4.779   8.447  0.00  0.00    +0.000 HD
ENDBRANCH   9  16
ENDBRANCH   6   9
ENDBRANCH   2   3
BRANCH   2  18
ATOM     18  N   UNL     1      47.906   5.928  14.670  0.00  0.00    +0.000 N 
ATOM     19  C   UNL     1      48.660   6.439  15.686  0.00  0.00    +0.000 C 
ATOM     20  O   UNL     1      48.437   6.198  16.868  0.00  0.00    +0.000 OA
ATOM     21  H   UNL     1      48.199   6.049  13.704  0.00  0.00    +0.000 HD
BRANCH  19  22
ATOM     22  C   UNL     1      49.737   7.348  15.275  0.00  0.00    +0.000 A 
ATOM     23  C   UNL     1      51.045   7.125  15.677  0.00  0.00    +0.000 A 
ATOM     24  S   UNL     1      52.138   8.303  15.098  0.00  0.00    +0.000 S 
ATOM     25  C   UNL     1      50.903   9.125  14.262  0.00  0.00    +0.000 A 
ATOM     26  N   UNL     1      51.168  10.233  13.525  0.00  0.00    +0.000 NA
ATOM     27  C   UNL     1      50.137  10.740  12.930  0.00  0.00    +0.000 A 
ATOM     28  N   UNL     1      48.851  10.250  12.998  0.00  0.00    +0.000 N 
ATOM     29  C   UNL     1      47.761  10.899  12.302  0.00  0.00    +0.000 C 
ATOM     30  C   UNL     1      48.544   9.121  13.750  0.00  0.00    +0.000 A 
ATOM     31  O   UNL     1      47.403   8.679  13.838  0.00  0.00    +0.000 OA
ATOM     32  C   UNL     1      49.674   8.522  14.435  0.00  0.00    +0.000 A 
ENDBRANCH  19  22
ENDBRANCH   2  18
TORSDOF 6
ENDMDL
MODEL 4
REMARK VINA RESULT:    -7.631      1.692      2.421
REMARK INTER + INTRA:         -11.140
REMARK INTER:                  -9.909
REMARK INTRA:                  -1.231
REMARK UNBOUND:                -1.055
REMARK  Name = 
REMARK  8 active torsions:
REMARK  status: ('A' for Active; 'I' for Inactive)
REMARK    1  A    between atoms: C_1  and  C_2
REMARK    2  A    between atoms: C_2  and  N_3
REMARK    3  A    between atoms: C_2  and  C_17
REMARK    4  A    between atoms: C_4  and  C_6
REMARK    5  A    between atoms: N_12  and  C_13
REMARK    6  A    between atoms: C_20  and  C_21
REMARK    7  A    between atoms: C_21  and  O_22
REMARK    8  A    between atoms: C_21  and  C_23
REMARK                            x       y       z     vdW  Elec       q    Type
REMARK                         _______ _______ _______ _____ _____    ______ ____
ROOT
ATOM      1  C   UNL     1      47.472   9.661  13.263  0.00  0.00    +0.000 C 
ATOM      2  C   UNL     1      47.984   8.224  13.367  0.00  0.00    +0.000 C 
ENDROOT
BRANCH   2   3
ATOM      3  C   UNL     1      47.002   7.287  12.675  0.00  0.00    +0.000 A 
ATOM      4  N   UNL     1      46.017   7.840  11.940  0.00  0.00    +0.000 NA
ATOM      5  C   UNL     1      45.176   6.985  11.322  0.00  0.00    +0.000 A 
ATOM      6  C   UNL     1      45.265   5.611  11.406  0.00  0.00    +0.000 A 
ATOM      7  C   UNL     1      46.288   5.152  12.210  0.00  0.00    +0.000 A 
ATOM      8  N   UNL     1      47.165   5.958  12.847  0.00  0.00    +0.000 NA
BRANCH   6   9
ATOM      9  C   UNL     1      44.297   4.701  10.707  0.00  0.00    +0.000 C 
BRANCH   9  10
ATOM     10  C   UNL     1      44.941   3.880   9.600  0.00  0.00    +0.000 A 
ATOM     11  C   UNL     1      44.928   2.486   9.642  0.00  0.00    +0.000 A 
ATOM     12  C   UNL     1      45.563   1.778   8.626  0.00  0.00    +0.000 A 
ATOM     13  C   UNL     1      46.187   2.472   7.597  0.00  0.00    +0.000 A 
ATOM     14  C   UNL     1      46.136   3.857   7.615  0.00  0.00    +0.000 A 
ATOM     15  N   UNL     1      45.525   4.575   8.582  0.00  0.00    +0.000 NA
ENDBRANCH   9  10
BRANCH   9  16
ATOM     16  O   UNL     1      43.228   5.489  10.163  0.00  0.00    +0.000 OA
ATOM     17  H   UNL     1      43.618   5.934   9.382  0.00  0.00    +0.000 HD
ENDBRANCH   9  16
ENDBRANCH   6   9
ENDBRANCH   2   3
BRANCH   2  18
ATOM     18  N   UNL     1      48.171   7.845  14.759  0.00  0.00    +0.000 N 
ATOM     19  C   UNL     1      49.388   7.775  15.374  0.00  0.00    +0.000 C 
ATOM     20  O   UNL     1      50.448   7.882  14.766  0.00  0.00    +0.000 OA
ATOM     21  H   UNL     1      47.319   7.878  15.312  0.00  0.00    +0.000 HD
BRANCH  19  22
ATOM     22  C   UNL     1      49.349   7.508  16.817  0.00  0.00    +0.000 A 
ATOM     23  C   UNL     1      49.731   8.482  17.728  0.00  0.00    +0.000 A 
ATOM     24  S   UNL     1      49.620   7.965  19.352  0.00  0.00    +0.000 S 
ATOM     25  C   UNL     1      49.024   6.439  18.889  0.00  0.00    +0.000 A 
ATOM     26  N   UNL     1      48.697   5.501  19.813  0.00  0.00    +0.000 NA
ATOM     27  C   UNL     1      48.239   4.397  19.317  0.00  0.00    +0.000 A 
ATOM     28  N   UNL     1      48.075   4.129  17.975  0.00  0.00    +0.000 N 
ATOM     29  C   UNL     1      47.564   2.854  17.520  0.00  0.00    +0.000 C 
ATOM     30  C   UNL     1      48.408   5.065  17.002  0.00  0.00    +0.000 A 
ATOM     31  O   UNL     1      48.287   4.839  15.802  0.00  0.00    +0.000 OA
ATOM     32  C   UNL     1      48.927   6.318  17.518  0.00  0.00    +0.000 A 
ENDBRANCH  19  22
ENDBRANCH   2  18
TORSDOF 6
ENDMDL
MODEL 5
REMARK VINA RESULT:    -7.520      2.894      4.190
REMARK INTER + INTRA:         -10.993
REMARK INTER:                 -10.137
REMARK INTRA:                  -0.856
REMARK UNBOUND:                -1.055
REMARK  Name = 
REMARK  8 active torsions:
REMARK  status: ('A' for Active; 'I' for Inactive)
REMARK    1  A    between atoms: C_1  and  C_2
REMARK    2  A    between atoms: C_2  and  N_3
REMARK    3  A    between atoms: C_2  and  C_17
REMARK    4  A    between atoms: C_4  and  C_6
REMARK    5  A    between atoms: N_12  and  C_13
REMARK    6  A    between atoms: C_20  and  C_21
REMARK    7  A    between atoms: C_21  and  O_22
REMARK    8  A    between atoms: C_21  and  C_23
REMARK                            x       y       z     vdW  Elec       q    Type
REMARK                         _______ _______ _______ _____ _____    ______ ____
ROOT
ATOM      1  C   UNL     1      47.555   3.588  15.774  0.00  0.00    +0.000 C 
ATOM      2  C   UNL     1      47.066   4.919  15.206  0.00  0.00    +0.000 C 
ENDROOT
BRANCH   2   3
ATOM      3  C   UNL     1      46.317   4.668  13.902  0.00  0.00    +0.000 A 
ATOM      4  N   UNL     1      46.170   3.390  13.499  0.00  0.00    +0.000 NA
ATOM      5  C   UNL     1      45.485   3.198  12.353  0.00  0.00    +0.000 A 
ATOM      6  C   UNL     1      44.946   4.213  11.589  0.00  0.00    +0.000 A 
ATOM      7  C   UNL     1      45.184   5.482  12.076  0.00  0.00    +0.000 A 
ATOM      8  N   UNL     1      45.855   5.737  13.220  0.00  0.00    +0.000 NA
BRANCH   6   9
ATOM      9  C   UNL     1      44.200   3.948  10.315  0.00  0.00    +0.000 C 
BRANCH   9  10
ATOM     10  C   UNL     1      45.095   3.446   9.191  0.00  0.00    +0.000 A 
ATOM     11  C   UNL     1      45.343   2.083   9.026  0.00  0.00    +0.000 A 
ATOM     12  C   UNL     1      46.199   1.675   8.008  0.00  0.00    +0.000 A 
ATOM     13  C   UNL     1      46.780   2.629   7.181  0.00  0.00    +0.000 A 
ATOM     14  C   UNL     1      46.466   3.961   7.395  0.00  0.00    +0.000 A 
ATOM     15  N   UNL     1      45.635   4.391   8.370  0.00  0.00    +0.000 NA
ENDBRANCH   9  10
BRANCH   9  16
ATOM     16  O   UNL     1      43.540   5.153   9.902  0.00  0.00    +0.000 OA
ATOM     17  H   UNL     1      44.190   5.611   9.329  0.00  0.00    +0.000 HD
ENDBRANCH   9  16
ENDBRANCH   6   9
ENDBRANCH   2   3
BRANCH   2  18
ATOM     18  N   UNL     1      48.182   5.830  14.996  0.00  0.00    +0.000 N 
ATOM     19  C   UNL     1      48.736   6.596  15.980  0.00  0.00    +0.000 C 
ATOM     20  O   UNL     1      48.247   6.697  17.101  0.00  0.00    +0.000 OA
ATOM     21  H   UNL     1      48.683   5.672  14.127  0.00  0.00    +0.000 HD
BRANCH  19  22
ATOM     22  C   UNL     1      49.940   7.341  15.594  0.00  0.00    +0.000 A 
ATOM     23  C   UNL     1      49.843   8.531  14.889  0.00  0.00    +0.000 A 
ATOM     24  S   UNL     1      51.360   9.230  14.533  0.00  0.00    +0.000 S 
ATOM     25  C   UNL     1      52.191   7.984  15.342  0.00  0.00    +0.000 A 
ATOM     26  N   UNL     1      53.545   7.984  15.434  0.00  0.00    +0.000 NA
ATOM     27  C   UNL     1      54.038   6.986  16.095  0.00  0.00    +0.000 A 
ATOM     28  N   UNL     1      53.308   5.973  16.678  0.00  0.00    +0.000 N 
ATOM     29  C   UNL     1      53.957   4.891  17.387  0.00  0.00    +0.000 C 
ATOM     30  C   UNL     1      51.920   5.938  16.596  0.00  0.00    +0.000 A 
ATOM     31  O   UNL     1      51.254   5.035  17.091  0.00  0.00    +0.000 OA
ATOM     32  C   UNL     1      51.328   7.040  15.861  0.00  0.00    +0.000 A 
ENDBRANCH  19  22
ENDBRANCH   2  18
TORSDOF 6
ENDMDL
MODEL 6
REMARK VINA RESULT:    -7.034      4.735      9.222
REMARK INTER + INTRA:         -10.351
REMARK INTER:                  -9.793
REMARK INTRA:                  -0.558
REMARK UNBOUND:                -1.055
REMARK  Name = 
REMARK  8 active torsions:
REMARK  status: ('A' for Active; 'I' for Inactive)
REMARK    1  A    between atoms: C_1  and  C_2
REMARK    2  A    between atoms: C_2  and  N_3
REMARK    3  A    between atoms: C_2  and  C_17
REMARK    4  A    between atoms: C_4  and  C_6
REMARK    5  A    between atoms: N_12  and  C_13
REMARK    6  A    between atoms: C_20  and  C_21
REMARK    7  A    between atoms: C_21  and  O_22
REMARK    8  A    between atoms: C_21  and  C_23
REMARK                            x       y       z     vdW  Elec       q    Type
REMARK                         _______ _______ _______ _____ _____    ______ ____
ROOT
ATOM      1  C   UNL     1      47.079   3.127  17.862  0.00  0.00    +0.000 C 
ATOM      2  C   UNL     1      47.939   3.000  16.605  0.00  0.00    +0.000 C 
ENDROOT
BRANCH   2   3
ATOM      3  C   UNL     1      49.400   2.834  17.006  0.00  0.00    +0.000 A 
ATOM      4  N   UNL     1      50.072   3.933  17.401  0.00  0.00    +0.000 NA
ATOM      5  C   UNL     1      51.356   3.751  17.770  0.00  0.00    +0.000 A 
ATOM      6  C   UNL     1      52.003   2.532  17.759  0.00  0.00    +0.000 A 
ATOM      7  C   UNL     1      51.233   1.481  17.306  0.00  0.00    +0.000 A 
ATOM      8  N   UNL     1      49.941   1.599  16.931  0.00  0.00    +0.000 NA
BRANCH   6   9
ATOM      9  C   UNL     1      53.439   2.383  18.169  0.00  0.00    +0.000 C 
BRANCH   9  10
ATOM     10  C   UNL     1      54.006   1.002  17.873  0.00  0.00    +0.000 A 
ATOM     11  C   UNL     1      54.647   0.735  16.663  0.00  0.00    +0.000 A 
ATOM     12  C   UNL     1      55.115  -0.553  16.422  0.00  0.00    +0.000 A 
ATOM     13  C   UNL     1      54.937  -1.536  17.388  0.00  0.00    +0.000 A 
ATOM     14  C   UNL     1      54.311  -1.186  18.572  0.00  0.00    +0.000 A 
ATOM     15  N   UNL     1      53.849   0.055  18.841  0.00  0.00    +0.000 NA
ENDBRANCH   9  10
BRANCH   9  16
ATOM     16  O   UNL     1      53.552   2.659  19.573  0.00  0.00    +0.000 OA
ATOM     17  H   UNL     1      53.040   1.947  20.010  0.00  0.00    +0.000 HD
ENDBRANCH   9  16
ENDBRANCH   6   9
ENDBRANCH   2   3
BRANCH   2  18
ATOM     18  N   UNL     1      47.765   4.162  15.745  0.00  0.00    +0.000 N 
ATOM     19  C   UNL     1      47.341   4.096  14.450  0.00  0.00    +0.000 C 
ATOM     20  O   UNL     1      47.208   3.036  13.846  0.00  0.00    +0.000 OA
ATOM     21  H   UNL     1      47.741   5.045  16.247  0.00  0.00    +0.000 HD
BRANCH  19  22
ATOM     22  C   UNL     1      47.098   5.389  13.800  0.00  0.00    +0.000 A 
ATOM     23  C   UNL     1      48.078   6.371  13.787  0.00  0.00    +0.000 A 
ATOM     24  S   UNL     1      47.589   7.800  12.990  0.00  0.00    +0.000 S 
ATOM     25  C   UNL     1      46.069   7.137  12.605  0.00  0.00    +0.000 A 
ATOM     26  N   UNL     1      45.152   7.842  11.895  0.00  0.00    +0.000 NA
ATOM     27  C   UNL     1      44.050   7.204  11.660  0.00  0.00    +0.000 A 
ATOM     28  N   UNL     1      43.765   5.920  12.070  0.00  0.00    +0.000 N 
ATOM     29  C   UNL     1      42.494   5.299  11.766  0.00  0.00    +0.000 C 
ATOM     30  C   UNL     1      44.678   5.173  12.806  0.00  0.00    +0.000 A 
ATOM     31  O   UNL     1      44.436   4.036  13.196  0.00  0.00    +0.000 OA
ATOM     32  C   UNL     1      45.928   5.853  13.092  0.00  0.00    +0.000 A 
ENDBRANCH  19  22
ENDBRANCH   2  18
TORSDOF 6
ENDMDL
MODEL 7
REMARK VINA RESULT:    -6.959      2.414      9.422
REMARK INTER + INTRA:         -10.252
REMARK INTER:                  -9.287
REMARK INTRA:                  -0.965
REMARK UNBOUND:                -1.055
REMARK  Name = 
REMARK  8 active torsions:
REMARK  status: ('A' for Active; 'I' for Inactive)
REMARK    1  A    between atoms: C_1  and  C_2
REMARK    2  A    between atoms: C_2  and  N_3
REMARK    3  A    between atoms: C_2  and  C_17
REMARK    4  A    between atoms: C_4  and  C_6
REMARK    5  A    between atoms: N_12  and  C_13
REMARK    6  A    between atoms: C_20  and  C_21
REMARK    7  A    between atoms: C_21  and  O_22
REMARK    8  A    between atoms: C_21  and  C_23
REMARK                            x       y       z     vdW  Elec       q    Type
REMARK                         _______ _______ _______ _____ _____    ______ ____
ROOT
ATOM      1  C   UNL     1      48.576   7.758  11.416  0.00  0.00    +0.000 C 
ATOM      2  C   UNL     1      47.440   7.722  12.437  0.00  0.00    +0.000 C 
ENDROOT
BRANCH   2   3
ATOM      3  C   UNL     1      48.021   7.800  13.843  0.00  0.00    +0.000 A 
ATOM      4  N   UNL     1      48.619   6.698  14.338  0.00  0.00    +0.000 NA
ATOM      5  C   UNL     1      49.143   6.805  15.576  0.00  0.00    +0.000 A 
ATOM      6  C   UNL     1      49.095   7.949  16.346  0.00  0.00    +0.000 A 
ATOM      7  C   UNL     1      48.431   9.006  15.757  0.00  0.00    +0.000 A 
ATOM      8  N   UNL     1      47.894   8.962  14.519  0.00  0.00    +0.000 NA
BRANCH   6   9
ATOM      9  C   UNL     1      49.684   8.014  17.724  0.00  0.00    +0.000 C 
BRANCH   9  10
ATOM     10  C   UNL     1      49.130   6.951  18.662  0.00  0.00    +0.000 A 
ATOM     11  C   UNL     1      47.832   7.044  19.164  0.00  0.00    +0.000 A 
ATOM     12  C   UNL     1      47.384   6.069  20.049  0.00  0.00    +0.000 A 
ATOM     13  C   UNL     1      48.232   5.027  20.406  0.00  0.00    +0.000 A 
ATOM     14  C   UNL     1      49.499   4.993  19.846  0.00  0.00    +0.000 A 
ATOM     15  N   UNL     1      49.964   5.921  18.980  0.00  0.00    +0.000 NA
ENDBRANCH   9  10
BRANCH   9  16
ATOM     16  O   UNL     1      49.438   9.316  18.275  0.00  0.00    +0.000 OA
ATOM     17  H   UNL     1      48.488   9.485  18.102  0.00  0.00    +0.000 HD
ENDBRANCH   9  16
ENDBRANCH   6   9
ENDBRANCH   2   3
BRANCH   2  18
ATOM     18  N   UNL     1      46.639   6.518  12.272  0.00  0.00    +0.000 N 
ATOM     19  C   UNL     1      45.407   6.495  11.685  0.00  0.00    +0.000 C 
ATOM     20  O   UNL     1      44.799   7.514  11.374  0.00  0.00    +0.000 OA
ATOM     21  H   UNL     1      47.162   5.656  12.398  0.00  0.00    +0.000 HD
BRANCH  19  22
ATOM     22  C   UNL     1      44.827   5.162  11.491  0.00  0.00    +0.000 A 
ATOM     23  C   UNL     1      44.031   4.586  12.470  0.00  0.00    +0.000 A 
ATOM     24  S   UNL     1      43.465   3.030  12.050  0.00  0.00    +0.000 S 
ATOM     25  C   UNL     1      44.235   3.094  10.533  0.00  0.00    +0.000 A 
ATOM     26  N   UNL     1      44.133   2.071   9.647  0.00  0.00    +0.000 NA
ATOM     27  C   UNL     1      44.753   2.267   8.528  0.00  0.00    +0.000 A 
ATOM     28  N   UNL     1      45.476   3.393   8.199  0.00  0.00    +0.000 N 
ATOM     29  C   UNL     1      46.145   3.510   6.922  0.00  0.00    +0.000 C 
ATOM     30  C   UNL     1      45.607   4.456   9.086  0.00  0.00    +0.000 A 
ATOM     31  O   UNL     1      46.262   5.458   8.820  0.00  0.00    +0.000 OA
ATOM     32  C   UNL     1      44.927   4.275  10.355  0.00  0.00    +0.000 A 
ENDBRANCH  19  22
ENDBRANCH   2  18
TORSDOF 6
ENDMDL
MODEL 8
REMARK VINA RESULT:    -6.568      4.559      8.653
REMARK INTER + INTRA:          -9.736
REMARK INTER:                  -8.767
REMARK INTRA:                  -0.969
REMARK UNBOUND:                -1.055
REMARK  Name = 
REMARK  8 active torsions:
REMARK  status: ('A' for Active; 'I' for Inactive)
REMARK    1  A    between atoms: C_1  and  C_2
REMARK    2  A    between atoms: C_2  and  N_3
REMARK    3  A    between atoms: C_2  and  C_17
REMARK    4  A    between atoms: C_4  and  C_6
REMARK    5  A    between atoms: N_12  and  C_13
REMARK    6  A    between atoms: C_20  and  C_21
REMARK    7  A    between atoms: C_21  and  O_22
REMARK    8  A    between atoms: C_21  and  C_23
REMARK                            x       y       z     vdW  Elec       q    Type
REMARK                         _______ _______ _______ _____ _____    ______ ____
ROOT
ATOM      1  C   UNL     1      46.780   3.084  17.774  0.00  0.00    +0.000 C 
ATOM      2  C   UNL     1      47.688   3.063  16.545  0.00  0.00    +0.000 C 
ENDROOT
BRANCH   2   3
ATOM      3  C   UNL     1      49.141   2.960  16.992  0.00  0.00    +0.000 A 
ATOM      4  N   UNL     1      49.661   3.996  17.681  0.00  0.00    +0.000 NA
ATOM      5  C   UNL     1      50.942   3.867  18.082  0.00  0.00    +0.000 A 
ATOM      6  C   UNL     1      51.730   2.764  17.825  0.00  0.00    +0.000 A 
ATOM      7  C   UNL     1      51.110   1.779  17.085  0.00  0.00    +0.000 A 
ATOM      8  N   UNL     1      49.829   1.847  16.663  0.00  0.00    +0.000 NA
BRANCH   6   9
ATOM      9  C   UNL     1      53.156   2.674  18.284  0.00  0.00    +0.000 C 
BRANCH   9  10
ATOM     10  C   UNL     1      53.824   1.359  17.906  0.00  0.00    +0.000 A 
ATOM     11  C   UNL     1      54.671   1.278  16.800  0.00  0.00    +0.000 A 
ATOM     12  C   UNL     1      55.228   0.046  16.471  0.00  0.00    +0.000 A 
ATOM     13  C   UNL     1      54.933  -1.067  17.250  0.00  0.00    +0.000 A 
ATOM     14  C   UNL     1      54.102  -0.899  18.345  0.00  0.00    +0.000 A 
ATOM     15  N   UNL     1      53.548   0.283  18.696  0.00  0.00    +0.000 NA
ENDBRANCH   9  10
BRANCH   9  16
ATOM     16  O   UNL     1      53.198   2.843  19.708  0.00  0.00    +0.000 OA
ATOM     17  H   UNL     1      52.335   2.503  20.026  0.00  0.00    +0.000 HD
ENDBRANCH   9  16
ENDBRANCH   6   9
ENDBRANCH   2   3
BRANCH   2  18
ATOM     18  N   UNL     1      47.477   4.249  15.730  0.00  0.00    +0.000 N 
ATOM     19  C   UNL     1      47.175   4.218  14.399  0.00  0.00    +0.000 C 
ATOM     20  O   UNL     1      47.200   3.186  13.736  0.00  0.00    +0.000 OA
ATOM     21  H   UNL     1      47.324   5.097  16.269  0.00  0.00    +0.000 HD
BRANCH  19  22
ATOM     22  C   UNL     1      46.866   5.517  13.793  0.00  0.00    +0.000 A 
ATOM     23  C   UNL     1      45.701   5.700  13.062  0.00  0.00    +0.000 A 
ATOM     24  S   UNL     1      45.538   7.281  12.436  0.00  0.00    +0.000 S 
ATOM     25  C   UNL     1      46.999   7.779  13.154  0.00  0.00    +0.000 A 
ATOM     26  N   UNL     1      47.448   9.054  13.026  0.00  0.00    +0.000 NA
ATOM     27  C   UNL     1      48.562   9.295  13.641  0.00  0.00    +0.000 A 
ATOM     28  N   UNL     1      49.284   8.381  14.376  0.00  0.00    +0.000 N 
ATOM     29  C   UNL     1      50.528   8.747  15.017  0.00  0.00    +0.000 C 
ATOM     30  C   UNL     1      48.857   7.065  14.521  0.00  0.00    +0.000 A 
ATOM     31  O   UNL     1      49.495   6.232  15.155  0.00  0.00    +0.000 OA
ATOM     32  C   UNL     1      47.612   6.754  13.845  0.00  0.00    +0.000 A 
ENDBRANCH  19  22
ENDBRANCH   2  18
TORSDOF 6
ENDMDL
MODEL 9
REMARK VINA RESULT:    -6.430      3.868      5.423
REMARK INTER + INTRA:          -9.553
REMARK INTER:                  -8.346
REMARK INTRA:                  -1.207
REMARK UNBOUND:                -1.055
REMARK  Name = 
REMARK  8 active torsions:
REMARK  status: ('A' for Active; 'I' for Inactive)
REMARK    1  A    between atoms: C_1  and  C_2
REMARK    2  A    between atoms: C_2  and  N_3
REMARK    3  A    between atoms: C_2  and  C_17
REMARK    4  A    between atoms: C_4  and  C_6
REMARK    5  A    between atoms: N_12  and  C_13
REMARK    6  A    between atoms: C_20  and  C_21
REMARK    7  A    between atoms: C_21  and  O_22
REMARK    8  A    between atoms: C_21  and  C_23
REMARK                            x       y       z     vdW  Elec       q    Type
REMARK                         _______ _______ _______ _____ _____    ______ ____
ROOT
ATOM      1  C   UNL     1      48.395   6.360  15.406  0.00  0.00    +0.000 C 
ATOM      2  C   UNL     1      48.149   7.219  14.167  0.00  0.00    +0.000 C 
ENDROOT
BRANCH   2   3
ATOM      3  C   UNL     1      47.134   6.527  13.265  0.00  0.00    +0.000 A 
ATOM      4  N   UNL     1      46.970   5.196  13.409  0.00  0.00    +0.000 NA
ATOM      5  C   UNL     1      46.050   4.615  12.612  0.00  0.00    +0.000 A 
ATOM      6  C   UNL     1      45.293   5.291  11.677  0.00  0.00    +0.000 A 
ATOM      7  C   UNL     1      45.565   6.641  11.590  0.00  0.00    +0.000 A 
ATOM      8  N   UNL     1      46.467   7.280  12.365  0.00  0.00    +0.000 NA
BRANCH   6   9
ATOM      9  C   UNL     1      44.289   4.597  10.806  0.00  0.00    +0.000 C 
BRANCH   9  10
ATOM     10  C   UNL     1      44.926   3.795   9.679  0.00  0.00    +0.000 A 
ATOM     11  C   UNL     1      45.564   4.435   8.617  0.00  0.00    +0.000 A 
ATOM     12  C   UNL     1      46.098   3.661   7.591  0.00  0.00    +0.000 A 
ATOM     13  C   UNL     1      45.988   2.277   7.651  0.00  0.00    +0.000 A 
ATOM     14  C   UNL     1      45.359   1.717   8.751  0.00  0.00    +0.000 A 
ATOM     15  N   UNL     1      44.834   2.438   9.767  0.00  0.00    +0.000 NA
ENDBRANCH   9  10
BRANCH   9  16
ATOM     16  O   UNL     1      43.395   5.575  10.254  0.00  0.00    +0.000 OA
ATOM     17  H   UNL     1      43.886   6.422  10.311  0.00  0.00    +0.000 HD
ENDBRANCH   9  16
ENDBRANCH   6   9
ENDBRANCH   2   3
BRANCH   2  18
ATOM     18  N   UNL     1      49.395   7.463  13.456  0.00  0.00    +0.000 N 
ATOM     19  C   UNL     1      49.751   8.673  12.933  0.00  0.00    +0.000 C 
ATOM     20  O   UNL     1      48.985   9.630  12.887  0.00  0.00    +0.000 OA
ATOM     21  H   UNL     1      50.094   6.738  13.590  0.00  0.00    +0.000 HD
BRANCH  19  22
ATOM     22  C   UNL     1      51.107   8.743  12.377  0.00  0.00    +0.000 A 
ATOM     23  C   UNL     1      51.313   9.084  11.049  0.00  0.00    +0.000 A 
ATOM     24  S   UNL     1      52.961   9.099  10.603  0.00  0.00    +0.000 S 
ATOM     25  C   UNL     1      53.453   8.687  12.180  0.00  0.00    +0.000 A 
ATOM     26  N   UNL     1      54.766   8.557  12.498  0.00  0.00    +0.000 NA
ATOM     27  C   UNL     1      54.991   8.259  13.737  0.00  0.00    +0.000 A 
ATOM     28  N   UNL     1      54.027   8.074  14.704  0.00  0.00    +0.000 N 
ATOM     29  C   UNL     1      54.383   7.731  16.064  0.00  0.00    +0.000 C 
ATOM     30  C   UNL     1      52.673   8.191  14.411  0.00  0.00    +0.000 A 
ATOM     31  O   UNL     1      51.799   8.011  15.253  0.00  0.00    +0.000 OA
ATOM     32  C   UNL     1      52.377   8.523  13.030  0.00  0.00    +0.000 A 
ENDBRANCH  19  22
ENDBRANCH   2  18
TORSDOF 6
ENDMDL
