MODEL 1
REMARK VINA RESULT:    -7.731      0.000      0.000
REMARK INTER + INTRA:         -13.214
REMARK INTER:                 -11.798
REMARK INTRA:                  -1.415
REMARK UNBOUND:                -1.415
REMARK  Name = 
REMARK  11 active torsions:
REMARK  status: ('A' for Active; 'I' for Inactive)
REMARK    1  A    between atoms: C_1  and  O_2
REMARK    2  A    between atoms: O_2  and  C_3
REMARK    3  A    between atoms: C_8  and  C_9
REMARK    4  A    between atoms: C_9  and  N_10
REMARK    5  A    between atoms: N_10  and  C_11
REMARK    6  A    between atoms: C_11  and  C_12
REMARK    7  A    between atoms: C_15  and  C_16
REMARK    8  A    between atoms: C_16  and  N_17
REMARK    9  A    between atoms: C_18  and  C_20
REMARK   10  A    between atoms: C_27  and  O_28
REMARK   11  A    between atoms: O_28  and  C_29
REMARK                            x       y       z     vdW  Elec       q    Type
REMARK                         _______ _______ _______ _____ _____    ______ ____
ROOT
ATOM      1  C   UNL     1      44.718   4.388  12.232  0.00  0.00    +0.000 A 
ATOM      2  C   UNL     1      44.280   5.718  12.298  0.00  0.00    +0.000 A 
ATOM      3  C   UNL     1      45.156   6.751  12.648  0.00  0.00    +0.000 A 
ATOM      4  C   UNL     1      46.496   6.478  12.945  0.00  0.00    +0.000 A 
ATOM      5  C   UNL     1      46.930   5.145  12.920  0.00  0.00    +0.000 A 
ATOM      6  C   UNL     1      46.053   4.112  12.564  0.00  0.00    +0.000 A 
ENDROOT
BRANCH   1   7
ATOM      7  C   UNL     1      43.767   3.279  11.823  0.00  0.00    +0.000 C 
BRANCH   7   8
ATOM      8  N   UNL     1      44.389   2.382  10.848  0.00  0.00    +0.000 NA
ATOM      9  H   UNL     1      45.396   2.362  10.999  0.00  0.00    +0.000 HD
BRANCH   8  10
ATOM     10  C   UNL     1      44.157   2.817   9.466  0.00  0.00    +0.000 C 
BRANCH  10  16
ATOM     11  C   UNL     1      46.051   3.497   7.865  0.00  0.00    +0.000 A 
ATOM     12  C   UNL     1      47.129   3.124   7.047  0.00  0.00    +0.000 A 
ATOM     13  C   UNL     1      47.512   1.786   6.934  0.00  0.00    +0.000 A 
ATOM     14  C   UNL     1      46.831   0.806   7.643  0.00  0.00    +0.000 A 
ATOM     15  C   UNL     1      45.762   1.164   8.462  0.00  0.00    +0.000 A 
ATOM     16  C   UNL     1      45.358   2.508   8.590  0.00  0.00    +0.000 A 
BRANCH  11  18
ATOM     17  C   UNL     1      46.238   5.511   9.118  0.00  0.00    +0.000 C 
ATOM     18  O   UNL     1      45.645   4.796   8.038  0.00  0.00    +0.000 OA
ENDBRANCH  11  18
ENDBRANCH  10  16
ENDBRANCH   8  10
ENDBRANCH   7   8
ENDBRANCH   1   7
BRANCH   4  19
ATOM     19  C   UNL     1      47.440   7.588  13.332  0.00  0.00    +0.000 C 
BRANCH  19  20
ATOM     20  N   UNL     1      47.639   7.620  14.758  0.00  0.00    +0.000 N 
ATOM     21  C   UNL     1      48.779   7.138  15.345  0.00  0.00    +0.000 C 
ATOM     22  O   UNL     1      49.724   6.713  14.687  0.00  0.00    +0.000 OA
ATOM     23  H   UNL     1      46.833   7.832  15.332  0.00  0.00    +0.000 HD
BRANCH  21  24
ATOM     24  C   UNL     1      48.837   7.228  16.811  0.00  0.00    +0.000 A 
ATOM     25  C   UNL     1      48.923   8.476  17.415  0.00  0.00    +0.000 A 
ATOM     26  S   UNL     1      48.894   8.408  19.116  0.00  0.00    +0.000 S 
ATOM     27  C   UNL     1      48.821   6.710  19.097  0.00  0.00    +0.000 A 
ATOM     28  N   UNL     1      48.779   6.032  20.255  0.00  0.00    +0.000 NA
ATOM     29  C   UNL     1      48.748   4.709  20.078  0.00  0.00    +0.000 A 
ATOM     30  N   UNL     1      48.766   4.048  18.915  0.00  0.00    +0.000 NA
ATOM     31  C   UNL     1      48.812   4.770  17.778  0.00  0.00    +0.000 A 
ATOM     32  C   UNL     1      48.821   6.176  17.815  0.00  0.00    +0.000 A 
BRANCH  31  33
ATOM     33  O   UNL     1      48.855   4.116  16.565  0.00  0.00    +0.000 OA
ATOM     34  C   UNL     1      47.596   3.601  16.142  0.00  0.00    +0.000 C 
ENDBRANCH  31  33
ENDBRANCH  21  24
ENDBRANCH  19  20
ENDBRANCH   4  19
TORSDOF 9
ENDMDL
MODEL 2
REMARK VINA RESULT:    -7.425      1.862      2.448
REMARK INTER + INTRA:         -12.746
REMARK INTER:                 -11.101
REMARK INTRA:                  -1.646
REMARK UNBOUND:                -1.415
REMARK  Name = 
REMARK  11 active torsions:
REMARK  status: ('A' for Active; 'I' for Inactive)
REMARK    1  A    between atoms: C_1  and  O_2
REMARK    2  A    between atoms: O_2  and  C_3
REMARK    3  A    between atoms: C_8  and  C_9
REMARK    4  A    between atoms: C_9  and  N_10
REMARK    5  A    between atoms: N_10  and  C_11
REMARK    6  A    between atoms: C_11  and  C_12
REMARK    7  A    between atoms: C_15  and  C_16
REMARK    8  A    between atoms: C_16  and  N_17
REMARK    9  A    between atoms: C_18  and  C_20
REMARK   10  A    between atoms: C_27  and  O_28
REMARK   11  A    between atoms: O_28  and  C_29
REMARK                            x       y       z     vdW  Elec       q    Type
REMARK                         _______ _______ _______ _____ _____    ______ ____
ROOT
ATOM      1  C   UNL     1      44.583   4.393  12.661  0.00  0.00    +0.000 A 
ATOM      2  C   UNL     1      44.197   5.737  12.561  0.00  0.00    +0.000 A 
ATOM      3  C   UNL     1      45.113   6.769  12.789  0.00  0.00    +0.000 A 
ATOM      4  C   UNL     1      46.440   6.483  13.128  0.00  0.00    +0.000 A 
ATOM      5  C   UNL     1      46.821   5.141  13.268  0.00  0.00    +0.000 A 
ATOM      6  C   UNL     1      45.904   4.107  13.033  0.00  0.00    +0.000 A 
ENDROOT
BRANCH   1   7
ATOM      7  C   UNL     1      43.590   3.280  12.382  0.00  0.00    +0.000 C 
BRANCH   7   8
ATOM      8  N   UNL     1      43.378   3.108  10.945  0.00  0.00    +0.000 NA
ATOM      9  H   UNL     1      42.441   2.743  10.781  0.00  0.00    +0.000 HD
BRANCH   8  10
ATOM     10  C   UNL     1      44.331   2.163  10.352  0.00  0.00    +0.000 C 
BRANCH  10  16
ATOM     11  C   UNL     1      45.898   2.103   8.313  0.00  0.00    +0.000 A 
ATOM     12  C   UNL     1      46.657   2.794   7.357  0.00  0.00    +0.000 A 
ATOM     13  C   UNL     1      46.688   4.190   7.341  0.00  0.00    +0.000 A 
ATOM     14  C   UNL     1      45.954   4.912   8.272  0.00  0.00    +0.000 A 
ATOM     15  C   UNL     1      45.193   4.238   9.224  0.00  0.00    +0.000 A 
ATOM     16  C   UNL     1      45.148   2.830   9.259  0.00  0.00    +0.000 A 
BRANCH  11  18
ATOM     17  C   UNL     1      46.781   0.002   7.629  0.00  0.00    +0.000 C 
ATOM     18  O   UNL     1      45.805   0.735   8.363  0.00  0.00    +0.000 OA
ENDBRANCH  11  18
ENDBRANCH  10  16
ENDBRANCH   8  10
ENDBRANCH   7   8
ENDBRANCH   1   7
BRANCH   4  19
ATOM     19  C   UNL     1      47.427   7.594  13.383  0.00  0.00    +0.000 C 
BRANCH  19  20
ATOM     20  N   UNL     1      48.604   7.094  14.044  0.00  0.00    +0.000 N 
ATOM     21  C   UNL     1      49.020   7.578  15.256  0.00  0.00    +0.000 C 
ATOM     22  O   UNL     1      48.378   8.419  15.880  0.00  0.00    +0.000 OA
ATOM     23  H   UNL     1      49.226   6.509  13.501  0.00  0.00    +0.000 HD
BRANCH  21  24
ATOM     24  C   UNL     1      50.244   6.979  15.804  0.00  0.00    +0.000 A 
ATOM     25  C   UNL     1      51.481   7.478  15.418  0.00  0.00    +0.000 A 
ATOM     26  S   UNL     1      52.790   6.730  16.209  0.00  0.00    +0.000 S 
ATOM     27  C   UNL     1      51.750   5.681  17.049  0.00  0.00    +0.000 A 
ATOM     28  N   UNL     1      52.259   4.776  17.898  0.00  0.00    +0.000 NA
ATOM     29  C   UNL     1      51.321   4.012  18.462  0.00  0.00    +0.000 A 
ATOM     30  N   UNL     1      50.001   4.064  18.252  0.00  0.00    +0.000 NA
ATOM     31  C   UNL     1      49.535   4.986  17.388  0.00  0.00    +0.000 A 
ATOM     32  C   UNL     1      50.409   5.878  16.741  0.00  0.00    +0.000 A 
BRANCH  31  33
ATOM     33  O   UNL     1      48.180   5.049  17.134  0.00  0.00    +0.000 OA
ATOM     34  C   UNL     1      47.640   3.854  16.580  0.00  0.00    +0.000 C 
ENDBRANCH  31  33
ENDBRANCH  21  24
ENDBRANCH  19  20
ENDBRANCH   4  19
TORSDOF 9
ENDMDL
MODEL 3
REMARK VINA RESULT:    -7.009      1.439      2.055
REMARK INTER + INTRA:         -12.112
REMARK INTER:                 -10.547
REMARK INTRA:                  -1.565
REMARK UNBOUND:                -1.415
REMARK  Name = 
REMARK  11 active torsions:
REMARK  status: ('A' for Active; 'I' for Inactive)
REMARK    1  A    between atoms: C_1  and  O_2
REMARK    2  A    between atoms: O_2  and  C_3
REMARK    3  A    between atoms: C_8  and  C_9
REMARK    4  A    between atoms: C_9  and  N_10
REMARK    5  A    between atoms: N_10  and  C_11
REMARK    6  A    between atoms: C_11  and  C_12
REMARK    7  A    between atoms: C_15  and  C_16
REMARK    8  A    between atoms: C_16  and  N_17
REMARK    9  A    between atoms: C_18  and  C_20
REMARK   10  A    between atoms: C_27  and  O_28
REMARK   11  A    between atoms: O_28  and  C_29
REMARK                            x       y       z     vdW  Elec       q    Type
REMARK                         _______ _______ _______ _____ _____    ______ ____
ROOT
ATOM      1  C   UNL     1      45.271   4.251  12.278  0.00  0.00    +0.000 A 
ATOM      2  C   UNL     1      45.475   5.403  11.506  0.00  0.00    +0.000 A 
ATOM      3  C   UNL     1      46.401   6.377  11.894  0.00  0.00    +0.000 A 
ATOM      4  C   UNL     1      47.145   6.225  13.069  0.00  0.00    +0.000 A 
ATOM      5  C   UNL     1      46.916   5.094  13.865  0.00  0.00    +0.000 A 
ATOM      6  C   UNL     1      45.993   4.116  13.473  0.00  0.00    +0.000 A 
ENDROOT
BRANCH   1   7
ATOM      7  C   UNL     1      44.286   3.185  11.834  0.00  0.00    +0.000 C 
BRANCH   7   8
ATOM      8  N   UNL     1      43.901   3.372  10.435  0.00  0.00    +0.000 NA
ATOM      9  H   UNL     1      42.890   3.476  10.372  0.00  0.00    +0.000 HD
BRANCH   8  10
ATOM     10  C   UNL     1      44.281   2.228   9.598  0.00  0.00    +0.000 C 
BRANCH  10  16
ATOM     11  C   UNL     1      46.242   1.682   8.025  0.00  0.00    +0.000 A 
ATOM     12  C   UNL     1      47.240   2.127   7.145  0.00  0.00    +0.000 A 
ATOM     13  C   UNL     1      47.381   3.484   6.850  0.00  0.00    +0.000 A 
ATOM     14  C   UNL     1      46.521   4.412   7.421  0.00  0.00    +0.000 A 
ATOM     15  C   UNL     1      45.523   3.983   8.293  0.00  0.00    +0.000 A 
ATOM     16  C   UNL     1      45.363   2.618   8.605  0.00  0.00    +0.000 A 
BRANCH  11  18
ATOM     17  C   UNL     1      46.645  -0.598   7.472  0.00  0.00    +0.000 C 
ATOM     18  O   UNL     1      46.035   0.360   8.332  0.00  0.00    +0.000 OA
ENDBRANCH  11  18
ENDBRANCH  10  16
ENDBRANCH   8  10
ENDBRANCH   7   8
ENDBRANCH   1   7
BRANCH   4  19
ATOM     19  C   UNL     1      48.137   7.278  13.493  0.00  0.00    +0.000 C 
BRANCH  19  20
ATOM     20  N   UNL     1      47.971   7.609  14.886  0.00  0.00    +0.000 N 
ATOM     21  C   UNL     1      49.009   8.060  15.656  0.00  0.00    +0.000 C 
ATOM     22  O   UNL     1      50.126   8.273  15.190  0.00  0.00    +0.000 OA
ATOM     23  H   UNL     1      47.110   7.316  15.330  0.00  0.00    +0.000 HD
BRANCH  21  24
ATOM     24  C   UNL     1      48.692   8.348  17.062  0.00  0.00    +0.000 A 
ATOM     25  C   UNL     1      48.776   9.654  17.527  0.00  0.00    +0.000 A 
ATOM     26  S   UNL     1      48.293   9.826  19.150  0.00  0.00    +0.000 S 
ATOM     27  C   UNL     1      48.011   8.157  19.297  0.00  0.00    +0.000 A 
ATOM     28  N   UNL     1      47.582   7.654  20.465  0.00  0.00    +0.000 NA
ATOM     29  C   UNL     1      47.430   6.328  20.431  0.00  0.00    +0.000 A 
ATOM     30  N   UNL     1      47.668   5.512  19.398  0.00  0.00    +0.000 NA
ATOM     31  C   UNL     1      48.102   6.062  18.247  0.00  0.00    +0.000 A 
ATOM     32  C   UNL     1      48.280   7.452  18.131  0.00  0.00    +0.000 A 
BRANCH  31  33
ATOM     33  O   UNL     1      48.377   5.243  17.171  0.00  0.00    +0.000 OA
ATOM     34  C   UNL     1      49.687   4.684  17.190  0.00  0.00    +0.000 C 
ENDBRANCH  31  33
ENDBRANCH  21  24
ENDBRANCH  19  20
ENDBRANCH   4  19
TORSDOF 9
ENDMDL
MODEL 4
REMARK VINA RESULT:    -6.887      1.637      2.056
REMARK INTER + INTRA:         -11.925
REMARK INTER:                 -11.245
REMARK INTRA:                  -0.680
REMARK UNBOUND:                -1.415
REMARK  Name = 
REMARK  11 active torsions:
REMARK  status: ('A' for Active; 'I' for Inactive)
REMARK    1  A    between atoms: C_1  and  O_2
REMARK    2  A    between atoms: O_2  and  C_3
REMARK    3  A    between atoms: C_8  and  C_9
REMARK    4  A    between atoms: C_9  and  N_10
REMARK    5  A    between atoms: N_10  and  C_11
REMARK    6  A    between atoms: C_11  and  C_12
REMARK    7  A    between atoms: C_15  and  C_16
REMARK    8  A    between atoms: C_16  and  N_17
REMARK    9  A    between atoms: C_18  and  C_20
REMARK   10  A    between atoms: C_27  and  O_28
REMARK   11  A    between atoms: O_28  and  C_29
REMARK                            x       y       z     vdW  Elec       q    Type
REMARK                         _______ _______ _______ _____ _____    ______ ____
ROOT
ATOM      1  C   UNL     1      45.432   6.339  11.120  0.00  0.00    +0.000 A 
ATOM      2  C   UNL     1      44.683   7.369  11.707  0.00  0.00    +0.000 A 
ATOM      3  C   UNL     1      45.294   8.336  12.513  0.00  0.00    +0.000 A 
ATOM      4  C   UNL     1      46.672   8.293  12.757  0.00  0.00    +0.000 A 
ATOM      5  C   UNL     1      47.417   7.242  12.205  0.00  0.00    +0.000 A 
ATOM      6  C   UNL     1      46.806   6.277  11.393  0.00  0.00    +0.000 A 
ENDROOT
BRANCH   1   7
ATOM      7  C   UNL     1      44.765   5.312  10.223  0.00  0.00    +0.000 C 
BRANCH   7   8
ATOM      8  N   UNL     1      45.534   5.103   8.996  0.00  0.00    +0.000 NA
ATOM      9  H   UNL     1      45.646   5.991   8.510  0.00  0.00    +0.000 HD
BRANCH   8  10
ATOM     10  C   UNL     1      44.869   4.175   8.075  0.00  0.00    +0.000 C 
BRANCH  10  16
ATOM     11  C   UNL     1      46.287   2.029   8.067  0.00  0.00    +0.000 A 
ATOM     12  C   UNL     1      47.247   1.222   7.436  0.00  0.00    +0.000 A 
ATOM     13  C   UNL     1      47.802   1.594   6.210  0.00  0.00    +0.000 A 
ATOM     14  C   UNL     1      47.398   2.771   5.595  0.00  0.00    +0.000 A 
ATOM     15  C   UNL     1      46.444   3.579   6.208  0.00  0.00    +0.000 A 
ATOM     16  C   UNL     1      45.871   3.223   7.445  0.00  0.00    +0.000 A 
BRANCH  11  18
ATOM     17  C   UNL     1      44.266   1.591   9.244  0.00  0.00    +0.000 C 
ATOM     18  O   UNL     1      45.686   1.704   9.256  0.00  0.00    +0.000 OA
ENDBRANCH  11  18
ENDBRANCH  10  16
ENDBRANCH   8  10
ENDBRANCH   7   8
ENDBRANCH   1   7
BRANCH   4  19
ATOM     19  C   UNL     1      47.330   9.329  13.633  0.00  0.00    +0.000 C 
BRANCH  19  20
ATOM     20  N   UNL     1      47.581   8.802  14.950  0.00  0.00    +0.000 N 
ATOM     21  C   UNL     1      48.836   8.443  15.364  0.00  0.00    +0.000 C 
ATOM     22  O   UNL     1      49.830   8.611  14.662  0.00  0.00    +0.000 OA
ATOM     23  H   UNL     1      46.776   8.523  15.497  0.00  0.00    +0.000 HD
BRANCH  21  24
ATOM     24  C   UNL     1      48.937   7.912  16.730  0.00  0.00    +0.000 A 
ATOM     25  C   UNL     1      49.313   8.759  17.765  0.00  0.00    +0.000 A 
ATOM     26  S   UNL     1      49.298   8.008  19.293  0.00  0.00    +0.000 S 
ATOM     27  C   UNL     1      48.844   6.518  18.613  0.00  0.00    +0.000 A 
ATOM     28  N   UNL     1      48.670   5.449  19.406  0.00  0.00    +0.000 NA
ATOM     29  C   UNL     1      48.338   4.350  18.725  0.00  0.00    +0.000 A 
ATOM     30  N   UNL     1      48.188   4.233  17.400  0.00  0.00    +0.000 NA
ATOM     31  C   UNL     1      48.376   5.332  16.644  0.00  0.00    +0.000 A 
ATOM     32  C   UNL     1      48.702   6.567  17.232  0.00  0.00    +0.000 A 
BRANCH  31  33
ATOM     33  O   UNL     1      48.250   5.237  15.274  0.00  0.00    +0.000 OA
ATOM     34  C   UNL     1      47.047   4.605  14.847  0.00  0.00    +0.000 C 
ENDBRANCH  31  33
ENDBRANCH  21  24
ENDBRANCH  19  20
ENDBRANCH   4  19
TORSDOF 9
ENDMDL
MODEL 5
REMARK VINA RESULT:    -6.679      3.161      4.542
REMARK INTER + INTRA:         -11.609
REMARK INTER:                 -10.145
REMARK INTRA:                  -1.464
REMARK UNBOUND:                -1.415
REMARK  Name = 
REMARK  11 active torsions:
REMARK  status: ('A' for Active; 'I' for Inactive)
REMARK    1  A    between atoms: C_1  and  O_2
REMARK    2  A    between atoms: O_2  and  C_3
REMARK    3  A    between atoms: C_8  and  C_9
REMARK    4  A    between atoms: C_9  and  N_10
REMARK    5  A    between atoms: N_10  and  C_11
REMARK    6  A    between atoms: C_11  and  C_12
REMARK    7  A    between atoms: C_15  and  C_16
REMARK    8  A    between atoms: C_16  and  N_17
REMARK    9  A    between atoms: C_18  and  C_20
REMARK   10  A    between atoms: C_27  and  O_28
REMARK   11  A    between atoms: O_28  and  C_29
REMARK                            x       y       z     vdW  Elec       q    Type
REMARK                         _______ _______ _______ _____ _____    ______ ____
ROOT
ATOM      1  C   UNL     1      48.427   7.052  13.005  0.00  0.00    +0.000 A 
ATOM      2  C   UNL     1      49.589   7.835  13.053  0.00  0.00    +0.000 A 
ATOM      3  C   UNL     1      50.312   7.982  14.241  0.00  0.00    +0.000 A 
ATOM      4  C   UNL     1      49.888   7.351  15.416  0.00  0.00    +0.000 A 
ATOM      5  C   UNL     1      48.705   6.599  15.383  0.00  0.00    +0.000 A 
ATOM      6  C   UNL     1      47.984   6.448  14.191  0.00  0.00    +0.000 A 
ENDROOT
BRANCH   1   7
ATOM      7  C   UNL     1      47.666   6.874  11.704  0.00  0.00    +0.000 C 
BRANCH   7   8
ATOM      8  N   UNL     1      46.457   6.076  11.904  0.00  0.00    +0.000 NA
ATOM      9  H   UNL     1      46.705   5.090  11.956  0.00  0.00    +0.000 HD
BRANCH   8  10
ATOM     10  C   UNL     1      45.499   6.234  10.804  0.00  0.00    +0.000 C 
BRANCH  10  16
ATOM     11  C   UNL     1      44.816   3.764  10.583  0.00  0.00    +0.000 A 
ATOM     12  C   UNL     1      44.748   2.598   9.805  0.00  0.00    +0.000 A 
ATOM     13  C   UNL     1      45.216   2.587   8.490  0.00  0.00    +0.000 A 
ATOM     14  C   UNL     1      45.748   3.742   7.932  0.00  0.00    +0.000 A 
ATOM     15  C   UNL     1      45.818   4.907   8.692  0.00  0.00    +0.000 A 
ATOM     16  C   UNL     1      45.351   4.941  10.022  0.00  0.00    +0.000 A 
BRANCH  11  18
ATOM     17  C   UNL     1      43.509   2.783  12.313  0.00  0.00    +0.000 C 
ATOM     18  O   UNL     1      44.347   3.846  11.870  0.00  0.00    +0.000 OA
ENDBRANCH  11  18
ENDBRANCH  10  16
ENDBRANCH   8  10
ENDBRANCH   7   8
ENDBRANCH   1   7
BRANCH   4  19
ATOM     19  C   UNL     1      50.661   7.516  16.700  0.00  0.00    +0.000 C 
BRANCH  19  20
ATOM     20  N   UNL     1      51.394   6.316  17.016  0.00  0.00    +0.000 N 
ATOM     21  C   UNL     1      51.673   5.952  18.306  0.00  0.00    +0.000 C 
ATOM     22  O   UNL     1      51.259   6.589  19.271  0.00  0.00    +0.000 OA
ATOM     23  H   UNL     1      51.865   5.848  16.252  0.00  0.00    +0.000 HD
BRANCH  21  24
ATOM     24  C   UNL     1      52.437   4.708  18.474  0.00  0.00    +0.000 A 
ATOM     25  C   UNL     1      53.689   4.751  19.073  0.00  0.00    +0.000 A 
ATOM     26  S   UNL     1      54.400   3.216  19.267  0.00  0.00    +0.000 S 
ATOM     27  C   UNL     1      53.084   2.454  18.509  0.00  0.00    +0.000 A 
ATOM     28  N   UNL     1      53.084   1.121  18.355  0.00  0.00    +0.000 NA
ATOM     29  C   UNL     1      51.997   0.674  17.722  0.00  0.00    +0.000 A 
ATOM     30  N   UNL     1      50.980   1.403  17.248  0.00  0.00    +0.000 NA
ATOM     31  C   UNL     1      51.025   2.738  17.422  0.00  0.00    +0.000 A 
ATOM     32  C   UNL     1      52.099   3.344  18.098  0.00  0.00    +0.000 A 
BRANCH  31  33
ATOM     33  O   UNL     1      50.001   3.518  16.925  0.00  0.00    +0.000 OA
ATOM     34  C   UNL     1      48.704   2.960  17.117  0.00  0.00    +0.000 C 
ENDBRANCH  31  33
ENDBRANCH  21  24
ENDBRANCH  19  20
ENDBRANCH   4  19
TORSDOF 9
ENDMDL
MODEL 6
REMARK VINA RESULT:    -6.623      1.770      2.928
REMARK INTER + INTRA:         -11.523
REMARK INTER:                 -10.176
REMARK INTRA:                  -1.347
REMARK UNBOUND:                -1.415
REMARK  Name = 
REMARK  11 active torsions:
REMARK  status: ('A' for Active; 'I' for Inactive)
REMARK    1  A    between atoms: C_1  and  O_2
REMARK    2  A    between atoms: O_2  and  C_3
REMARK    3  A    between atoms: C_8  and  C_9
REMARK    4  A    between atoms: C_9  and  N_10
REMARK    5  A    between atoms: N_10  and  C_11
REMARK    6  A    between atoms: C_11  and  C_12
REMARK    7  A    between atoms: C_15  and  C_16
REMARK    8  A    between atoms: C_16  and  N_17
REMARK    9  A    between atoms: C_18  and  C_20
REMARK   10  A    between atoms: C_27  and  O_28
REMARK   11  A    between atoms: O_28  and  C_29
REMARK                            x       y       z     vdW  Elec       q    Type
REMARK                         _______ _______ _______ _____ _____    ______ ____
ROOT
ATOM      1  C   UNL     1      45.290   4.258  12.384  0.00  0.00    +0.000 A 
ATOM      2  C   UNL     1      45.528   5.517  11.814  0.00  0.00    +0.000 A 
ATOM      3  C   UNL     1      46.489   6.381  12.349  0.00  0.00    +0.000 A 
ATOM      4  C   UNL     1      47.235   6.009  13.473  0.00  0.00    +0.000 A 
ATOM      5  C   UNL     1      46.972   4.768  14.071  0.00  0.00    +0.000 A 
ATOM      6  C   UNL     1      46.013   3.901  13.531  0.00  0.00    +0.000 A 
ENDROOT
BRANCH   1   7
ATOM      7  C   UNL     1      44.266   3.316  11.778  0.00  0.00    +0.000 C 
BRANCH   7   8
ATOM      8  N   UNL     1      44.090   3.574  10.350  0.00  0.00    +0.000 NA
ATOM      9  H   UNL     1      43.124   3.844  10.170  0.00  0.00    +0.000 HD
BRANCH   8  10
ATOM     10  C   UNL     1      44.378   2.391   9.531  0.00  0.00    +0.000 C 
BRANCH  10  16
ATOM     11  C   UNL     1      46.281   1.673   7.957  0.00  0.00    +0.000 A 
ATOM     12  C   UNL     1      47.303   2.027   7.062  0.00  0.00    +0.000 A 
ATOM     13  C   UNL     1      47.540   3.365   6.740  0.00  0.00    +0.000 A 
ATOM     14  C   UNL     1      46.755   4.364   7.299  0.00  0.00    +0.000 A 
ATOM     15  C   UNL     1      45.735   4.025   8.186  0.00  0.00    +0.000 A 
ATOM     16  C   UNL     1      45.478   2.681   8.525  0.00  0.00    +0.000 A 
BRANCH  11  18
ATOM     17  C   UNL     1      46.608  -0.644   7.518  0.00  0.00    +0.000 C 
ATOM     18  O   UNL     1      45.981   0.376   8.291  0.00  0.00    +0.000 OA
ENDBRANCH  11  18
ENDBRANCH  10  16
ENDBRANCH   8  10
ENDBRANCH   7   8
ENDBRANCH   1   7
BRANCH   4  19
ATOM     19  C   UNL     1      48.265   6.943  14.057  0.00  0.00    +0.000 C 
BRANCH  19  20
ATOM     20  N   UNL     1      48.422   6.715  15.470  0.00  0.00    +0.000 N 
ATOM     21  C   UNL     1      49.655   6.620  16.059  0.00  0.00    +0.000 C 
ATOM     22  O   UNL     1      50.696   6.791  15.431  0.00  0.00    +0.000 OA
ATOM     23  H   UNL     1      47.599   6.434  15.987  0.00  0.00    +0.000 HD
BRANCH  21  24
ATOM     24  C   UNL     1      49.660   6.376  17.508  0.00  0.00    +0.000 A 
ATOM     25  C   UNL     1      50.006   5.119  17.987  0.00  0.00    +0.000 A 
ATOM     26  S   UNL     1      50.045   5.030  19.687  0.00  0.00    +0.000 S 
ATOM     27  C   UNL     1      49.547   6.648  19.835  0.00  0.00    +0.000 A 
ATOM     28  N   UNL     1      49.383   7.187  21.053  0.00  0.00    +0.000 NA
ATOM     29  C   UNL     1      48.968   8.455  21.005  0.00  0.00    +0.000 A 
ATOM     30  N   UNL     1      48.707   9.180  19.912  0.00  0.00    +0.000 NA
ATOM     31  C   UNL     1      48.882   8.596  18.710  0.00  0.00    +0.000 A 
ATOM     32  C   UNL     1      49.343   7.272  18.610  0.00  0.00    +0.000 A 
BRANCH  31  33
ATOM     33  O   UNL     1      48.599   9.312  17.565  0.00  0.00    +0.000 OA
ATOM     34  C   UNL     1      47.816  10.480  17.792  0.00  0.00    +0.000 C 
ENDBRANCH  31  33
ENDBRANCH  21  24
ENDBRANCH  19  20
ENDBRANCH   4  19
TORSDOF 9
ENDMDL
MODEL 7
REMARK VINA RESULT:    -6.261      1.827      3.088
REMARK INTER + INTRA:         -10.970
REMARK INTER:                 -10.218
REMARK INTRA:                  -0.752
REMARK UNBOUND:                -1.415
REMARK  Name = 
REMARK  11 active torsions:
REMARK  status: ('A' for Active; 'I' for Inactive)
REMARK    1  A    between atoms: C_1  and  O_2
REMARK    2  A    between atoms: O_2  and  C_3
REMARK    3  A    between atoms: C_8  and  C_9
REMARK    4  A    between atoms: C_9  and  N_10
REMARK    5  A    between atoms: N_10  and  C_11
REMARK    6  A    between atoms: C_11  and  C_12
REMARK    7  A    between atoms: C_15  and  C_16
REMARK    8  A    between atoms: C_16  and  N_17
REMARK    9  A    between atoms: C_18  and  C_20
REMARK   10  A    between atoms: C_27  and  O_28
REMARK   11  A    between atoms: O_28  and  C_29
REMARK                            x       y       z     vdW  Elec       q    Type
REMARK                         _______ _______ _______ _____ _____    ______ ____
ROOT
ATOM      1  C   UNL     1      44.628   6.380  12.293  0.00  0.00    +0.000 A 
ATOM      2  C   UNL     1      45.380   7.563  12.268  0.00  0.00    +0.000 A 
ATOM      3  C   UNL     1      46.632   7.636  12.888  0.00  0.00    +0.000 A 
ATOM      4  C   UNL     1      47.162   6.525  13.555  0.00  0.00    +0.000 A 
ATOM      5  C   UNL     1      46.396   5.353  13.617  0.00  0.00    +0.000 A 
ATOM      6  C   UNL     1      45.145   5.279  12.990  0.00  0.00    +0.000 A 
ENDROOT
BRANCH   1   7
ATOM      7  C   UNL     1      43.284   6.303  11.592  0.00  0.00    +0.000 C 
BRANCH   7   8
ATOM      8  N   UNL     1      43.388   5.570  10.330  0.00  0.00    +0.000 NA
ATOM      9  H   UNL     1      43.040   4.621  10.459  0.00  0.00    +0.000 HD
BRANCH   8  10
ATOM     10  C   UNL     1      44.774   5.473   9.857  0.00  0.00    +0.000 C 
BRANCH  10  16
ATOM     11  C   UNL     1      44.396   2.935   9.684  0.00  0.00    +0.000 A 
ATOM     12  C   UNL     1      44.732   1.704   9.101  0.00  0.00    +0.000 A 
ATOM     13  C   UNL     1      45.713   1.626   8.109  0.00  0.00    +0.000 A 
ATOM     14  C   UNL     1      46.361   2.776   7.682  0.00  0.00    +0.000 A 
ATOM     15  C   UNL     1      46.033   4.005   8.251  0.00  0.00    +0.000 A 
ATOM     16  C   UNL     1      45.047   4.107   9.253  0.00  0.00    +0.000 A 
BRANCH  11  18
ATOM     17  C   UNL     1      43.613   2.364  11.858  0.00  0.00    +0.000 C 
ATOM     18  O   UNL     1      43.423   3.080  10.641  0.00  0.00    +0.000 OA
ENDBRANCH  11  18
ENDBRANCH  10  16
ENDBRANCH   8  10
ENDBRANCH   7   8
ENDBRANCH   1   7
BRANCH   4  19
ATOM     19  C   UNL     1      48.507   6.604  14.232  0.00  0.00    +0.000 C 
BRANCH  19  20
ATOM     20  N   UNL     1      48.358   6.862  15.641  0.00  0.00    +0.000 N 
ATOM     21  C   UNL     1      48.597   5.900  16.586  0.00  0.00    +0.000 C 
ATOM     22  O   UNL     1      49.017   4.784  16.293  0.00  0.00    +0.000 OA
ATOM     23  H   UNL     1      47.885   7.716  15.907  0.00  0.00    +0.000 HD
BRANCH  21  24
ATOM     24  C   UNL     1      48.394   6.305  17.984  0.00  0.00    +0.000 A 
ATOM     25  C   UNL     1      47.510   5.588  18.781  0.00  0.00    +0.000 A 
ATOM     26  S   UNL     1      47.457   6.134  20.393  0.00  0.00    +0.000 S 
ATOM     27  C   UNL     1      48.568   7.377  20.062  0.00  0.00    +0.000 A 
ATOM     28  N   UNL     1      48.940   8.216  21.041  0.00  0.00    +0.000 NA
ATOM     29  C   UNL     1      49.797   9.150  20.623  0.00  0.00    +0.000 A 
ATOM     30  N   UNL     1      50.273   9.314  19.383  0.00  0.00    +0.000 NA
ATOM     31  C   UNL     1      49.869   8.450  18.432  0.00  0.00    +0.000 A 
ATOM     32  C   UNL     1      48.988   7.398  18.738  0.00  0.00    +0.000 A 
BRANCH  31  33
ATOM     33  O   UNL     1      50.326   8.608  17.140  0.00  0.00    +0.000 OA
ATOM     34  C   UNL     1      50.196   9.935  16.638  0.00  0.00    +0.000 C 
ENDBRANCH  31  33
ENDBRANCH  21  24
ENDBRANCH  19  20
ENDBRANCH   4  19
TORSDOF 9
ENDMDL
MODEL 8
REMARK VINA RESULT:    -5.833      2.737      3.543
REMARK INTER + INTRA:         -10.318
REMARK INTER:                  -9.270
REMARK INTRA:                  -1.048
REMARK UNBOUND:                -1.415
REMARK  Name = 
REMARK  11 active torsions:
REMARK  status: ('A' for Active; 'I' for Inactive)
REMARK    1  A    between atoms: C_1  and  O_2
REMARK    2  A    between atoms: O_2  and  C_3
REMARK    3  A    between atoms: C_8  and  C_9
REMARK    4  A    between atoms: C_9  and  N_10
REMARK    5  A    between atoms: N_10  and  C_11
REMARK    6  A    between atoms: C_11  and  C_12
REMARK    7  A    between atoms: C_15  and  C_16
REMARK    8  A    between atoms: C_16  and  N_17
REMARK    9  A    between atoms: C_18  and  C_20
REMARK   10  A    between atoms: C_27  and  O_28
REMARK   11  A    between atoms: O_28  and  C_29
REMARK                            x       y       z     vdW  Elec       q    Type
REMARK                         _______ _______ _______ _____ _____    ______ ____
ROOT
ATOM      1  C   UNL     1      46.240   7.362  12.574  0.00  0.00    +0.000 A 
ATOM      2  C   UNL     1      46.603   8.717  12.595  0.00  0.00    +0.000 A 
ATOM      3  C   UNL     1      47.941   9.103  12.724  0.00  0.00    +0.000 A 
ATOM      4  C   UNL     1      48.952   8.143  12.841  0.00  0.00    +0.000 A 
ATOM      5  C   UNL     1      48.590   6.789  12.862  0.00  0.00    +0.000 A 
ATOM      6  C   UNL     1      47.250   6.402  12.726  0.00  0.00    +0.000 A 
ENDROOT
BRANCH   1   7
ATOM      7  C   UNL     1      44.789   6.952  12.403  0.00  0.00    +0.000 C 
BRANCH   7   8
ATOM      8  N   UNL     1      44.506   6.574  11.019  0.00  0.00    +0.000 NA
ATOM      9  H   UNL     1      43.727   5.919  10.998  0.00  0.00    +0.000 HD
BRANCH   8  10
ATOM     10  C   UNL     1      45.652   5.920  10.377  0.00  0.00    +0.000 C 
BRANCH  10  16
ATOM     11  C   UNL     1      44.755   3.517  10.571  0.00  0.00    +0.000 A 
ATOM     12  C   UNL     1      44.444   2.295   9.956  0.00  0.00    +0.000 A 
ATOM     13  C   UNL     1      44.633   2.114   8.585  0.00  0.00    +0.000 A 
ATOM     14  C   UNL     1      45.126   3.155   7.809  0.00  0.00    +0.000 A 
ATOM     15  C   UNL     1      45.435   4.374   8.406  0.00  0.00    +0.000 A 
ATOM     16  C   UNL     1      45.252   4.578   9.788  0.00  0.00    +0.000 A 
BRANCH  11  18
ATOM     17  C   UNL     1      45.556   3.259  12.797  0.00  0.00    +0.000 C 
ATOM     18  O   UNL     1      44.565   3.765  11.907  0.00  0.00    +0.000 OA
ENDBRANCH  11  18
ENDBRANCH  10  16
ENDBRANCH   8  10
ENDBRANCH   7   8
ENDBRANCH   1   7
BRANCH   4  19
ATOM     19  C   UNL     1      50.394   8.558  12.990  0.00  0.00    +0.000 C 
BRANCH  19  20
ATOM     20  N   UNL     1      51.083   7.698  13.918  0.00  0.00    +0.000 N 
ATOM     21  C   UNL     1      51.652   8.175  15.068  0.00  0.00    +0.000 C 
ATOM     22  O   UNL     1      51.552   9.350  15.410  0.00  0.00    +0.000 OA
ATOM     23  H   UNL     1      51.303   6.761  13.603  0.00  0.00    +0.000 HD
BRANCH  21  24
ATOM     24  C   UNL     1      52.330   7.180  15.912  0.00  0.00    +0.000 A 
ATOM     25  C   UNL     1      53.711   7.231  16.052  0.00  0.00    +0.000 A 
ATOM     26  S   UNL     1      54.325   6.065  17.129  0.00  0.00    +0.000 S 
ATOM     27  C   UNL     1      52.775   5.422  17.398  0.00  0.00    +0.000 A 
ATOM     28  N   UNL     1      52.621   4.382  18.231  0.00  0.00    +0.000 NA
ATOM     29  C   UNL     1      51.352   3.976  18.321  0.00  0.00    +0.000 A 
ATOM     30  N   UNL     1      50.293   4.483  17.678  0.00  0.00    +0.000 NA
ATOM     31  C   UNL     1      50.497   5.525  16.849  0.00  0.00    +0.000 A 
ATOM     32  C   UNL     1      51.781   6.074  16.680  0.00  0.00    +0.000 A 
BRANCH  31  33
ATOM     33  O   UNL     1      49.428   6.054  16.156  0.00  0.00    +0.000 OA
ATOM     34  C   UNL     1      48.199   5.368  16.377  0.00  0.00    +0.000 C 
ENDBRANCH  31  33
ENDBRANCH  21  24
ENDBRANCH  19  20
ENDBRANCH   4  19
TORSDOF 9
ENDMDL
MODEL 9
REMARK VINA RESULT:    -5.595      3.581      5.678
REMARK INTER + INTRA:          -9.954
REMARK INTER:                  -8.762
REMARK INTRA:                  -1.192
REMARK UNBOUND:                -1.415
REMARK  Name = 
REMARK  11 active torsions:
REMARK  status: ('A' for Active; 'I' for Inactive)
REMARK    1  A    between atoms: C_1  and  O_2
REMARK    2  A    between atoms: O_2  and  C_3
REMARK    3  A    between atoms: C_8  and  C_9
REMARK    4  A    between atoms: C_9  and  N_10
REMARK    5  A    between atoms: N_10  and  C_11
REMARK    6  A    between atoms: C_11  and  C_12
REMARK    7  A    between atoms: C_15  and  C_16
REMARK    8  A    between atoms: C_16  and  N_17
REMARK    9  A    between atoms: C_18  and  C_20
REMARK   10  A    between atoms: C_27  and  O_28
REMARK   11  A    between atoms: O_28  and  C_29
REMARK                            x       y       z     vdW  Elec       q    Type
REMARK                         _______ _______ _______ _____ _____    ______ ____
ROOT
ATOM      1  C   UNL     1      45.905   4.365  12.620  0.00  0.00    +0.000 A 
ATOM      2  C   UNL     1      46.111   5.670  12.149  0.00  0.00    +0.000 A 
ATOM      3  C   UNL     1      46.986   6.543  12.804  0.00  0.00    +0.000 A 
ATOM      4  C   UNL     1      47.676   6.133  13.951  0.00  0.00    +0.000 A 
ATOM      5  C   UNL     1      47.443   4.843  14.448  0.00  0.00    +0.000 A 
ATOM      6  C   UNL     1      46.570   3.967  13.788  0.00  0.00    +0.000 A 
ENDROOT
BRANCH   1   7
ATOM      7  C   UNL     1      44.976   3.415  11.886  0.00  0.00    +0.000 C 
BRANCH   7   8
ATOM      8  N   UNL     1      44.903   3.743  10.462  0.00  0.00    +0.000 NA
ATOM      9  H   UNL     1      44.069   4.298  10.283  0.00  0.00    +0.000 HD
BRANCH   8  10
ATOM     10  C   UNL     1      44.825   2.543   9.620  0.00  0.00    +0.000 C 
BRANCH  10  16
ATOM     11  C   UNL     1      46.373   1.580   7.805  0.00  0.00    +0.000 A 
ATOM     12  C   UNL     1      47.213   1.792   6.701  0.00  0.00    +0.000 A 
ATOM     13  C   UNL     1      47.420   3.077   6.196  0.00  0.00    +0.000 A 
ATOM     14  C   UNL     1      46.782   4.164   6.779  0.00  0.00    +0.000 A 
ATOM     15  C   UNL     1      45.942   3.966   7.873  0.00  0.00    +0.000 A 
ATOM     16  C   UNL     1      45.720   2.677   8.399  0.00  0.00    +0.000 A 
BRANCH  11  18
ATOM     17  C   UNL     1      46.535  -0.782   7.562  0.00  0.00    +0.000 C 
ATOM     18  O   UNL     1      46.108   0.339   8.329  0.00  0.00    +0.000 OA
ENDBRANCH  11  18
ENDBRANCH  10  16
ENDBRANCH   8  10
ENDBRANCH   7   8
ENDBRANCH   1   7
BRANCH   4  19
ATOM     19  C   UNL     1      48.613   7.076  14.663  0.00  0.00    +0.000 C 
BRANCH  19  20
ATOM     20  N   UNL     1      49.509   7.711  13.730  0.00  0.00    +0.000 N 
ATOM     21  C   UNL     1      50.604   8.422  14.142  0.00  0.00    +0.000 C 
ATOM     22  O   UNL     1      50.925   8.503  15.325  0.00  0.00    +0.000 OA
ATOM     23  H   UNL     1      49.201   7.782  12.769  0.00  0.00    +0.000 HD
BRANCH  21  24
ATOM     24  C   UNL     1      51.421   9.022  13.078  0.00  0.00    +0.000 A 
ATOM     25  C   UNL     1      52.777   8.728  13.011  0.00  0.00    +0.000 A 
ATOM     26  S   UNL     1      53.556   9.435  11.672  0.00  0.00    +0.000 S 
ATOM     27  C   UNL     1      52.122  10.197  11.174  0.00  0.00    +0.000 A 
ATOM     28  N   UNL     1      52.123  10.968  10.076  0.00  0.00    +0.000 NA
ATOM     29  C   UNL     1      50.931  11.516   9.828  0.00  0.00    +0.000 A 
ATOM     30  N   UNL     1      49.812  11.377  10.546  0.00  0.00    +0.000 NA
ATOM     31  C   UNL     1      49.858  10.596  11.643  0.00  0.00    +0.000 A 
ATOM     32  C   UNL     1      51.043   9.933  12.009  0.00  0.00    +0.000 A 
BRANCH  31  33
ATOM     33  O   UNL     1      48.725  10.451  12.416  0.00  0.00    +0.000 OA
ATOM     34  C   UNL     1      47.685  11.370  12.096  0.00  0.00    +0.000 C 
ENDBRANCH  31  33
ENDBRANCH  21  24
ENDBRANCH  19  20
ENDBRANCH   4  19
TORSDOF 9
ENDMDL
