MODEL 1
REMARK VINA RESULT:    -8.218      0.000      0.000
REMARK INTER + INTRA:         -12.975
REMARK INTER:                 -12.061
REMARK INTRA:                  -0.915
REMARK UNBOUND:                -0.915
REMARK  Name = 
REMARK  8 active torsions:
REMARK  status: ('A' for Active; 'I' for Inactive)
REMARK    1  A    between atoms: C_2  and  O_3
REMARK    2  A    between atoms: C_2  and  C_20
REMARK    3  A    between atoms: O_3  and  C_4
REMARK    4  A    between atoms: C_4  and  C_5
REMARK    5  A    between atoms: C_8  and  C_9
REMARK    6  A    between atoms: C_9  and  N_10
REMARK    7  A    between atoms: N_10  and  C_11
REMARK    8  A    between atoms: C_11  and  C_12
REMARK                            x       y       z     vdW  Elec       q    Type
REMARK                         _______ _______ _______ _____ _____    ______ ____
ROOT
ATOM      1  C   UNL     1      46.666   4.805  13.644  0.00  0.00    +0.000 A 
ATOM      2  C   UNL     1      46.649   5.949  12.840  0.00  0.00    +0.000 A 
ATOM      3  C   UNL     1      45.976   5.942  11.618  0.00  0.00    +0.000 A 
ATOM      4  C   UNL     1      45.319   4.789  11.161  0.00  0.00    +0.000 A 
ATOM      5  C   UNL     1      45.333   3.647  11.970  0.00  0.00    +0.000 A 
ATOM      6  C   UNL     1      46.010   3.653  13.191  0.00  0.00    +0.000 A 
ENDROOT
BRANCH   1   7
ATOM      7  C   UNL     1      47.360   4.818  14.981  0.00  0.00    +0.000 C 
BRANCH   7   8
ATOM      8  O   UNL     1      47.473   3.491  15.511  0.00  0.00    +0.000 OA
BRANCH   8  10
ATOM      9  O   UNL     1      46.341   2.964  17.428  0.00  0.00    +0.000 OA
ATOM     10  C   UNL     1      47.341   3.385  16.858  0.00  0.00    +0.000 C 
BRANCH  10  11
ATOM     11  C   UNL     1      48.485   3.930  17.587  0.00  0.00    +0.000 A 
ATOM     12  C   UNL     1      48.332   5.032  18.415  0.00  0.00    +0.000 A 
ATOM     13  S   UNL     1      49.792   5.544  19.132  0.00  0.00    +0.000 S 
ATOM     14  C   UNL     1      50.659   4.263  18.419  0.00  0.00    +0.000 A 
ATOM     15  N   UNL     1      51.982   4.089  18.675  0.00  0.00    +0.000 NA
ATOM     16  C   UNL     1      52.501   3.050  18.112  0.00  0.00    +0.000 A 
ATOM     17  N   UNL     1      51.820   2.180  17.303  0.00  0.00    +0.000 N 
ATOM     18  C   UNL     1      50.483   2.319  17.000  0.00  0.00    +0.000 A 
ATOM     19  O   UNL     1      49.924   1.497  16.287  0.00  0.00    +0.000 OA
ATOM     20  C   UNL     1      49.851   3.472  17.619  0.00  0.00    +0.000 A 
ATOM     21  H   UNL     1      52.275   1.374  16.905  0.00  0.00    +0.000 HD
ENDBRANCH  10  11
ENDBRANCH   8  10
ENDBRANCH   7   8
ENDBRANCH   1   7
BRANCH   4  22
ATOM     22  C   UNL     1      44.548   4.779   9.860  0.00  0.00    +0.000 C 
BRANCH  22  23
ATOM     23  N   UNL     1      45.359   5.286   8.757  0.00  0.00    +0.000 NA
ATOM     24  H   UNL     1      45.815   6.147   9.056  0.00  0.00    +0.000 HD
BRANCH  23  25
ATOM     25  C   UNL     1      46.351   4.320   8.304  0.00  0.00    +0.000 C 
BRANCH  25  26
ATOM     26  C   UNL     1      45.713   3.387   7.253  0.00  0.00    +0.000 C 
ATOM     27  C   UNL     1      45.381   1.991   7.813  0.00  0.00    +0.000 C 
ATOM     28  C   UNL     1      46.633   1.141   8.027  0.00  0.00    +0.000 C 
ATOM     29  N   UNL     1      47.425   1.026   6.800  0.00  0.00    +0.000 NA
ATOM     30  C   UNL     1      47.832   2.342   6.309  0.00  0.00    +0.000 C 
ATOM     31  C   UNL     1      46.624   3.238   6.027  0.00  0.00    +0.000 C 
ATOM     32  H   UNL     1      46.854   0.571   6.088  0.00  0.00    +0.000 HD
ENDBRANCH  25  26
ENDBRANCH  23  25
ENDBRANCH  22  23
ENDBRANCH   4  22
TORSDOF 8
ENDMDL
MODEL 2
REMARK VINA RESULT:    -7.295      1.568      1.961
REMARK INTER + INTRA:         -11.621
REMARK INTER:                 -10.885
REMARK INTRA:                  -0.736
REMARK UNBOUND:                -0.915
REMARK  Name = 
REMARK  8 active torsions:
REMARK  status: ('A' for Active; 'I' for Inactive)
REMARK    1  A    between atoms: C_2  and  O_3
REMARK    2  A    between atoms: C_2  and  C_20
REMARK    3  A    between atoms: O_3  and  C_4
REMARK    4  A    between atoms: C_4  and  C_5
REMARK    5  A    between atoms: C_8  and  C_9
REMARK    6  A    between atoms: C_9  and  N_10
REMARK    7  A    between atoms: N_10  and  C_11
REMARK    8  A    between atoms: C_11  and  C_12
REMARK                            x       y       z     vdW  Elec       q    Type
REMARK                         _______ _______ _______ _____ _____    ______ ____
ROOT
ATOM      1  C   UNL     1      47.760   6.196  14.315  0.00  0.00    +0.000 A 
ATOM      2  C   UNL     1      47.509   6.968  13.176  0.00  0.00    +0.000 A 
ATOM      3  C   UNL     1      46.605   6.525  12.210  0.00  0.00    +0.000 A 
ATOM      4  C   UNL     1      45.945   5.294  12.348  0.00  0.00    +0.000 A 
ATOM      5  C   UNL     1      46.195   4.526  13.490  0.00  0.00    +0.000 A 
ATOM      6  C   UNL     1      47.101   4.968  14.456  0.00  0.00    +0.000 A 
ENDROOT
BRANCH   1   7
ATOM      7  C   UNL     1      48.707   6.686  15.379  0.00  0.00    +0.000 C 
BRANCH   7   8
ATOM      8  O   UNL     1      49.520   5.614  15.874  0.00  0.00    +0.000 OA
BRANCH   8  10
ATOM      9  O   UNL     1      48.484   5.737  17.911  0.00  0.00    +0.000 OA
ATOM     10  C   UNL     1      49.415   5.365  17.205  0.00  0.00    +0.000 C 
BRANCH  10  11
ATOM     11  C   UNL     1      50.592   4.693  17.752  0.00  0.00    +0.000 A 
ATOM     12  C   UNL     1      51.478   5.378  18.569  0.00  0.00    +0.000 A 
ATOM     13  S   UNL     1      52.810   4.434  19.061  0.00  0.00    +0.000 S 
ATOM     14  C   UNL     1      52.203   3.058  18.261  0.00  0.00    +0.000 A 
ATOM     15  N   UNL     1      52.854   1.867  18.332  0.00  0.00    +0.000 NA
ATOM     16  C   UNL     1      52.256   0.897  17.725  0.00  0.00    +0.000 A 
ATOM     17  N   UNL     1      51.077   1.016  17.039  0.00  0.00    +0.000 N 
ATOM     18  C   UNL     1      50.385   2.202  16.925  0.00  0.00    +0.000 A 
ATOM     19  O   UNL     1      49.325   2.240  16.317  0.00  0.00    +0.000 OA
ATOM     20  C   UNL     1      51.014   3.323  17.601  0.00  0.00    +0.000 A 
ATOM     21  H   UNL     1      50.647   0.217  16.599  0.00  0.00    +0.000 HD
ENDBRANCH  10  11
ENDBRANCH   8  10
ENDBRANCH   7   8
ENDBRANCH   1   7
BRANCH   4  22
ATOM     22  C   UNL     1      44.930   4.821  11.332  0.00  0.00    +0.000 C 
BRANCH  22  23
ATOM     23  N   UNL     1      45.094   5.511  10.055  0.00  0.00    +0.000 NA
ATOM     24  H   UNL     1      45.364   6.476  10.238  0.00  0.00    +0.000 HD
BRANCH  23  25
ATOM     25  C   UNL     1      46.076   4.866   9.194  0.00  0.00    +0.000 C 
BRANCH  25  26
ATOM     26  C   UNL     1      45.348   4.132   8.049  0.00  0.00    +0.000 C 
ATOM     27  C   UNL     1      44.610   2.865   8.522  0.00  0.00    +0.000 C 
ATOM     28  C   UNL     1      45.571   1.722   8.845  0.00  0.00    +0.000 C 
ATOM     29  N   UNL     1      46.444   1.413   7.710  0.00  0.00    +0.000 NA
ATOM     30  C   UNL     1      47.226   2.582   7.311  0.00  0.00    +0.000 C 
ATOM     31  C   UNL     1      46.327   3.758   6.927  0.00  0.00    +0.000 C 
ATOM     32  H   UNL     1      45.863   1.121   6.924  0.00  0.00    +0.000 HD
ENDBRANCH  25  26
ENDBRANCH  23  25
ENDBRANCH  22  23
ENDBRANCH   4  22
TORSDOF 8
ENDMDL
MODEL 3
REMARK VINA RESULT:    -6.853      1.358      2.120
REMARK INTER + INTRA:         -10.972
REMARK INTER:                 -10.054
REMARK INTRA:                  -0.918
REMARK UNBOUND:                -0.915
REMARK  Name = 
REMARK  8 active torsions:
REMARK  status: ('A' for Active; 'I' for Inactive)
REMARK    1  A    between atoms: C_2  and  O_3
REMARK    2  A    between atoms: C_2  and  C_20
REMARK    3  A    between atoms: O_3  and  C_4
REMARK    4  A    between atoms: C_4  and  C_5
REMARK    5  A    between atoms: C_8  and  C_9
REMARK    6  A    between atoms: C_9  and  N_10
REMARK    7  A    between atoms: N_10  and  C_11
REMARK    8  A    between atoms: C_11  and  C_12
REMARK                            x       y       z     vdW  Elec       q    Type
REMARK                         _______ _______ _______ _____ _____    ______ ____
ROOT
ATOM      1  C   UNL     1      46.591   4.935  13.505  0.00  0.00    +0.000 A 
ATOM      2  C   UNL     1      45.682   3.939  13.132  0.00  0.00    +0.000 A 
ATOM      3  C   UNL     1      45.014   4.017  11.909  0.00  0.00    +0.000 A 
ATOM      4  C   UNL     1      45.223   5.097  11.039  0.00  0.00    +0.000 A 
ATOM      5  C   UNL     1      46.136   6.090  11.413  0.00  0.00    +0.000 A 
ATOM      6  C   UNL     1      46.802   6.013  12.637  0.00  0.00    +0.000 A 
ENDROOT
BRANCH   1   7
ATOM      7  C   UNL     1      47.342   4.837  14.807  0.00  0.00    +0.000 C 
BRANCH   7   8
ATOM      8  O   UNL     1      47.479   3.470  15.216  0.00  0.00    +0.000 OA
BRANCH   8  10
ATOM      9  O   UNL     1      46.618   3.264  17.326  0.00  0.00    +0.000 OA
ATOM     10  C   UNL     1      47.571   3.265  16.555  0.00  0.00    +0.000 C 
BRANCH  10  11
ATOM     11  C   UNL     1      48.952   3.151  17.019  0.00  0.00    +0.000 A 
ATOM     12  C   UNL     1      49.695   2.012  16.746  0.00  0.00    +0.000 A 
ATOM     13  S   UNL     1      51.262   2.051  17.417  0.00  0.00    +0.000 S 
ATOM     14  C   UNL     1      51.023   3.624  18.028  0.00  0.00    +0.000 A 
ATOM     15  N   UNL     1      52.021   4.278  18.678  0.00  0.00    +0.000 NA
ATOM     16  C   UNL     1      51.721   5.480  19.041  0.00  0.00    +0.000 A 
ATOM     17  N   UNL     1      50.509   6.079  18.826  0.00  0.00    +0.000 N 
ATOM     18  C   UNL     1      49.460   5.455  18.186  0.00  0.00    +0.000 A 
ATOM     19  O   UNL     1      48.408   6.051  18.005  0.00  0.00    +0.000 OA
ATOM     20  C   UNL     1      49.753   4.101  17.750  0.00  0.00    +0.000 A 
ATOM     21  H   UNL     1      50.339   7.029  19.117  0.00  0.00    +0.000 HD
ENDBRANCH  10  11
ENDBRANCH   8  10
ENDBRANCH   7   8
ENDBRANCH   1   7
BRANCH   4  22
ATOM     22  C   UNL     1      44.540   5.173   9.692  0.00  0.00    +0.000 C 
BRANCH  22  23
ATOM     23  N   UNL     1      44.611   3.897   8.986  0.00  0.00    +0.000 NA
ATOM     24  H   UNL     1      43.843   3.849   8.319  0.00  0.00    +0.000 HD
BRANCH  23  25
ATOM     25  C   UNL     1      45.885   3.707   8.304  0.00  0.00    +0.000 C 
BRANCH  25  26
ATOM     26  C   UNL     1      45.699   2.706   7.144  0.00  0.00    +0.000 C 
ATOM     27  C   UNL     1      46.159   1.281   7.502  0.00  0.00    +0.000 C 
ATOM     28  C   UNL     1      47.682   1.161   7.560  0.00  0.00    +0.000 C 
ATOM     29  N   UNL     1      48.306   1.603   6.311  0.00  0.00    +0.000 NA
ATOM     30  C   UNL     1      47.958   2.990   6.008  0.00  0.00    +0.000 C 
ATOM     31  C   UNL     1      46.445   3.179   5.888  0.00  0.00    +0.000 C 
ATOM     32  H   UNL     1      47.973   1.006   5.554  0.00  0.00    +0.000 HD
ENDBRANCH  25  26
ENDBRANCH  23  25
ENDBRANCH  22  23
ENDBRANCH   4  22
TORSDOF 8
ENDMDL
MODEL 4
REMARK VINA RESULT:    -6.846      2.300      3.207
REMARK INTER + INTRA:         -10.963
REMARK INTER:                  -9.963
REMARK INTRA:                  -1.000
REMARK UNBOUND:                -0.915
REMARK  Name = 
REMARK  8 active torsions:
REMARK  status: ('A' for Active; 'I' for Inactive)
REMARK    1  A    between atoms: C_2  and  O_3
REMARK    2  A    between atoms: C_2  and  C_20
REMARK    3  A    between atoms: O_3  and  C_4
REMARK    4  A    between atoms: C_4  and  C_5
REMARK    5  A    between atoms: C_8  and  C_9
REMARK    6  A    between atoms: C_9  and  N_10
REMARK    7  A    between atoms: N_10  and  C_11
REMARK    8  A    between atoms: C_11  and  C_12
REMARK                            x       y       z     vdW  Elec       q    Type
REMARK                         _______ _______ _______ _____ _____    ______ ____
ROOT
ATOM      1  C   UNL     1      47.038   8.016  12.737  0.00  0.00    +0.000 A 
ATOM      2  C   UNL     1      45.677   7.756  12.925  0.00  0.00    +0.000 A 
ATOM      3  C   UNL     1      45.022   6.815  12.128  0.00  0.00    +0.000 A 
ATOM      4  C   UNL     1      45.706   6.126  11.115  0.00  0.00    +0.000 A 
ATOM      5  C   UNL     1      47.069   6.385  10.933  0.00  0.00    +0.000 A 
ATOM      6  C   UNL     1      47.723   7.328  11.728  0.00  0.00    +0.000 A 
ENDROOT
BRANCH   1   7
ATOM      7  C   UNL     1      47.757   9.004  13.619  0.00  0.00    +0.000 C 
BRANCH   7   8
ATOM      8  O   UNL     1      47.936   8.474  14.939  0.00  0.00    +0.000 OA
BRANCH   8  10
ATOM      9  O   UNL     1      49.926   7.545  14.296  0.00  0.00    +0.000 OA
ATOM     10  C   UNL     1      49.010   7.660  15.103  0.00  0.00    +0.000 C 
BRANCH  10  11
ATOM     11  C   UNL     1      48.921   6.835  16.306  0.00  0.00    +0.000 A 
ATOM     12  C   UNL     1      49.396   7.307  17.520  0.00  0.00    +0.000 A 
ATOM     13  S   UNL     1      49.246   6.176  18.789  0.00  0.00    +0.000 S 
ATOM     14  C   UNL     1      48.473   5.051  17.771  0.00  0.00    +0.000 A 
ATOM     15  N   UNL     1      48.026   3.863  18.257  0.00  0.00    +0.000 NA
ATOM     16  C   UNL     1      47.412   3.130  17.390  0.00  0.00    +0.000 A 
ATOM     17  N   UNL     1      47.221   3.470  16.078  0.00  0.00    +0.000 N 
ATOM     18  C   UNL     1      47.667   4.654  15.531  0.00  0.00    +0.000 A 
ATOM     19  O   UNL     1      47.446   4.911  14.356  0.00  0.00    +0.000 OA
ATOM     20  C   UNL     1      48.357   5.519  16.472  0.00  0.00    +0.000 A 
ATOM     21  H   UNL     1      46.717   2.863  15.450  0.00  0.00    +0.000 HD
ENDBRANCH  10  11
ENDBRANCH   8  10
ENDBRANCH   7   8
ENDBRANCH   1   7
BRANCH   4  22
ATOM     22  C   UNL     1      45.022   5.072  10.273  0.00  0.00    +0.000 C 
BRANCH  22  23
ATOM     23  N   UNL     1      45.330   5.241   8.856  0.00  0.00    +0.000 NA
ATOM     24  H   UNL     1      45.674   6.188   8.707  0.00  0.00    +0.000 HD
BRANCH  23  25
ATOM     25  C   UNL     1      46.303   4.269   8.376  0.00  0.00    +0.000 C 
BRANCH  25  26
ATOM     26  C   UNL     1      45.631   3.337   7.347  0.00  0.00    +0.000 C 
ATOM     27  C   UNL     1      45.396   1.914   7.888  0.00  0.00    +0.000 C 
ATOM     28  C   UNL     1      46.693   1.112   7.990  0.00  0.00    +0.000 C 
ATOM     29  N   UNL     1      47.400   1.063   6.708  0.00  0.00    +0.000 NA
ATOM     30  C   UNL     1      47.718   2.407   6.227  0.00  0.00    +0.000 C 
ATOM     31  C   UNL     1      46.458   3.258   6.056  0.00  0.00    +0.000 C 
ATOM     32  H   UNL     1      46.799   0.602   6.024  0.00  0.00    +0.000 HD
ENDBRANCH  25  26
ENDBRANCH  23  25
ENDBRANCH  22  23
ENDBRANCH   4  22
TORSDOF 8
ENDMDL
MODEL 5
REMARK VINA RESULT:    -6.792      2.202      3.018
REMARK INTER + INTRA:         -10.883
REMARK INTER:                  -9.902
REMARK INTRA:                  -0.981
REMARK UNBOUND:                -0.915
REMARK  Name = 
REMARK  8 active torsions:
REMARK  status: ('A' for Active; 'I' for Inactive)
REMARK    1  A    between atoms: C_2  and  O_3
REMARK    2  A    between atoms: C_2  and  C_20
REMARK    3  A    between atoms: O_3  and  C_4
REMARK    4  A    between atoms: C_4  and  C_5
REMARK    5  A    between atoms: C_8  and  C_9
REMARK    6  A    between atoms: C_9  and  N_10
REMARK    7  A    between atoms: N_10  and  C_11
REMARK    8  A    between atoms: C_11  and  C_12
REMARK                            x       y       z     vdW  Elec       q    Type
REMARK                         _______ _______ _______ _____ _____    ______ ____
ROOT
ATOM      1  C   UNL     1      46.426   5.992  12.779  0.00  0.00    +0.000 A 
ATOM      2  C   UNL     1      46.264   6.419  11.457  0.00  0.00    +0.000 A 
ATOM      3  C   UNL     1      45.509   5.662  10.559  0.00  0.00    +0.000 A 
ATOM      4  C   UNL     1      44.914   4.454  10.955  0.00  0.00    +0.000 A 
ATOM      5  C   UNL     1      45.074   4.033  12.279  0.00  0.00    +0.000 A 
ATOM      6  C   UNL     1      45.831   4.789  13.176  0.00  0.00    +0.000 A 
ENDROOT
BRANCH   1   7
ATOM      7  C   UNL     1      47.208   6.824  13.761  0.00  0.00    +0.000 C 
BRANCH   7   8
ATOM      8  O   UNL     1      48.362   6.112  14.228  0.00  0.00    +0.000 OA
BRANCH   8  10
ATOM      9  O   UNL     1      50.379   7.177  14.410  0.00  0.00    +0.000 OA
ATOM     10  C   UNL     1      49.290   6.861  14.877  0.00  0.00    +0.000 C 
BRANCH  10  11
ATOM     11  C   UNL     1      48.910   7.173  16.253  0.00  0.00    +0.000 A 
ATOM     12  C   UNL     1      48.582   8.471  16.616  0.00  0.00    +0.000 A 
ATOM     13  S   UNL     1      48.219   8.636  18.274  0.00  0.00    +0.000 S 
ATOM     14  C   UNL     1      48.412   6.965  18.542  0.00  0.00    +0.000 A 
ATOM     15  N   UNL     1      48.188   6.425  19.768  0.00  0.00    +0.000 NA
ATOM     16  C   UNL     1      48.320   5.142  19.817  0.00  0.00    +0.000 A 
ATOM     17  N   UNL     1      48.672   4.354  18.755  0.00  0.00    +0.000 N 
ATOM     18  C   UNL     1      48.924   4.852  17.495  0.00  0.00    +0.000 A 
ATOM     19  O   UNL     1      49.215   4.094  16.580  0.00  0.00    +0.000 OA
ATOM     20  C   UNL     1      48.780   6.293  17.387  0.00  0.00    +0.000 A 
ATOM     21  H   UNL     1      48.742   3.352  18.849  0.00  0.00    +0.000 HD
ENDBRANCH  10  11
ENDBRANCH   8  10
ENDBRANCH   7   8
ENDBRANCH   1   7
BRANCH   4  22
ATOM     22  C   UNL     1      44.057   3.646  10.007  0.00  0.00    +0.000 C 
BRANCH  22  23
ATOM     23  N   UNL     1      44.104   4.189   8.652  0.00  0.00    +0.000 NA
ATOM     24  H   UNL     1      44.621   5.067   8.669  0.00  0.00    +0.000 HD
BRANCH  23  25
ATOM     25  C   UNL     1      44.711   3.265   7.702  0.00  0.00    +0.000 C 
BRANCH  25  26
ATOM     26  C   UNL     1      46.221   3.149   7.995  0.00  0.00    +0.000 C 
ATOM     27  C   UNL     1      47.095   3.815   6.915  0.00  0.00    +0.000 C 
ATOM     28  C   UNL     1      47.131   3.005   5.619  0.00  0.00    +0.000 C 
ATOM     29  N   UNL     1      47.569   1.627   5.855  0.00  0.00    +0.000 NA
ATOM     30  C   UNL     1      46.689   0.949   6.806  0.00  0.00    +0.000 C 
ATOM     31  C   UNL     1      46.638   1.679   8.149  0.00  0.00    +0.000 C 
ATOM     32  H   UNL     1      48.514   1.649   6.239  0.00  0.00    +0.000 HD
ENDBRANCH  25  26
ENDBRANCH  23  25
ENDBRANCH  22  23
ENDBRANCH   4  22
TORSDOF 8
ENDMDL
MODEL 6
REMARK VINA RESULT:    -6.717      3.405      4.794
REMARK INTER + INTRA:         -10.772
REMARK INTER:                  -9.070
REMARK INTRA:                  -1.702
REMARK UNBOUND:                -0.915
REMARK  Name = 
REMARK  8 active torsions:
REMARK  status: ('A' for Active; 'I' for Inactive)
REMARK    1  A    between atoms: C_2  and  O_3
REMARK    2  A    between atoms: C_2  and  C_20
REMARK    3  A    between atoms: O_3  and  C_4
REMARK    4  A    between atoms: C_4  and  C_5
REMARK    5  A    between atoms: C_8  and  C_9
REMARK    6  A    between atoms: C_9  and  N_10
REMARK    7  A    between atoms: N_10  and  C_11
REMARK    8  A    between atoms: C_11  and  C_12
REMARK                            x       y       z     vdW  Elec       q    Type
REMARK                         _______ _______ _______ _____ _____    ______ ____
ROOT
ATOM      1  C   UNL     1      48.927   7.858  16.067  0.00  0.00    +0.000 A 
ATOM      2  C   UNL     1      49.150   6.771  15.216  0.00  0.00    +0.000 A 
ATOM      3  C   UNL     1      48.585   6.748  13.940  0.00  0.00    +0.000 A 
ATOM      4  C   UNL     1      47.771   7.799  13.491  0.00  0.00    +0.000 A 
ATOM      5  C   UNL     1      47.553   8.887  14.343  0.00  0.00    +0.000 A 
ATOM      6  C   UNL     1      48.117   8.909  15.621  0.00  0.00    +0.000 A 
ENDROOT
BRANCH   1   7
ATOM      7  C   UNL     1      49.565   7.905  17.432  0.00  0.00    +0.000 C 
BRANCH   7   8
ATOM      8  O   UNL     1      48.635   7.500  18.444  0.00  0.00    +0.000 OA
BRANCH   8  10
ATOM      9  O   UNL     1      49.096   6.734  20.550  0.00  0.00    +0.000 OA
ATOM     10  C   UNL     1      49.098   6.585  19.333  0.00  0.00    +0.000 C 
BRANCH  10  11
ATOM     11  C   UNL     1      49.713   5.426  18.689  0.00  0.00    +0.000 A 
ATOM     12  C   UNL     1      51.074   5.191  18.814  0.00  0.00    +0.000 A 
ATOM     13  S   UNL     1      51.604   3.821  17.948  0.00  0.00    +0.000 S 
ATOM     14  C   UNL     1      50.019   3.456  17.443  0.00  0.00    +0.000 A 
ATOM     15  N   UNL     1      49.762   2.348  16.698  0.00  0.00    +0.000 NA
ATOM     16  C   UNL     1      48.512   2.165  16.431  0.00  0.00    +0.000 A 
ATOM     17  N   UNL     1      47.501   2.997  16.827  0.00  0.00    +0.000 N 
ATOM     18  C   UNL     1      47.708   4.139  17.570  0.00  0.00    +0.000 A 
ATOM     19  O   UNL     1      46.760   4.832  17.911  0.00  0.00    +0.000 OA
ATOM     20  C   UNL     1      49.100   4.384  17.904  0.00  0.00    +0.000 A 
ATOM     21  H   UNL     1      46.539   2.793  16.602  0.00  0.00    +0.000 HD
ENDBRANCH  10  11
ENDBRANCH   8  10
ENDBRANCH   7   8
ENDBRANCH   1   7
BRANCH   4  22
ATOM     22  C   UNL     1      47.188   7.809  12.096  0.00  0.00    +0.000 C 
BRANCH  22  23
ATOM     23  N   UNL     1      46.765   6.473  11.686  0.00  0.00    +0.000 NA
ATOM     24  H   UNL     1      47.176   5.790  12.321  0.00  0.00    +0.000 HD
BRANCH  23  25
ATOM     25  C   UNL     1      45.314   6.330  11.664  0.00  0.00    +0.000 C 
BRANCH  25  26
ATOM     26  C   UNL     1      44.843   5.688  12.986  0.00  0.00    +0.000 C 
ATOM     27  C   UNL     1      45.754   4.536  13.451  0.00  0.00    +0.000 C 
ATOM     28  C   UNL     1      45.576   3.278  12.602  0.00  0.00    +0.000 C 
ATOM     29  N   UNL     1      44.177   2.844  12.567  0.00  0.00    +0.000 NA
ATOM     30  C   UNL     1      43.311   3.894  12.034  0.00  0.00    +0.000 C 
ATOM     31  C   UNL     1      43.401   5.176  12.863  0.00  0.00    +0.000 C 
ATOM     32  H   UNL     1      43.882   2.625  13.519  0.00  0.00    +0.000 HD
ENDBRANCH  25  26
ENDBRANCH  23  25
ENDBRANCH  22  23
ENDBRANCH   4  22
TORSDOF 8
ENDMDL
MODEL 7
REMARK VINA RESULT:    -6.712      3.523      4.527
REMARK INTER + INTRA:         -10.765
REMARK INTER:                  -9.024
REMARK INTRA:                  -1.741
REMARK UNBOUND:                -0.915
REMARK  Name = 
REMARK  8 active torsions:
REMARK  status: ('A' for Active; 'I' for Inactive)
REMARK    1  A    between atoms: C_2  and  O_3
REMARK    2  A    between atoms: C_2  and  C_20
REMARK    3  A    between atoms: O_3  and  C_4
REMARK    4  A    between atoms: C_4  and  C_5
REMARK    5  A    between atoms: C_8  and  C_9
REMARK    6  A    between atoms: C_9  and  N_10
REMARK    7  A    between atoms: N_10  and  C_11
REMARK    8  A    between atoms: C_11  and  C_12
REMARK                            x       y       z     vdW  Elec       q    Type
REMARK                         _______ _______ _______ _____ _____    ______ ____
ROOT
ATOM      1  C   UNL     1      49.085   7.800  15.799  0.00  0.00    +0.000 A 
ATOM      2  C   UNL     1      48.265   8.896  15.514  0.00  0.00    +0.000 A 
ATOM      3  C   UNL     1      47.555   8.952  14.314  0.00  0.00    +0.000 A 
ATOM      4  C   UNL     1      47.661   7.925  13.363  0.00  0.00    +0.000 A 
ATOM      5  C   UNL     1      48.479   6.827  13.654  0.00  0.00    +0.000 A 
ATOM      6  C   UNL     1      49.191   6.773  14.853  0.00  0.00    +0.000 A 
ENDROOT
BRANCH   1   7
ATOM      7  C   UNL     1      49.824   7.717  17.110  0.00  0.00    +0.000 C 
BRANCH   7   8
ATOM      8  O   UNL     1      48.914   7.506  18.197  0.00  0.00    +0.000 OA
BRANCH   8  10
ATOM      9  O   UNL     1      49.632   6.410  20.073  0.00  0.00    +0.000 OA
ATOM     10  C   UNL     1      49.146   6.398  18.948  0.00  0.00    +0.000 C 
BRANCH  10  11
ATOM     11  C   UNL     1      48.854   5.156  18.235  0.00  0.00    +0.000 A 
ATOM     12  C   UNL     1      47.582   4.909  17.743  0.00  0.00    +0.000 A 
ATOM     13  S   UNL     1      47.434   3.385  16.991  0.00  0.00    +0.000 S 
ATOM     14  C   UNL     1      49.085   3.043  17.231  0.00  0.00    +0.000 A 
ATOM     15  N   UNL     1      49.633   1.890  16.763  0.00  0.00    +0.000 NA
ATOM     16  C   UNL     1      50.903   1.784  16.968  0.00  0.00    +0.000 A 
ATOM     17  N   UNL     1      51.670   2.717  17.612  0.00  0.00    +0.000 N 
ATOM     18  C   UNL     1      51.162   3.894  18.118  0.00  0.00    +0.000 A 
ATOM     19  O   UNL     1      51.901   4.699  18.666  0.00  0.00    +0.000 OA
ATOM     20  C   UNL     1      49.735   4.064  17.904  0.00  0.00    +0.000 A 
ATOM     21  H   UNL     1      52.663   2.587  17.727  0.00  0.00    +0.000 HD
ENDBRANCH  10  11
ENDBRANCH   8  10
ENDBRANCH   7   8
ENDBRANCH   1   7
BRANCH   4  22
ATOM     22  C   UNL     1      46.865   7.950  12.078  0.00  0.00    +0.000 C 
BRANCH  22  23
ATOM     23  N   UNL     1      46.606   6.600  11.586  0.00  0.00    +0.000 NA
ATOM     24  H   UNL     1      47.088   5.934  12.188  0.00  0.00    +0.000 HD
BRANCH  23  25
ATOM     25  C   UNL     1      45.182   6.290  11.531  0.00  0.00    +0.000 C 
BRANCH  25  26
ATOM     26  C   UNL     1      44.736   5.695  12.883  0.00  0.00    +0.000 C 
ATOM     27  C   UNL     1      45.688   4.601  13.400  0.00  0.00    +0.000 C 
ATOM     28  C   UNL     1      45.556   3.298  12.613  0.00  0.00    +0.000 C 
ATOM     29  N   UNL     1      44.174   2.812  12.602  0.00  0.00    +0.000 NA
ATOM     30  C   UNL     1      43.270   3.803  12.021  0.00  0.00    +0.000 C 
ATOM     31  C   UNL     1      43.313   5.125  12.789  0.00  0.00    +0.000 C 
ATOM     32  H   UNL     1      43.887   2.628  13.563  0.00  0.00    +0.000 HD
ENDBRANCH  25  26
ENDBRANCH  23  25
ENDBRANCH  22  23
ENDBRANCH   4  22
TORSDOF 8
ENDMDL
MODEL 8
REMARK VINA RESULT:    -6.665      2.849      4.315
REMARK INTER + INTRA:         -10.697
REMARK INTER:                  -9.357
REMARK INTRA:                  -1.341
REMARK UNBOUND:                -0.915
REMARK  Name = 
REMARK  8 active torsions:
REMARK  status: ('A' for Active; 'I' for Inactive)
REMARK    1  A    between atoms: C_2  and  O_3
REMARK    2  A    between atoms: C_2  and  C_20
REMARK    3  A    between atoms: O_3  and  C_4
REMARK    4  A    between atoms: C_4  and  C_5
REMARK    5  A    between atoms: C_8  and  C_9
REMARK    6  A    between atoms: C_9  and  N_10
REMARK    7  A    between atoms: N_10  and  C_11
REMARK    8  A    between atoms: C_11  and  C_12
REMARK                            x       y       z     vdW  Elec       q    Type
REMARK                         _______ _______ _______ _____ _____    ______ ____
ROOT
ATOM      1  C   UNL     1      49.115   7.972  13.496  0.00  0.00    +0.000 A 
ATOM      2  C   UNL     1      48.081   8.801  13.943  0.00  0.00    +0.000 A 
ATOM      3  C   UNL     1      46.832   8.768  13.319  0.00  0.00    +0.000 A 
ATOM      4  C   UNL     1      46.593   7.922  12.226  0.00  0.00    +0.000 A 
ATOM      5  C   UNL     1      47.628   7.091  11.784  0.00  0.00    +0.000 A 
ATOM      6  C   UNL     1      48.878   7.126  12.406  0.00  0.00    +0.000 A 
ENDROOT
BRANCH   1   7
ATOM      7  C   UNL     1      50.452   7.977  14.189  0.00  0.00    +0.000 C 
BRANCH   7   8
ATOM      8  O   UNL     1      50.504   6.968  15.207  0.00  0.00    +0.000 OA
BRANCH   8  10
ATOM      9  O   UNL     1      49.894   8.504  16.789  0.00  0.00    +0.000 OA
ATOM     10  C   UNL     1      50.041   7.342  16.427  0.00  0.00    +0.000 C 
BRANCH  10  11
ATOM     11  C   UNL     1      49.831   6.210  17.327  0.00  0.00    +0.000 A 
ATOM     12  C   UNL     1      50.520   6.128  18.527  0.00  0.00    +0.000 A 
ATOM     13  S   UNL     1      50.174   4.709  19.408  0.00  0.00    +0.000 S 
ATOM     14  C   UNL     1      49.035   4.199  18.249  0.00  0.00    +0.000 A 
ATOM     15  N   UNL     1      48.320   3.057  18.430  0.00  0.00    +0.000 NA
ATOM     16  C   UNL     1      47.456   2.818  17.501  0.00  0.00    +0.000 A 
ATOM     17  N   UNL     1      47.254   3.608  16.402  0.00  0.00    +0.000 N 
ATOM     18  C   UNL     1      47.961   4.767  16.164  0.00  0.00    +0.000 A 
ATOM     19  O   UNL     1      47.720   5.443  15.174  0.00  0.00    +0.000 OA
ATOM     20  C   UNL     1      48.941   5.084  17.188  0.00  0.00    +0.000 A 
ATOM     21  H   UNL     1      46.550   3.379  15.717  0.00  0.00    +0.000 HD
ENDBRANCH  10  11
ENDBRANCH   8  10
ENDBRANCH   7   8
ENDBRANCH   1   7
BRANCH   4  22
ATOM     22  C   UNL     1      45.233   7.844  11.568  0.00  0.00    +0.000 C 
BRANCH  22  23
ATOM     23  N   UNL     1      44.292   7.079  12.381  0.00  0.00    +0.000 NA
ATOM     24  H   UNL     1      43.517   7.686  12.642  0.00  0.00    +0.000 HD
BRANCH  23  25
ATOM     25  C   UNL     1      43.795   5.895  11.692  0.00  0.00    +0.000 C 
BRANCH  25  26
ATOM     26  C   UNL     1      44.889   4.807  11.691  0.00  0.00    +0.000 C 
ATOM     27  C   UNL     1      45.285   4.356  10.273  0.00  0.00    +0.000 C 
ATOM     28  C   UNL     1      44.211   3.488   9.619  0.00  0.00    +0.000 C 
ATOM     29  N   UNL     1      43.874   2.329  10.450  0.00  0.00    +0.000 NA
ATOM     30  C   UNL     1      43.401   2.745  11.770  0.00  0.00    +0.000 C 
ATOM     31  C   UNL     1      44.446   3.583  12.507  0.00  0.00    +0.000 C 
ATOM     32  H   UNL     1      44.711   1.758  10.565  0.00  0.00    +0.000 HD
ENDBRANCH  25  26
ENDBRANCH  23  25
ENDBRANCH  22  23
ENDBRANCH   4  22
TORSDOF 8
ENDMDL
MODEL 9
REMARK VINA RESULT:    -6.564      3.883      9.180
REMARK INTER + INTRA:         -10.548
REMARK INTER:                  -9.380
REMARK INTRA:                  -1.168
REMARK UNBOUND:                -0.915
REMARK  Name = 
REMARK  8 active torsions:
REMARK  status: ('A' for Active; 'I' for Inactive)
REMARK    1  A    between atoms: C_2  and  O_3
REMARK    2  A    between atoms: C_2  and  C_20
REMARK    3  A    between atoms: O_3  and  C_4
REMARK    4  A    between atoms: C_4  and  C_5
REMARK    5  A    between atoms: C_8  and  C_9
REMARK    6  A    between atoms: C_9  and  N_10
REMARK    7  A    between atoms: N_10  and  C_11
REMARK    8  A    between atoms: C_11  and  C_12
REMARK                            x       y       z     vdW  Elec       q    Type
REMARK                         _______ _______ _______ _____ _____    ______ ____
ROOT
ATOM      1  C   UNL     1      48.605   3.410  17.084  0.00  0.00    +0.000 A 
ATOM      2  C   UNL     1      49.314   4.438  17.713  0.00  0.00    +0.000 A 
ATOM      3  C   UNL     1      50.657   4.262  18.053  0.00  0.00    +0.000 A 
ATOM      4  C   UNL     1      51.317   3.052  17.789  0.00  0.00    +0.000 A 
ATOM      5  C   UNL     1      50.606   2.027  17.156  0.00  0.00    +0.000 A 
ATOM      6  C   UNL     1      49.262   2.202  16.818  0.00  0.00    +0.000 A 
ENDROOT
BRANCH   1   7
ATOM      7  C   UNL     1      47.167   3.607  16.681  0.00  0.00    +0.000 C 
BRANCH   7   8
ATOM      8  O   UNL     1      47.047   4.654  15.709  0.00  0.00    +0.000 OA
BRANCH   8  10
ATOM      9  O   UNL     1      47.215   3.137  14.004  0.00  0.00    +0.000 OA
ATOM     10  C   UNL     1      46.898   4.245  14.423  0.00  0.00    +0.000 C 
BRANCH  10  11
ATOM     11  C   UNL     1      46.415   5.305  13.541  0.00  0.00    +0.000 A 
ATOM     12  C   UNL     1      47.241   6.364  13.195  0.00  0.00    +0.000 A 
ATOM     13  S   UNL     1      46.474   7.520  12.202  0.00  0.00    +0.000 S 
ATOM     14  C   UNL     1      45.040   6.602  12.142  0.00  0.00    +0.000 A 
ATOM     15  N   UNL     1      43.981   7.014  11.397  0.00  0.00    +0.000 NA
ATOM     16  C   UNL     1      42.980   6.198  11.400  0.00  0.00    +0.000 A 
ATOM     17  N   UNL     1      42.939   5.018  12.092  0.00  0.00    +0.000 N 
ATOM     18  C   UNL     1      43.979   4.562  12.873  0.00  0.00    +0.000 A 
ATOM     19  O   UNL     1      43.891   3.488  13.451  0.00  0.00    +0.000 OA
ATOM     20  C   UNL     1      45.134   5.443  12.894  0.00  0.00    +0.000 A 
ATOM     21  H   UNL     1      42.135   4.411  12.041  0.00  0.00    +0.000 HD
ENDBRANCH  10  11
ENDBRANCH   8  10
ENDBRANCH   7   8
ENDBRANCH   1   7
BRANCH   4  22
ATOM     22  C   UNL     1      52.782   2.863  18.111  0.00  0.00    +0.000 C 
BRANCH  22  23
ATOM     23  N   UNL     1      53.434   4.138  18.396  0.00  0.00    +0.000 NA
ATOM     24  H   UNL     1      53.982   4.041  19.249  0.00  0.00    +0.000 HD
BRANCH  23  25
ATOM     25  C   UNL     1      54.282   4.588  17.299  0.00  0.00    +0.000 C 
BRANCH  25  26
ATOM     26  C   UNL     1      54.421   6.123  17.358  0.00  0.00    +0.000 C 
ATOM     27  C   UNL     1      53.063   6.850  17.361  0.00  0.00    +0.000 C 
ATOM     28  C   UNL     1      52.385   6.815  15.992  0.00  0.00    +0.000 C 
ATOM     29  N   UNL     1      53.254   7.356  14.944  0.00  0.00    +0.000 NA
ATOM     30  C   UNL     1      54.510   6.612  14.863  0.00  0.00    +0.000 C 
ATOM     31  C   UNL     1      55.271   6.642  16.189  0.00  0.00    +0.000 C 
ATOM     32  H   UNL     1      53.462   8.330  15.167  0.00  0.00    +0.000 HD
ENDBRANCH  25  26
ENDBRANCH  23  25
ENDBRANCH  22  23
ENDBRANCH   4  22
TORSDOF 8
ENDMDL
