MODEL 1
REMARK VINA RESULT:    -8.697      0.000      0.000
REMARK INTER + INTRA:         -11.431
REMARK INTER:                 -10.730
REMARK INTRA:                  -0.701
REMARK UNBOUND:                -0.701
REMARK  Name = 
REMARK  4 active torsions:
REMARK  status: ('A' for Active; 'I' for Inactive)
REMARK    1  A    between atoms: C_2  and  C_4
REMARK    2  A    between atoms: N_8  and  C_9
REMARK    3  A    between atoms: C_9  and  C_10
REMARK    4  A    between atoms: C_14  and  C_15
REMARK                            x       y       z     vdW  Elec       q    Type
REMARK                         _______ _______ _______ _____ _____    ______ ____
ROOT
ATOM      1  C   UNL     1      43.523   3.766  11.198  0.00  0.00    +0.000 C 
ENDROOT
BRANCH   1   6
ATOM      2  C   UNL     1      46.627   2.473   7.278  0.00  0.00    +0.000 A 
ATOM      3  C   UNL     1      46.090   3.705   7.634  0.00  0.00    +0.000 A 
ATOM      4  C   UNL     1      45.236   3.783   8.734  0.00  0.00    +0.000 A 
ATOM      5  C   UNL     1      44.926   2.634   9.453  0.00  0.00    +0.000 A 
ATOM      6  N   UNL     1      44.141   2.628  10.570  0.00  0.00    +0.000 N 
ATOM      7  N   UNL     1      45.417   1.429   9.096  0.00  0.00    +0.000 NA
ATOM      8  C   UNL     1      46.245   1.368   8.022  0.00  0.00    +0.000 A 
ATOM      9  H   UNL     1      43.974   1.702  10.940  0.00  0.00    +0.000 HD
BRANCH   2  11
ATOM     10  N   UNL     1      47.494   3.228   5.143  0.00  0.00    +0.000 N 
ATOM     11  C   UNL     1      47.567   2.309   6.154  0.00  0.00    +0.000 C 
ATOM     12  O   UNL     1      48.402   1.413   6.140  0.00  0.00    +0.000 OA
ATOM     13  H   UNL     1      48.207   3.170   4.430  0.00  0.00    +0.000 HD
ATOM     14  H   UNL     1      47.004   4.106   5.242  0.00  0.00    +0.000 HD
ENDBRANCH   2  11
ENDBRANCH   1   6
BRANCH   1  15
ATOM     15  C   UNL     1      44.534   4.593  11.949  0.00  0.00    +0.000 A 
ATOM     16  C   UNL     1      45.347   4.016  12.925  0.00  0.00    +0.000 A 
ATOM     17  C   UNL     1      46.291   4.811  13.550  0.00  0.00    +0.000 A 
ATOM     18  N   UNL     1      46.474   6.120  13.276  0.00  0.00    +0.000 NA
ATOM     19  C   UNL     1      45.667   6.694  12.349  0.00  0.00    +0.000 A 
ATOM     20  C   UNL     1      44.698   5.954  11.668  0.00  0.00    +0.000 A 
BRANCH  19  21
ATOM     21  C   UNL     1      45.888   8.133  12.111  0.00  0.00    +0.000 A 
ATOM     22  C   UNL     1      47.154   8.712  12.320  0.00  0.00    +0.000 A 
ATOM     23  C   UNL     1      47.365  10.072  12.099  0.00  0.00    +0.000 A 
ATOM     24  F   UNL     1      48.582  10.590  12.302  0.00  0.00    +0.000 F 
ATOM     25  C   UNL     1      46.338  10.898  11.670  0.00  0.00    +0.000 A 
ATOM     26  C   UNL     1      45.087  10.341  11.467  0.00  0.00    +0.000 A 
ATOM     27  F   UNL     1      44.077  11.120  11.055  0.00  0.00    +0.000 F 
ATOM     28  C   UNL     1      44.854   8.983  11.681  0.00  0.00    +0.000 A 
ENDBRANCH  19  21
ENDBRANCH   1  15
TORSDOF 4
ENDMDL
MODEL 2
REMARK VINA RESULT:    -8.569      2.613      4.109
REMARK INTER + INTRA:         -11.274
REMARK INTER:                 -10.611
REMARK INTRA:                  -0.663
REMARK UNBOUND:                -0.701
REMARK  Name = 
REMARK  4 active torsions:
REMARK  status: ('A' for Active; 'I' for Inactive)
REMARK    1  A    between atoms: C_2  and  C_4
REMARK    2  A    between atoms: N_8  and  C_9
REMARK    3  A    between atoms: C_9  and  C_10
REMARK    4  A    between atoms: C_14  and  C_15
REMARK                            x       y       z     vdW  Elec       q    Type
REMARK                         _______ _______ _______ _____ _____    ______ ____
ROOT
ATOM      1  C   UNL     1      43.476   3.760  11.066  0.00  0.00    +0.000 C 
ENDROOT
BRANCH   1   6
ATOM      2  C   UNL     1      46.610   2.504   7.158  0.00  0.00    +0.000 A 
ATOM      3  C   UNL     1      45.920   3.683   7.417  0.00  0.00    +0.000 A 
ATOM      4  C   UNL     1      45.096   3.757   8.540  0.00  0.00    +0.000 A 
ATOM      5  C   UNL     1      44.968   2.656   9.379  0.00  0.00    +0.000 A 
ATOM      6  N   UNL     1      44.226   2.658  10.524  0.00  0.00    +0.000 N 
ATOM      7  N   UNL     1      45.609   1.496   9.118  0.00  0.00    +0.000 NA
ATOM      8  C   UNL     1      46.404   1.438   8.020  0.00  0.00    +0.000 A 
ATOM      9  H   UNL     1      44.198   1.759  10.988  0.00  0.00    +0.000 HD
BRANCH   2  11
ATOM     10  N   UNL     1      47.469   3.312   5.039  0.00  0.00    +0.000 N 
ATOM     11  C   UNL     1      47.529   2.354   6.015  0.00  0.00    +0.000 C 
ATOM     12  O   UNL     1      48.336   1.436   5.956  0.00  0.00    +0.000 OA
ATOM     13  H   UNL     1      48.170   3.259   4.314  0.00  0.00    +0.000 HD
ATOM     14  H   UNL     1      47.006   4.199   5.177  0.00  0.00    +0.000 HD
ENDBRANCH   2  11
ENDBRANCH   1   6
BRANCH   1  15
ATOM     15  C   UNL     1      44.387   4.794  11.675  0.00  0.00    +0.000 A 
ATOM     16  C   UNL     1      44.422   6.098  11.179  0.00  0.00    +0.000 A 
ATOM     17  C   UNL     1      45.241   7.020  11.807  0.00  0.00    +0.000 A 
ATOM     18  N   UNL     1      46.018   6.734  12.873  0.00  0.00    +0.000 NA
ATOM     19  C   UNL     1      46.012   5.461  13.340  0.00  0.00    +0.000 A 
ATOM     20  C   UNL     1      45.203   4.478  12.768  0.00  0.00    +0.000 A 
BRANCH  19  21
ATOM     21  C   UNL     1      46.902   5.195  14.487  0.00  0.00    +0.000 A 
ATOM     22  C   UNL     1      47.893   6.122  14.860  0.00  0.00    +0.000 A 
ATOM     23  C   UNL     1      48.738   5.873  15.940  0.00  0.00    +0.000 A 
ATOM     24  F   UNL     1      49.666   6.778  16.272  0.00  0.00    +0.000 F 
ATOM     25  C   UNL     1      48.634   4.705  16.678  0.00  0.00    +0.000 A 
ATOM     26  C   UNL     1      47.667   3.782  16.317  0.00  0.00    +0.000 A 
ATOM     27  F   UNL     1      47.548   2.643  17.014  0.00  0.00    +0.000 F 
ATOM     28  C   UNL     1      46.811   4.012  15.241  0.00  0.00    +0.000 A 
ENDBRANCH  19  21
ENDBRANCH   1  15
TORSDOF 4
ENDMDL
MODEL 3
REMARK VINA RESULT:    -8.560      4.164      7.337
REMARK INTER + INTRA:         -11.263
REMARK INTER:                 -10.488
REMARK INTRA:                  -0.774
REMARK UNBOUND:                -0.701
REMARK  Name = 
REMARK  4 active torsions:
REMARK  status: ('A' for Active; 'I' for Inactive)
REMARK    1  A    between atoms: C_2  and  C_4
REMARK    2  A    between atoms: N_8  and  C_9
REMARK    3  A    between atoms: C_9  and  C_10
REMARK    4  A    between atoms: C_14  and  C_15
REMARK                            x       y       z     vdW  Elec       q    Type
REMARK                         _______ _______ _______ _____ _____    ______ ____
ROOT
ATOM      1  C   UNL     1      44.617   6.304  12.420  0.00  0.00    +0.000 C 
ENDROOT
BRANCH   1   6
ATOM      2  C   UNL     1      49.584   7.693  12.668  0.00  0.00    +0.000 A 
ATOM      3  C   UNL     1      48.671   7.796  11.625  0.00  0.00    +0.000 A 
ATOM      4  C   UNL     1      47.378   7.305  11.802  0.00  0.00    +0.000 A 
ATOM      5  C   UNL     1      47.020   6.714  13.009  0.00  0.00    +0.000 A 
ATOM      6  N   UNL     1      45.765   6.255  13.286  0.00  0.00    +0.000 N 
ATOM      7  N   UNL     1      47.910   6.582  14.016  0.00  0.00    +0.000 NA
ATOM      8  C   UNL     1      49.165   7.062  13.828  0.00  0.00    +0.000 A 
ATOM      9  H   UNL     1      45.690   5.807  14.190  0.00  0.00    +0.000 HD
BRANCH   2  11
ATOM     10  N   UNL     1      51.739   7.750  11.556  0.00  0.00    +0.000 N 
ATOM     11  C   UNL     1      50.959   8.220  12.577  0.00  0.00    +0.000 C 
ATOM     12  O   UNL     1      51.374   9.069  13.355  0.00  0.00    +0.000 OA
ATOM     13  H   UNL     1      52.640   8.190  11.439  0.00  0.00    +0.000 HD
ATOM     14  H   UNL     1      51.355   7.254  10.763  0.00  0.00    +0.000 HD
ENDBRANCH   2  11
ENDBRANCH   1   6
BRANCH   1  15
ATOM     15  C   UNL     1      44.364   4.970  11.769  0.00  0.00    +0.000 A 
ATOM     16  C   UNL     1      43.404   4.095  12.279  0.00  0.00    +0.000 A 
ATOM     17  C   UNL     1      43.179   2.903  11.613  0.00  0.00    +0.000 A 
ATOM     18  N   UNL     1      43.838   2.528  10.496  0.00  0.00    +0.000 NA
ATOM     19  C   UNL     1      44.794   3.360  10.013  0.00  0.00    +0.000 A 
ATOM     20  C   UNL     1      45.069   4.585  10.623  0.00  0.00    +0.000 A 
BRANCH  19  21
ATOM     21  C   UNL     1      45.505   2.888   8.810  0.00  0.00    +0.000 A 
ATOM     22  C   UNL     1      45.881   1.538   8.678  0.00  0.00    +0.000 A 
ATOM     23  C   UNL     1      46.556   1.090   7.543  0.00  0.00    +0.000 A 
ATOM     24  F   UNL     1      46.894  -0.202   7.446  0.00  0.00    +0.000 F 
ATOM     25  C   UNL     1      46.881   1.957   6.512  0.00  0.00    +0.000 A 
ATOM     26  C   UNL     1      46.522   3.288   6.633  0.00  0.00    +0.000 A 
ATOM     27  F   UNL     1      46.829   4.147   5.650  0.00  0.00    +0.000 F 
ATOM     28  C   UNL     1      45.846   3.758   7.759  0.00  0.00    +0.000 A 
ENDBRANCH  19  21
ENDBRANCH   1  15
TORSDOF 4
ENDMDL
MODEL 4
REMARK VINA RESULT:    -8.524      4.143      7.337
REMARK INTER + INTRA:         -11.218
REMARK INTER:                 -10.439
REMARK INTRA:                  -0.779
REMARK UNBOUND:                -0.701
REMARK  Name = 
REMARK  4 active torsions:
REMARK  status: ('A' for Active; 'I' for Inactive)
REMARK    1  A    between atoms: C_2  and  C_4
REMARK    2  A    between atoms: N_8  and  C_9
REMARK    3  A    between atoms: C_9  and  C_10
REMARK    4  A    between atoms: C_14  and  C_15
REMARK                            x       y       z     vdW  Elec       q    Type
REMARK                         _______ _______ _______ _____ _____    ______ ____
ROOT
ATOM      1  C   UNL     1      44.599   6.267  12.480  0.00  0.00    +0.000 C 
ENDROOT
BRANCH   1   6
ATOM      2  C   UNL     1      49.576   7.638  12.644  0.00  0.00    +0.000 A 
ATOM      3  C   UNL     1      48.652   7.720  11.608  0.00  0.00    +0.000 A 
ATOM      4  C   UNL     1      47.358   7.240  11.810  0.00  0.00    +0.000 A 
ATOM      5  C   UNL     1      47.011   6.680  13.035  0.00  0.00    +0.000 A 
ATOM      6  N   UNL     1      45.757   6.233  13.335  0.00  0.00    +0.000 N 
ATOM      7  N   UNL     1      47.910   6.567  14.035  0.00  0.00    +0.000 NA
ATOM      8  C   UNL     1      49.166   7.036  13.823  0.00  0.00    +0.000 A 
ATOM      9  H   UNL     1      45.689   5.807  14.250  0.00  0.00    +0.000 HD
BRANCH   2  11
ATOM     10  N   UNL     1      51.714   7.668  11.500  0.00  0.00    +0.000 N 
ATOM     11  C   UNL     1      50.951   8.156  12.526  0.00  0.00    +0.000 C 
ATOM     12  O   UNL     1      51.383   9.012  13.287  0.00  0.00    +0.000 OA
ATOM     13  H   UNL     1      52.616   8.102  11.364  0.00  0.00    +0.000 HD
ATOM     14  H   UNL     1      51.316   7.164  10.719  0.00  0.00    +0.000 HD
ENDBRANCH   2  11
ENDBRANCH   1   6
BRANCH   1  15
ATOM     15  C   UNL     1      44.364   4.932  11.824  0.00  0.00    +0.000 A 
ATOM     16  C   UNL     1      43.421   4.039  12.334  0.00  0.00    +0.000 A 
ATOM     17  C   UNL     1      43.210   2.848  11.663  0.00  0.00    +0.000 A 
ATOM     18  N   UNL     1      43.869   2.489  10.541  0.00  0.00    +0.000 NA
ATOM     19  C   UNL     1      44.808   3.339  10.057  0.00  0.00    +0.000 A 
ATOM     20  C   UNL     1      45.068   4.565  10.671  0.00  0.00    +0.000 A 
BRANCH  19  21
ATOM     21  C   UNL     1      45.519   2.885   8.846  0.00  0.00    +0.000 A 
ATOM     22  C   UNL     1      45.829   3.787   7.811  0.00  0.00    +0.000 A 
ATOM     23  C   UNL     1      46.497   3.361   6.665  0.00  0.00    +0.000 A 
ATOM     24  F   UNL     1      46.782   4.245   5.701  0.00  0.00    +0.000 F 
ATOM     25  C   UNL     1      46.875   2.037   6.504  0.00  0.00    +0.000 A 
ATOM     26  C   UNL     1      46.571   1.138   7.513  0.00  0.00    +0.000 A 
ATOM     27  F   UNL     1      46.924  -0.148   7.380  0.00  0.00    +0.000 F 
ATOM     28  C   UNL     1      45.904   1.544   8.668  0.00  0.00    +0.000 A 
ENDBRANCH  19  21
ENDBRANCH   1  15
TORSDOF 4
ENDMDL
MODEL 5
REMARK VINA RESULT:    -8.395      3.202      4.836
REMARK INTER + INTRA:         -11.060
REMARK INTER:                 -10.440
REMARK INTRA:                  -0.620
REMARK UNBOUND:                -0.701
REMARK  Name = 
REMARK  4 active torsions:
REMARK  status: ('A' for Active; 'I' for Inactive)
REMARK    1  A    between atoms: C_2  and  C_4
REMARK    2  A    between atoms: N_8  and  C_9
REMARK    3  A    between atoms: C_9  and  C_10
REMARK    4  A    between atoms: C_14  and  C_15
REMARK                            x       y       z     vdW  Elec       q    Type
REMARK                         _______ _______ _______ _____ _____    ______ ____
ROOT
ATOM      1  C   UNL     1      44.324   5.100  11.458  0.00  0.00    +0.000 C 
ENDROOT
BRANCH   1   6
ATOM      2  C   UNL     1      46.526   2.757   7.417  0.00  0.00    +0.000 A 
ATOM      3  C   UNL     1      46.395   4.109   7.713  0.00  0.00    +0.000 A 
ATOM      4  C   UNL     1      45.714   4.489   8.869  0.00  0.00    +0.000 A 
ATOM      5  C   UNL     1      45.168   3.519   9.703  0.00  0.00    +0.000 A 
ATOM      6  N   UNL     1      44.532   3.800  10.877  0.00  0.00    +0.000 N 
ATOM      7  N   UNL     1      45.263   2.206   9.406  0.00  0.00    +0.000 NA
ATOM      8  C   UNL     1      45.926   1.851   8.276  0.00  0.00    +0.000 A 
ATOM      9  H   UNL     1      44.150   2.982  11.333  0.00  0.00    +0.000 HD
BRANCH   2  11
ATOM     10  N   UNL     1      47.113   2.976   5.074  0.00  0.00    +0.000 N 
ATOM     11  C   UNL     1      47.262   2.269   6.236  0.00  0.00    +0.000 C 
ATOM     12  O   UNL     1      48.005   1.298   6.299  0.00  0.00    +0.000 OA
ATOM     13  H   UNL     1      47.699   2.697   4.300  0.00  0.00    +0.000 HD
ATOM     14  H   UNL     1      46.721   3.907   5.051  0.00  0.00    +0.000 HD
ENDBRANCH   2  11
ENDBRANCH   1   6
BRANCH   1  15
ATOM     15  C   UNL     1      45.566   5.592  12.154  0.00  0.00    +0.000 A 
ATOM     16  C   UNL     1      46.366   6.581  11.579  0.00  0.00    +0.000 A 
ATOM     17  C   UNL     1      47.467   7.031  12.284  0.00  0.00    +0.000 A 
ATOM     18  N   UNL     1      47.824   6.567  13.500  0.00  0.00    +0.000 NA
ATOM     19  C   UNL     1      47.069   5.584  14.052  0.00  0.00    +0.000 A 
ATOM     20  C   UNL     1      45.935   5.088  13.407  0.00  0.00    +0.000 A 
BRANCH  19  21
ATOM     21  C   UNL     1      47.520   5.092  15.367  0.00  0.00    +0.000 A 
ATOM     22  C   UNL     1      46.957   3.934  15.935  0.00  0.00    +0.000 A 
ATOM     23  C   UNL     1      47.379   3.468  17.180  0.00  0.00    +0.000 A 
ATOM     24  F   UNL     1      46.826   2.360  17.689  0.00  0.00    +0.000 F 
ATOM     25  C   UNL     1      48.361   4.130  17.899  0.00  0.00    +0.000 A 
ATOM     26  C   UNL     1      48.919   5.274  17.353  0.00  0.00    +0.000 A 
ATOM     27  F   UNL     1      49.869   5.933  18.031  0.00  0.00    +0.000 F 
ATOM     28  C   UNL     1      48.512   5.756  16.110  0.00  0.00    +0.000 A 
ENDBRANCH  19  21
ENDBRANCH   1  15
TORSDOF 4
ENDMDL
MODEL 6
REMARK VINA RESULT:    -7.749      2.248      2.983
REMARK INTER + INTRA:         -10.263
REMARK INTER:                  -9.981
REMARK INTRA:                  -0.281
REMARK UNBOUND:                -0.701
REMARK  Name = 
REMARK  4 active torsions:
REMARK  status: ('A' for Active; 'I' for Inactive)
REMARK    1  A    between atoms: C_2  and  C_4
REMARK    2  A    between atoms: N_8  and  C_9
REMARK    3  A    between atoms: C_9  and  C_10
REMARK    4  A    between atoms: C_14  and  C_15
REMARK                            x       y       z     vdW  Elec       q    Type
REMARK                         _______ _______ _______ _____ _____    ______ ____
ROOT
ATOM      1  C   UNL     1      43.320   3.240  11.302  0.00  0.00    +0.000 C 
ENDROOT
BRANCH   1   6
ATOM      2  C   UNL     1      46.342   2.723   7.147  0.00  0.00    +0.000 A 
ATOM      3  C   UNL     1      45.390   3.688   7.453  0.00  0.00    +0.000 A 
ATOM      4  C   UNL     1      44.671   3.580   8.644  0.00  0.00    +0.000 A 
ATOM      5  C   UNL     1      44.907   2.511   9.501  0.00  0.00    +0.000 A 
ATOM      6  N   UNL     1      44.287   2.356  10.707  0.00  0.00    +0.000 N 
ATOM      7  N   UNL     1      45.807   1.553   9.196  0.00  0.00    +0.000 NA
ATOM      8  C   UNL     1      46.497   1.670   8.033  0.00  0.00    +0.000 A 
ATOM      9  H   UNL     1      44.535   1.497  11.180  0.00  0.00    +0.000 HD
BRANCH   2  11
ATOM     10  N   UNL     1      48.509   2.535   6.073  0.00  0.00    +0.000 N 
ATOM     11  C   UNL     1      47.171   2.783   5.929  0.00  0.00    +0.000 C 
ATOM     12  O   UNL     1      46.682   3.007   4.829  0.00  0.00    +0.000 OA
ATOM     13  H   UNL     1      49.050   2.476   5.222  0.00  0.00    +0.000 HD
ATOM     14  H   UNL     1      48.895   2.105   6.903  0.00  0.00    +0.000 HD
ENDBRANCH   2  11
ENDBRANCH   1   6
BRANCH   1  15
ATOM     15  C   UNL     1      43.846   4.650  11.384  0.00  0.00    +0.000 A 
ATOM     16  C   UNL     1      43.062   5.731  10.979  0.00  0.00    +0.000 A 
ATOM     17  C   UNL     1      43.576   7.008  11.121  0.00  0.00    +0.000 A 
ATOM     18  N   UNL     1      44.799   7.275  11.626  0.00  0.00    +0.000 NA
ATOM     19  C   UNL     1      45.578   6.227  11.993  0.00  0.00    +0.000 A 
ATOM     20  C   UNL     1      45.124   4.911  11.891  0.00  0.00    +0.000 A 
BRANCH  19  21
ATOM     21  C   UNL     1      46.916   6.574  12.508  0.00  0.00    +0.000 A 
ATOM     22  C   UNL     1      47.841   7.266  11.705  0.00  0.00    +0.000 A 
ATOM     23  C   UNL     1      49.107   7.592  12.187  0.00  0.00    +0.000 A 
ATOM     24  F   UNL     1      49.961   8.256  11.399  0.00  0.00    +0.000 F 
ATOM     25  C   UNL     1      49.498   7.242  13.470  0.00  0.00    +0.000 A 
ATOM     26  C   UNL     1      48.600   6.555  14.269  0.00  0.00    +0.000 A 
ATOM     27  F   UNL     1      48.956   6.203  15.512  0.00  0.00    +0.000 F 
ATOM     28  C   UNL     1      47.328   6.220  13.806  0.00  0.00    +0.000 A 
ENDBRANCH  19  21
ENDBRANCH   1  15
TORSDOF 4
ENDMDL
MODEL 7
REMARK VINA RESULT:    -7.571      1.842      2.354
REMARK INTER + INTRA:         -10.043
REMARK INTER:                  -9.310
REMARK INTRA:                  -0.733
REMARK UNBOUND:                -0.701
REMARK  Name = 
REMARK  4 active torsions:
REMARK  status: ('A' for Active; 'I' for Inactive)
REMARK    1  A    between atoms: C_2  and  C_4
REMARK    2  A    between atoms: N_8  and  C_9
REMARK    3  A    between atoms: C_9  and  C_10
REMARK    4  A    between atoms: C_14  and  C_15
REMARK                            x       y       z     vdW  Elec       q    Type
REMARK                         _______ _______ _______ _____ _____    ______ ____
ROOT
ATOM      1  C   UNL     1      44.186   5.240  11.329  0.00  0.00    +0.000 C 
ENDROOT
BRANCH   1   6
ATOM      2  C   UNL     1      46.521   3.055   7.274  0.00  0.00    +0.000 A 
ATOM      3  C   UNL     1      46.476   4.384   7.680  0.00  0.00    +0.000 A 
ATOM      4  C   UNL     1      45.734   4.726   8.810  0.00  0.00    +0.000 A 
ATOM      5  C   UNL     1      45.043   3.742   9.508  0.00  0.00    +0.000 A 
ATOM      6  N   UNL     1      44.335   3.979  10.651  0.00  0.00    +0.000 N 
ATOM      7  N   UNL     1      45.054   2.454   9.103  0.00  0.00    +0.000 NA
ATOM      8  C   UNL     1      45.779   2.137   8.000  0.00  0.00    +0.000 A 
ATOM      9  H   UNL     1      43.851   3.163  11.001  0.00  0.00    +0.000 HD
BRANCH   2  11
ATOM     10  N   UNL     1      48.641   2.359   6.324  0.00  0.00    +0.000 N 
ATOM     11  C   UNL     1      47.311   2.604   6.114  0.00  0.00    +0.000 C 
ATOM     12  O   UNL     1      46.796   2.419   5.018  0.00  0.00    +0.000 OA
ATOM     13  H   UNL     1      49.151   1.953   5.553  0.00  0.00    +0.000 HD
ATOM     14  H   UNL     1      49.034   2.257   7.249  0.00  0.00    +0.000 HD
ENDBRANCH   2  11
ENDBRANCH   1   6
BRANCH   1  15
ATOM     15  C   UNL     1      45.380   5.537  12.199  0.00  0.00    +0.000 A 
ATOM     16  C   UNL     1      45.671   4.746  13.311  0.00  0.00    +0.000 A 
ATOM     17  C   UNL     1      46.807   5.034  14.046  0.00  0.00    +0.000 A 
ATOM     18  N   UNL     1      47.656   6.043  13.756  0.00  0.00    +0.000 NA
ATOM     19  C   UNL     1      47.362   6.834  12.694  0.00  0.00    +0.000 A 
ATOM     20  C   UNL     1      46.241   6.599  11.897  0.00  0.00    +0.000 A 
BRANCH  19  21
ATOM     21  C   UNL     1      48.305   7.941  12.440  0.00  0.00    +0.000 A 
ATOM     22  C   UNL     1      49.473   7.732  11.683  0.00  0.00    +0.000 A 
ATOM     23  C   UNL     1      50.368   8.774  11.445  0.00  0.00    +0.000 A 
ATOM     24  F   UNL     1      51.467   8.544  10.715  0.00  0.00    +0.000 F 
ATOM     25  C   UNL     1      50.140  10.046  11.947  0.00  0.00    +0.000 A 
ATOM     26  C   UNL     1      48.997  10.262  12.698  0.00  0.00    +0.000 A 
ATOM     27  F   UNL     1      48.756  11.482  13.197  0.00  0.00    +0.000 F 
ATOM     28  C   UNL     1      48.089   9.234  12.948  0.00  0.00    +0.000 A 
ENDBRANCH  19  21
ENDBRANCH   1  15
TORSDOF 4
ENDMDL
MODEL 8
REMARK VINA RESULT:    -7.398      4.785      8.320
REMARK INTER + INTRA:          -9.828
REMARK INTER:                  -9.310
REMARK INTRA:                  -0.519
REMARK UNBOUND:                -0.701
REMARK  Name = 
REMARK  4 active torsions:
REMARK  status: ('A' for Active; 'I' for Inactive)
REMARK    1  A    between atoms: C_2  and  C_4
REMARK    2  A    between atoms: N_8  and  C_9
REMARK    3  A    between atoms: C_9  and  C_10
REMARK    4  A    between atoms: C_14  and  C_15
REMARK                            x       y       z     vdW  Elec       q    Type
REMARK                         _______ _______ _______ _____ _____    ______ ____
ROOT
ATOM      1  C   UNL     1      45.306   4.275  13.667  0.00  0.00    +0.000 C 
ENDROOT
BRANCH   1   6
ATOM      2  C   UNL     1      49.218   5.327  16.870  0.00  0.00    +0.000 A 
ATOM      3  C   UNL     1      48.196   4.390  16.973  0.00  0.00    +0.000 A 
ATOM      4  C   UNL     1      47.225   4.330  15.974  0.00  0.00    +0.000 A 
ATOM      5  C   UNL     1      47.283   5.207  14.897  0.00  0.00    +0.000 A 
ATOM      6  N   UNL     1      46.406   5.184  13.852  0.00  0.00    +0.000 N 
ATOM      7  N   UNL     1      48.253   6.141  14.804  0.00  0.00    +0.000 NA
ATOM      8  C   UNL     1      49.190   6.190  15.786  0.00  0.00    +0.000 A 
ATOM      9  H   UNL     1      46.560   5.924  13.180  0.00  0.00    +0.000 HD
BRANCH   2  11
ATOM     10  N   UNL     1      50.507   6.658  18.434  0.00  0.00    +0.000 N 
ATOM     11  C   UNL     1      50.304   5.432  17.862  0.00  0.00    +0.000 C 
ATOM     12  O   UNL     1      50.971   4.459  18.189  0.00  0.00    +0.000 OA
ATOM     13  H   UNL     1      51.182   6.698  19.184  0.00  0.00    +0.000 HD
ATOM     14  H   UNL     1      49.827   7.403  18.378  0.00  0.00    +0.000 HD
ENDBRANCH   2  11
ENDBRANCH   1   6
BRANCH   1  15
ATOM     15  C   UNL     1      44.774   4.338  12.259  0.00  0.00    +0.000 A 
ATOM     16  C   UNL     1      43.629   5.077  11.958  0.00  0.00    +0.000 A 
ATOM     17  C   UNL     1      43.213   5.141  10.641  0.00  0.00    +0.000 A 
ATOM     18  N   UNL     1      43.846   4.524   9.620  0.00  0.00    +0.000 NA
ATOM     19  C   UNL     1      44.942   3.780   9.910  0.00  0.00    +0.000 A 
ATOM     20  C   UNL     1      45.430   3.677  11.214  0.00  0.00    +0.000 A 
BRANCH  19  21
ATOM     21  C   UNL     1      45.577   3.102   8.763  0.00  0.00    +0.000 A 
ATOM     22  C   UNL     1      45.857   1.724   8.805  0.00  0.00    +0.000 A 
ATOM     23  C   UNL     1      46.460   1.082   7.725  0.00  0.00    +0.000 A 
ATOM     24  F   UNL     1      46.707  -0.232   7.794  0.00  0.00    +0.000 F 
ATOM     25  C   UNL     1      46.808   1.778   6.578  0.00  0.00    +0.000 A 
ATOM     26  C   UNL     1      46.544   3.136   6.528  0.00  0.00    +0.000 A 
ATOM     27  F   UNL     1      46.873   3.832   5.431  0.00  0.00    +0.000 F 
ATOM     28  C   UNL     1      45.940   3.798   7.596  0.00  0.00    +0.000 A 
ENDBRANCH  19  21
ENDBRANCH   1  15
TORSDOF 4
ENDMDL
MODEL 9
REMARK VINA RESULT:    -7.108      5.183      8.660
REMARK INTER + INTRA:          -9.471
REMARK INTER:                  -8.827
REMARK INTRA:                  -0.644
REMARK UNBOUND:                -0.701
REMARK  Name = 
REMARK  4 active torsions:
REMARK  status: ('A' for Active; 'I' for Inactive)
REMARK    1  A    between atoms: C_2  and  C_4
REMARK    2  A    between atoms: N_8  and  C_9
REMARK    3  A    between atoms: C_9  and  C_10
REMARK    4  A    between atoms: C_14  and  C_15
REMARK                            x       y       z     vdW  Elec       q    Type
REMARK                         _______ _______ _______ _____ _____    ______ ____
ROOT
ATOM      1  C   UNL     1      48.486   7.507  13.962  0.00  0.00    +0.000 C 
ENDROOT
BRANCH   1   6
ATOM      2  C   UNL     1      48.554   5.499  18.719  0.00  0.00    +0.000 A 
ATOM      3  C   UNL     1      48.451   6.821  18.300  0.00  0.00    +0.000 A 
ATOM      4  C   UNL     1      48.495   7.108  16.936  0.00  0.00    +0.000 A 
ATOM      5  C   UNL     1      48.649   6.077  16.016  0.00  0.00    +0.000 A 
ATOM      6  N   UNL     1      48.650   6.261  14.664  0.00  0.00    +0.000 N 
ATOM      7  N   UNL     1      48.781   4.794  16.415  0.00  0.00    +0.000 NA
ATOM      8  C   UNL     1      48.739   4.530  17.746  0.00  0.00    +0.000 A 
ATOM      9  H   UNL     1      48.825   5.413  14.142  0.00  0.00    +0.000 HD
BRANCH   2  11
ATOM     10  N   UNL     1      48.627   3.777  20.425  0.00  0.00    +0.000 N 
ATOM     11  C   UNL     1      48.479   5.107  20.139  0.00  0.00    +0.000 C 
ATOM     12  O   UNL     1      48.329   5.936  21.027  0.00  0.00    +0.000 OA
ATOM     13  H   UNL     1      48.678   3.531  21.403  0.00  0.00    +0.000 HD
ATOM     14  H   UNL     1      48.999   3.116  19.757  0.00  0.00    +0.000 HD
ENDBRANCH   2  11
ENDBRANCH   1   6
BRANCH   1  15
ATOM     15  C   UNL     1      47.240   7.498  13.117  0.00  0.00    +0.000 A 
ATOM     16  C   UNL     1      46.427   8.629  13.027  0.00  0.00    +0.000 A 
ATOM     17  C   UNL     1      45.321   8.582  12.197  0.00  0.00    +0.000 A 
ATOM     18  N   UNL     1      44.971   7.501  11.468  0.00  0.00    +0.000 NA
ATOM     19  C   UNL     1      45.739   6.388  11.575  0.00  0.00    +0.000 A 
ATOM     20  C   UNL     1      46.879   6.363  12.381  0.00  0.00    +0.000 A 
BRANCH  19  21
ATOM     21  C   UNL     1      45.296   5.226  10.781  0.00  0.00    +0.000 A 
ATOM     22  C   UNL     1      44.519   4.208  11.367  0.00  0.00    +0.000 A 
ATOM     23  C   UNL     1      44.101   3.107  10.621  0.00  0.00    +0.000 A 
ATOM     24  F   UNL     1      43.358   2.160  11.206  0.00  0.00    +0.000 F 
ATOM     25  C   UNL     1      44.439   2.976   9.283  0.00  0.00    +0.000 A 
ATOM     26  C   UNL     1      45.208   3.968   8.698  0.00  0.00    +0.000 A 
ATOM     27  F   UNL     1      45.550   3.862   7.406  0.00  0.00    +0.000 F 
ATOM     28  C   UNL     1      45.636   5.078   9.425  0.00  0.00    +0.000 A 
ENDBRANCH  19  21
ENDBRANCH   1  15
TORSDOF 4
ENDMDL
