MODEL 1
REMARK VINA RESULT:    -6.929      0.000      0.000
REMARK INTER + INTRA:          -9.860
REMARK INTER:                  -9.156
REMARK INTRA:                  -0.703
REMARK UNBOUND:                -0.703
REMARK  Name = 
REMARK  7 active torsions:
REMARK  status: ('A' for Active; 'I' for Inactive)
REMARK    1  A    between atoms: C_1  and  C_2
REMARK    2  A    between atoms: C_2  and  C_3
REMARK    3  A    between atoms: C_2  and  C_14
REMARK    4  A    between atoms: C_4  and  C_5
REMARK    5  A    between atoms: C_8  and  C_9
REMARK    6  A    between atoms: C_18  and  S_19
REMARK    7  A    between atoms: S_19  and  N_20
REMARK                            x       y       z     vdW  Elec       q    Type
REMARK                         _______ _______ _______ _____ _____    ______ ____
ROOT
ATOM      1  C   UNL     1      42.676   6.989  11.437  0.00  0.00    +0.000 C 
ATOM      2  C   UNL     1      44.063   6.645  11.991  0.00  0.00    +0.000 C 
ENDROOT
BRANCH   2   3
ATOM      3  C   UNL     1      44.935   7.891  12.039  0.00  0.00    +0.000 A 
ATOM      4  C   UNL     1      44.519   9.076  11.411  0.00  0.00    +0.000 A 
ATOM      5  C   UNL     1      45.285  10.242  11.504  0.00  0.00    +0.000 A 
ATOM      6  C   UNL     1      46.464  10.250  12.249  0.00  0.00    +0.000 A 
ATOM      7  C   UNL     1      46.888   9.076  12.872  0.00  0.00    +0.000 A 
ATOM      8  C   UNL     1      46.150   7.896  12.745  0.00  0.00    +0.000 A 
BRANCH   7   9
ATOM      9  S   UNL     1      48.293   9.102  13.948  0.00  0.00    +0.000 S 
ATOM     10  O   UNL     1      48.959   7.822  13.856  0.00  0.00    +0.000 OA
ATOM     11  O   UNL     1      48.983  10.356  13.773  0.00  0.00    +0.000 OA
BRANCH   9  12
ATOM     12  N   UNL     1      47.550   9.157  15.436  0.00  0.00    +0.000 NA
ATOM     13  H   UNL     1      47.458  10.070  15.866  0.00  0.00    +0.000 HD
ATOM     14  H   UNL     1      47.524   8.298  15.974  0.00  0.00    +0.000 HD
ENDBRANCH   9  12
ENDBRANCH   7   9
ENDBRANCH   2   3
BRANCH   2  15
ATOM     15  C   UNL     1      44.713   5.551  11.168  0.00  0.00    +0.000 C 
ATOM     16  C   UNL     1      44.179   4.965  10.080  0.00  0.00    +0.000 C 
BRANCH  16  17
ATOM     17  C   UNL     1      44.875   3.921   9.302  0.00  0.00    +0.000 A 
ATOM     18  C   UNL     1      44.677   2.556   9.543  0.00  0.00    +0.000 A 
ATOM     19  C   UNL     1      45.394   1.588   8.833  0.00  0.00    +0.000 A 
ATOM     20  C   UNL     1      46.300   1.969   7.839  0.00  0.00    +0.000 A 
ATOM     21  C   UNL     1      46.472   3.326   7.553  0.00  0.00    +0.000 A 
ATOM     22  C   UNL     1      45.761   4.296   8.279  0.00  0.00    +0.000 A 
BRANCH  20  23
ATOM     23  C   UNL     1      47.078   0.895   7.167  0.00  0.00    +0.000 C 
ATOM     24  N   UNL     1      46.856  -0.394   7.554  0.00  0.00    +0.000 N 
ATOM     25  O   UNL     1      47.910   1.153   6.304  0.00  0.00    +0.000 OA
ATOM     26  H   UNL     1      46.285  -0.655   8.344  0.00  0.00    +0.000 HD
ATOM     27  H   UNL     1      47.445  -1.101   7.131  0.00  0.00    +0.000 HD
ENDBRANCH  20  23
ENDBRANCH  16  17
ENDBRANCH   2  15
TORSDOF 6
ENDMDL
MODEL 2
REMARK VINA RESULT:    -6.685      2.795      3.011
REMARK INTER + INTRA:          -9.538
REMARK INTER:                  -8.763
REMARK INTRA:                  -0.775
REMARK UNBOUND:                -0.703
REMARK  Name = 
REMARK  7 active torsions:
REMARK  status: ('A' for Active; 'I' for Inactive)
REMARK    1  A    between atoms: C_1  and  C_2
REMARK    2  A    between atoms: C_2  and  C_3
REMARK    3  A    between atoms: C_2  and  C_14
REMARK    4  A    between atoms: C_4  and  C_5
REMARK    5  A    between atoms: C_8  and  C_9
REMARK    6  A    between atoms: C_18  and  S_19
REMARK    7  A    between atoms: S_19  and  N_20
REMARK                            x       y       z     vdW  Elec       q    Type
REMARK                         _______ _______ _______ _____ _____    ______ ____
ROOT
ATOM      1  C   UNL     1      43.603   5.884  13.122  0.00  0.00    +0.000 C 
ATOM      2  C   UNL     1      45.126   5.940  12.949  0.00  0.00    +0.000 C 
ENDROOT
BRANCH   2   3
ATOM      3  C   UNL     1      45.580   7.380  12.756  0.00  0.00    +0.000 A 
ATOM      4  C   UNL     1      46.885   7.767  13.102  0.00  0.00    +0.000 A 
ATOM      5  C   UNL     1      47.328   9.073  12.869  0.00  0.00    +0.000 A 
ATOM      6  C   UNL     1      46.485  10.003  12.263  0.00  0.00    +0.000 A 
ATOM      7  C   UNL     1      45.185   9.629  11.922  0.00  0.00    +0.000 A 
ATOM      8  C   UNL     1      44.721   8.338  12.193  0.00  0.00    +0.000 A 
BRANCH   7   9
ATOM      9  S   UNL     1      44.152  10.742  11.012  0.00  0.00    +0.000 S 
ATOM     10  O   UNL     1      43.349  11.488  11.956  0.00  0.00    +0.000 OA
ATOM     11  O   UNL     1      44.947  11.376   9.991  0.00  0.00    +0.000 OA
BRANCH   9  12
ATOM     12  N   UNL     1      43.133   9.673  10.246  0.00  0.00    +0.000 NA
ATOM     13  H   UNL     1      43.491   8.739  10.085  0.00  0.00    +0.000 HD
ATOM     14  H   UNL     1      42.373  10.065   9.702  0.00  0.00    +0.000 HD
ENDBRANCH   9  12
ENDBRANCH   7   9
ENDBRANCH   2   3
BRANCH   2  15
ATOM     15  C   UNL     1      45.566   5.065  11.793  0.00  0.00    +0.000 C 
ATOM     16  C   UNL     1      44.995   5.026  10.575  0.00  0.00    +0.000 C 
BRANCH  16  17
ATOM     17  C   UNL     1      45.489   4.170   9.479  0.00  0.00    +0.000 A 
ATOM     18  C   UNL     1      45.253   2.790   9.448  0.00  0.00    +0.000 A 
ATOM     19  C   UNL     1      45.784   1.991   8.430  0.00  0.00    +0.000 A 
ATOM     20  C   UNL     1      46.533   2.566   7.399  0.00  0.00    +0.000 A 
ATOM     21  C   UNL     1      46.735   3.949   7.390  0.00  0.00    +0.000 A 
ATOM     22  C   UNL     1      46.213   4.745   8.423  0.00  0.00    +0.000 A 
BRANCH  20  23
ATOM     23  C   UNL     1      47.122   1.655   6.384  0.00  0.00    +0.000 C 
ATOM     24  N   UNL     1      47.686   2.212   5.275  0.00  0.00    +0.000 N 
ATOM     25  O   UNL     1      47.087   0.437   6.522  0.00  0.00    +0.000 OA
ATOM     26  H   UNL     1      47.628   3.193   5.044  0.00  0.00    +0.000 HD
ATOM     27  H   UNL     1      48.021   1.571   4.566  0.00  0.00    +0.000 HD
ENDBRANCH  20  23
ENDBRANCH  16  17
ENDBRANCH   2  15
TORSDOF 6
ENDMDL
MODEL 3
REMARK VINA RESULT:    -6.673      4.513      5.818
REMARK INTER + INTRA:          -9.522
REMARK INTER:                  -8.775
REMARK INTRA:                  -0.747
REMARK UNBOUND:                -0.703
REMARK  Name = 
REMARK  7 active torsions:
REMARK  status: ('A' for Active; 'I' for Inactive)
REMARK    1  A    between atoms: C_1  and  C_2
REMARK    2  A    between atoms: C_2  and  C_3
REMARK    3  A    between atoms: C_2  and  C_14
REMARK    4  A    between atoms: C_4  and  C_5
REMARK    5  A    between atoms: C_8  and  C_9
REMARK    6  A    between atoms: C_18  and  S_19
REMARK    7  A    between atoms: S_19  and  N_20
REMARK                            x       y       z     vdW  Elec       q    Type
REMARK                         _______ _______ _______ _____ _____    ______ ____
ROOT
ATOM      1  C   UNL     1      50.220   7.675  14.287  0.00  0.00    +0.000 C 
ATOM      2  C   UNL     1      48.758   7.463  14.696  0.00  0.00    +0.000 C 
ENDROOT
BRANCH   2   3
ATOM      3  C   UNL     1      48.684   6.872  16.097  0.00  0.00    +0.000 A 
ATOM      4  C   UNL     1      48.692   7.709  17.223  0.00  0.00    +0.000 A 
ATOM      5  C   UNL     1      48.561   7.178  18.510  0.00  0.00    +0.000 A 
ATOM      6  C   UNL     1      48.394   5.805  18.689  0.00  0.00    +0.000 A 
ATOM      7  C   UNL     1      48.391   4.964  17.575  0.00  0.00    +0.000 A 
ATOM      8  C   UNL     1      48.566   5.486  16.290  0.00  0.00    +0.000 A 
BRANCH   7   9
ATOM      9  S   UNL     1      48.024   3.243  17.765  0.00  0.00    +0.000 S 
ATOM     10  O   UNL     1      46.624   3.042  17.467  0.00  0.00    +0.000 OA
ATOM     11  O   UNL     1      49.073   2.478  17.138  0.00  0.00    +0.000 OA
BRANCH   9  12
ATOM     12  N   UNL     1      48.202   3.062  19.410  0.00  0.00    +0.000 NA
ATOM     13  H   UNL     1      48.285   3.912  19.955  0.00  0.00    +0.000 HD
ATOM     14  H   UNL     1      48.540   2.167  19.744  0.00  0.00    +0.000 HD
ENDBRANCH   9  12
ENDBRANCH   7   9
ENDBRANCH   2   3
BRANCH   2  15
ATOM     15  C   UNL     1      48.042   6.584  13.690  0.00  0.00    +0.000 C 
ATOM     16  C   UNL     1      46.744   6.679  13.347  0.00  0.00    +0.000 C 
BRANCH  16  17
ATOM     17  C   UNL     1      46.111   5.809  12.337  0.00  0.00    +0.000 A 
ATOM     18  C   UNL     1      45.546   4.571  12.670  0.00  0.00    +0.000 A 
ATOM     19  C   UNL     1      45.006   3.738  11.685  0.00  0.00    +0.000 A 
ATOM     20  C   UNL     1      44.987   4.146  10.348  0.00  0.00    +0.000 A 
ATOM     21  C   UNL     1      45.502   5.400  10.008  0.00  0.00    +0.000 A 
ATOM     22  C   UNL     1      46.057   6.227  10.998  0.00  0.00    +0.000 A 
BRANCH  20  23
ATOM     23  C   UNL     1      44.458   3.188   9.343  0.00  0.00    +0.000 C 
ATOM     24  N   UNL     1      44.467   3.565   8.032  0.00  0.00    +0.000 N 
ATOM     25  O   UNL     1      44.005   2.097   9.675  0.00  0.00    +0.000 OA
ATOM     26  H   UNL     1      44.702   4.494   7.714  0.00  0.00    +0.000 HD
ATOM     27  H   UNL     1      44.040   2.925   7.374  0.00  0.00    +0.000 HD
ENDBRANCH  20  23
ENDBRANCH  16  17
ENDBRANCH   2  15
TORSDOF 6
ENDMDL
MODEL 4
REMARK VINA RESULT:    -6.415      4.424      7.844
REMARK INTER + INTRA:          -9.182
REMARK INTER:                  -8.478
REMARK INTRA:                  -0.703
REMARK UNBOUND:                -0.703
REMARK  Name = 
REMARK  7 active torsions:
REMARK  status: ('A' for Active; 'I' for Inactive)
REMARK    1  A    between atoms: C_1  and  C_2
REMARK    2  A    between atoms: C_2  and  C_3
REMARK    3  A    between atoms: C_2  and  C_14
REMARK    4  A    between atoms: C_4  and  C_5
REMARK    5  A    between atoms: C_8  and  C_9
REMARK    6  A    between atoms: C_18  and  S_19
REMARK    7  A    between atoms: S_19  and  N_20
REMARK                            x       y       z     vdW  Elec       q    Type
REMARK                         _______ _______ _______ _____ _____    ______ ____
ROOT
ATOM      1  C   UNL     1      45.370   8.602  12.273  0.00  0.00    +0.000 C 
ATOM      2  C   UNL     1      46.197   7.345  11.973  0.00  0.00    +0.000 C 
ENDROOT
BRANCH   2   3
ATOM      3  C   UNL     1      45.315   6.272  11.349  0.00  0.00    +0.000 A 
ATOM      4  C   UNL     1      43.971   6.144  11.732  0.00  0.00    +0.000 A 
ATOM      5  C   UNL     1      43.139   5.202  11.119  0.00  0.00    +0.000 A 
ATOM      6  C   UNL     1      43.630   4.393  10.095  0.00  0.00    +0.000 A 
ATOM      7  C   UNL     1      44.968   4.509   9.712  0.00  0.00    +0.000 A 
ATOM      8  C   UNL     1      45.815   5.417  10.353  0.00  0.00    +0.000 A 
BRANCH   7   9
ATOM      9  S   UNL     1      45.570   3.606   8.313  0.00  0.00    +0.000 S 
ATOM     10  O   UNL     1      46.470   4.464   7.574  0.00  0.00    +0.000 OA
ATOM     11  O   UNL     1      45.933   2.280   8.745  0.00  0.00    +0.000 OA
BRANCH   9  12
ATOM     12  N   UNL     1      44.181   3.463   7.408  0.00  0.00    +0.000 NA
ATOM     13  H   UNL     1      44.229   3.783   6.448  0.00  0.00    +0.000 HD
ATOM     14  H   UNL     1      43.305   3.385   7.911  0.00  0.00    +0.000 HD
ENDBRANCH   9  12
ENDBRANCH   7   9
ENDBRANCH   2   3
BRANCH   2  15
ATOM     15  C   UNL     1      46.875   6.837  13.229  0.00  0.00    +0.000 C 
ATOM     16  C   UNL     1      46.769   5.593  13.731  0.00  0.00    +0.000 C 
BRANCH  16  17
ATOM     17  C   UNL     1      47.479   5.150  14.946  0.00  0.00    +0.000 A 
ATOM     18  C   UNL     1      47.340   3.854  15.459  0.00  0.00    +0.000 A 
ATOM     19  C   UNL     1      47.977   3.478  16.647  0.00  0.00    +0.000 A 
ATOM     20  C   UNL     1      48.796   4.383  17.326  0.00  0.00    +0.000 A 
ATOM     21  C   UNL     1      48.984   5.665  16.800  0.00  0.00    +0.000 A 
ATOM     22  C   UNL     1      48.331   6.043  15.615  0.00  0.00    +0.000 A 
BRANCH  20  23
ATOM     23  C   UNL     1      49.391   3.943  18.615  0.00  0.00    +0.000 C 
ATOM     24  N   UNL     1      48.546   3.520  19.598  0.00  0.00    +0.000 N 
ATOM     25  O   UNL     1      50.602   3.975  18.804  0.00  0.00    +0.000 OA
ATOM     26  H   UNL     1      47.541   3.595  19.549  0.00  0.00    +0.000 HD
ATOM     27  H   UNL     1      48.968   3.289  20.489  0.00  0.00    +0.000 HD
ENDBRANCH  20  23
ENDBRANCH  16  17
ENDBRANCH   2  15
TORSDOF 6
ENDMDL
MODEL 5
REMARK VINA RESULT:    -6.170      6.487      8.245
REMARK INTER + INTRA:          -8.857
REMARK INTER:                  -8.168
REMARK INTRA:                  -0.689
REMARK UNBOUND:                -0.703
REMARK  Name = 
REMARK  7 active torsions:
REMARK  status: ('A' for Active; 'I' for Inactive)
REMARK    1  A    between atoms: C_1  and  C_2
REMARK    2  A    between atoms: C_2  and  C_3
REMARK    3  A    between atoms: C_2  and  C_14
REMARK    4  A    between atoms: C_4  and  C_5
REMARK    5  A    between atoms: C_8  and  C_9
REMARK    6  A    between atoms: C_18  and  S_19
REMARK    7  A    between atoms: S_19  and  N_20
REMARK                            x       y       z     vdW  Elec       q    Type
REMARK                         _______ _______ _______ _____ _____    ______ ____
ROOT
ATOM      1  C   UNL     1      47.209   2.633  17.820  0.00  0.00    +0.000 C 
ATOM      2  C   UNL     1      48.094   2.950  16.608  0.00  0.00    +0.000 C 
ENDROOT
BRANCH   2   3
ATOM      3  C   UNL     1      49.477   3.390  17.067  0.00  0.00    +0.000 A 
ATOM      4  C   UNL     1      49.721   4.730  17.407  0.00  0.00    +0.000 A 
ATOM      5  C   UNL     1      50.972   5.129  17.888  0.00  0.00    +0.000 A 
ATOM      6  C   UNL     1      51.989   4.191  18.063  0.00  0.00    +0.000 A 
ATOM      7  C   UNL     1      51.757   2.858  17.722  0.00  0.00    +0.000 A 
ATOM      8  C   UNL     1      50.523   2.462  17.197  0.00  0.00    +0.000 A 
BRANCH   7   9
ATOM      9  S   UNL     1      52.976   1.626  18.081  0.00  0.00    +0.000 S 
ATOM     10  O   UNL     1      53.786   1.431  16.899  0.00  0.00    +0.000 OA
ATOM     11  O   UNL     1      53.540   1.903  19.378  0.00  0.00    +0.000 OA
BRANCH   9  12
ATOM     12  N   UNL     1      52.020   0.273  18.243  0.00  0.00    +0.000 NA
ATOM     13  H   UNL     1      52.407  -0.601  17.906  0.00  0.00    +0.000 HD
ATOM     14  H   UNL     1      51.023   0.420  18.352  0.00  0.00    +0.000 HD
ENDBRANCH   9  12
ENDBRANCH   7   9
ENDBRANCH   2   3
BRANCH   2  15
ATOM     15  C   UNL     1      47.445   4.002  15.731  0.00  0.00    +0.000 C 
ATOM     16  C   UNL     1      47.173   3.872  14.420  0.00  0.00    +0.000 C 
BRANCH  16  17
ATOM     17  C   UNL     1      46.512   4.926  13.625  0.00  0.00    +0.000 A 
ATOM     18  C   UNL     1      47.111   6.171  13.395  0.00  0.00    +0.000 A 
ATOM     19  C   UNL     1      46.437   7.174  12.689  0.00  0.00    +0.000 A 
ATOM     20  C   UNL     1      45.164   6.936  12.167  0.00  0.00    +0.000 A 
ATOM     21  C   UNL     1      44.574   5.681  12.345  0.00  0.00    +0.000 A 
ATOM     22  C   UNL     1      45.247   4.682  13.067  0.00  0.00    +0.000 A 
BRANCH  20  23
ATOM     23  C   UNL     1      44.477   8.063  11.484  0.00  0.00    +0.000 C 
ATOM     24  N   UNL     1      43.203   7.862  11.040  0.00  0.00    +0.000 N 
ATOM     25  O   UNL     1      45.039   9.138  11.302  0.00  0.00    +0.000 OA
ATOM     26  H   UNL     1      42.740   6.966  11.042  0.00  0.00    +0.000 HD
ATOM     27  H   UNL     1      42.781   8.621  10.519  0.00  0.00    +0.000 HD
ENDBRANCH  20  23
ENDBRANCH  16  17
ENDBRANCH   2  15
TORSDOF 6
ENDMDL
MODEL 6
REMARK VINA RESULT:    -6.119      6.679      7.859
REMARK INTER + INTRA:          -8.790
REMARK INTER:                  -8.108
REMARK INTRA:                  -0.682
REMARK UNBOUND:                -0.703
REMARK  Name = 
REMARK  7 active torsions:
REMARK  status: ('A' for Active; 'I' for Inactive)
REMARK    1  A    between atoms: C_1  and  C_2
REMARK    2  A    between atoms: C_2  and  C_3
REMARK    3  A    between atoms: C_2  and  C_14
REMARK    4  A    between atoms: C_4  and  C_5
REMARK    5  A    between atoms: C_8  and  C_9
REMARK    6  A    between atoms: C_18  and  S_19
REMARK    7  A    between atoms: S_19  and  N_20
REMARK                            x       y       z     vdW  Elec       q    Type
REMARK                         _______ _______ _______ _____ _____    ______ ____
ROOT
ATOM      1  C   UNL     1      47.683   4.524  18.373  0.00  0.00    +0.000 C 
ATOM      2  C   UNL     1      48.343   3.529  17.411  0.00  0.00    +0.000 C 
ENDROOT
BRANCH   2   3
ATOM      3  C   UNL     1      49.853   3.718  17.412  0.00  0.00    +0.000 A 
ATOM      4  C   UNL     1      50.409   5.005  17.335  0.00  0.00    +0.000 A 
ATOM      5  C   UNL     1      51.794   5.190  17.398  0.00  0.00    +0.000 A 
ATOM      6  C   UNL     1      52.642   4.096  17.567  0.00  0.00    +0.000 A 
ATOM      7  C   UNL     1      52.098   2.813  17.639  0.00  0.00    +0.000 A 
ATOM      8  C   UNL     1      50.718   2.618  17.531  0.00  0.00    +0.000 A 
BRANCH   7   9
ATOM      9  S   UNL     1      53.138   1.429  18.010  0.00  0.00    +0.000 S 
ATOM     10  O   UNL     1      53.881   1.088  16.817  0.00  0.00    +0.000 OA
ATOM     11  O   UNL     1      53.770   1.659  19.285  0.00  0.00    +0.000 OA
BRANCH   9  12
ATOM     12  N   UNL     1      52.003   0.233  18.235  0.00  0.00    +0.000 NA
ATOM     13  H   UNL     1      52.033  -0.262  19.119  0.00  0.00    +0.000 HD
ATOM     14  H   UNL     1      51.572  -0.160  17.406  0.00  0.00    +0.000 HD
ENDBRANCH   9  12
ENDBRANCH   7   9
ENDBRANCH   2   3
BRANCH   2  15
ATOM     15  C   UNL     1      47.772   3.673  16.015  0.00  0.00    +0.000 C 
ATOM     16  C   UNL     1      47.456   4.835  15.412  0.00  0.00    +0.000 C 
BRANCH  16  17
ATOM     17  C   UNL     1      46.928   4.912  14.036  0.00  0.00    +0.000 A 
ATOM     18  C   UNL     1      47.165   6.017  13.208  0.00  0.00    +0.000 A 
ATOM     19  C   UNL     1      46.602   6.092  11.930  0.00  0.00    +0.000 A 
ATOM     20  C   UNL     1      45.819   5.043  11.440  0.00  0.00    +0.000 A 
ATOM     21  C   UNL     1      45.615   3.912  12.236  0.00  0.00    +0.000 A 
ATOM     22  C   UNL     1      46.169   3.847  13.525  0.00  0.00    +0.000 A 
BRANCH  20  23
ATOM     23  C   UNL     1      45.197   5.214  10.101  0.00  0.00    +0.000 C 
ATOM     24  N   UNL     1      43.839   5.138  10.012  0.00  0.00    +0.000 N 
ATOM     25  O   UNL     1      45.879   5.397   9.099  0.00  0.00    +0.000 OA
ATOM     26  H   UNL     1      43.238   4.860  10.773  0.00  0.00    +0.000 HD
ATOM     27  H   UNL     1      43.443   5.190   9.081  0.00  0.00    +0.000 HD
ENDBRANCH  20  23
ENDBRANCH  16  17
ENDBRANCH   2  15
TORSDOF 6
ENDMDL
MODEL 7
REMARK VINA RESULT:    -6.119      4.288      5.739
REMARK INTER + INTRA:          -8.789
REMARK INTER:                  -8.063
REMARK INTRA:                  -0.726
REMARK UNBOUND:                -0.703
REMARK  Name = 
REMARK  7 active torsions:
REMARK  status: ('A' for Active; 'I' for Inactive)
REMARK    1  A    between atoms: C_1  and  C_2
REMARK    2  A    between atoms: C_2  and  C_3
REMARK    3  A    between atoms: C_2  and  C_14
REMARK    4  A    between atoms: C_4  and  C_5
REMARK    5  A    between atoms: C_8  and  C_9
REMARK    6  A    between atoms: C_18  and  S_19
REMARK    7  A    between atoms: S_19  and  N_20
REMARK                            x       y       z     vdW  Elec       q    Type
REMARK                         _______ _______ _______ _____ _____    ______ ____
ROOT
ATOM      1  C   UNL     1      50.575   7.840  14.500  0.00  0.00    +0.000 C 
ATOM      2  C   UNL     1      49.076   8.123  14.652  0.00  0.00    +0.000 C 
ENDROOT
BRANCH   2   3
ATOM      3  C   UNL     1      48.713   8.268  16.123  0.00  0.00    +0.000 A 
ATOM      4  C   UNL     1      48.373   9.523  16.651  0.00  0.00    +0.000 A 
ATOM      5  C   UNL     1      47.979   9.653  17.987  0.00  0.00    +0.000 A 
ATOM      6  C   UNL     1      47.893   8.528  18.807  0.00  0.00    +0.000 A 
ATOM      7  C   UNL     1      48.236   7.277  18.291  0.00  0.00    +0.000 A 
ATOM      8  C   UNL     1      48.674   7.148  16.970  0.00  0.00    +0.000 A 
BRANCH   7   9
ATOM      9  S   UNL     1      47.985   5.819  19.263  0.00  0.00    +0.000 S 
ATOM     10  O   UNL     1      48.900   4.801  18.797  0.00  0.00    +0.000 OA
ATOM     11  O   UNL     1      47.883   6.203  20.648  0.00  0.00    +0.000 OA
BRANCH   9  12
ATOM     12  N   UNL     1      46.462   5.367  18.767  0.00  0.00    +0.000 NA
ATOM     13  H   UNL     1      45.752   6.090  18.761  0.00  0.00    +0.000 HD
ATOM     14  H   UNL     1      46.233   4.381  18.812  0.00  0.00    +0.000 HD
ENDBRANCH   9  12
ENDBRANCH   7   9
ENDBRANCH   2   3
BRANCH   2  15
ATOM     15  C   UNL     1      48.256   7.035  13.988  0.00  0.00    +0.000 C 
ATOM     16  C   UNL     1      47.256   7.231  13.109  0.00  0.00    +0.000 C 
BRANCH  16  17
ATOM     17  C   UNL     1      46.511   6.126  12.474  0.00  0.00    +0.000 A 
ATOM     18  C   UNL     1      46.031   6.210  11.161  0.00  0.00    +0.000 A 
ATOM     19  C   UNL     1      45.275   5.172  10.604  0.00  0.00    +0.000 A 
ATOM     20  C   UNL     1      45.017   4.013  11.340  0.00  0.00    +0.000 A 
ATOM     21  C   UNL     1      45.533   3.894  12.634  0.00  0.00    +0.000 A 
ATOM     22  C   UNL     1      46.277   4.944  13.195  0.00  0.00    +0.000 A 
BRANCH  20  23
ATOM     23  C   UNL     1      44.155   2.977  10.714  0.00  0.00    +0.000 C 
ATOM     24  N   UNL     1      43.358   2.229  11.530  0.00  0.00    +0.000 N 
ATOM     25  O   UNL     1      44.169   2.779   9.504  0.00  0.00    +0.000 OA
ATOM     26  H   UNL     1      43.401   2.254  12.538  0.00  0.00    +0.000 HD
ATOM     27  H   UNL     1      42.831   1.485  11.090  0.00  0.00    +0.000 HD
ENDBRANCH  20  23
ENDBRANCH  16  17
ENDBRANCH   2  15
TORSDOF 6
ENDMDL
MODEL 8
REMARK VINA RESULT:    -5.908      5.021      8.171
REMARK INTER + INTRA:          -8.511
REMARK INTER:                  -7.776
REMARK INTRA:                  -0.734
REMARK UNBOUND:                -0.703
REMARK  Name = 
REMARK  7 active torsions:
REMARK  status: ('A' for Active; 'I' for Inactive)
REMARK    1  A    between atoms: C_1  and  C_2
REMARK    2  A    between atoms: C_2  and  C_3
REMARK    3  A    between atoms: C_2  and  C_14
REMARK    4  A    between atoms: C_4  and  C_5
REMARK    5  A    between atoms: C_8  and  C_9
REMARK    6  A    between atoms: C_18  and  S_19
REMARK    7  A    between atoms: S_19  and  N_20
REMARK                            x       y       z     vdW  Elec       q    Type
REMARK                         _______ _______ _______ _____ _____    ______ ____
ROOT
ATOM      1  C   UNL     1      45.947   8.533  12.938  0.00  0.00    +0.000 C 
ATOM      2  C   UNL     1      46.796   7.644  12.021  0.00  0.00    +0.000 C 
ENDROOT
BRANCH   2   3
ATOM      3  C   UNL     1      46.439   6.179  12.231  0.00  0.00    +0.000 A 
ATOM      4  C   UNL     1      46.822   5.515  13.407  0.00  0.00    +0.000 A 
ATOM      5  C   UNL     1      46.443   4.188  13.634  0.00  0.00    +0.000 A 
ATOM      6  C   UNL     1      45.655   3.513  12.702  0.00  0.00    +0.000 A 
ATOM      7  C   UNL     1      45.275   4.164  11.528  0.00  0.00    +0.000 A 
ATOM      8  C   UNL     1      45.688   5.475  11.275  0.00  0.00    +0.000 A 
BRANCH   7   9
ATOM      9  S   UNL     1      44.147   3.384  10.408  0.00  0.00    +0.000 S 
ATOM     10  O   UNL     1      44.906   2.530   9.522  0.00  0.00    +0.000 OA
ATOM     11  O   UNL     1      43.007   2.917  11.156  0.00  0.00    +0.000 OA
BRANCH   9  12
ATOM     12  N   UNL     1      43.641   4.690   9.509  0.00  0.00    +0.000 NA
ATOM     13  H   UNL     1      43.004   5.335   9.961  0.00  0.00    +0.000 HD
ATOM     14  H   UNL     1      43.715   4.616   8.501  0.00  0.00    +0.000 HD
ENDBRANCH   9  12
ENDBRANCH   7   9
ENDBRANCH   2   3
BRANCH   2  15
ATOM     15  C   UNL     1      48.273   7.889  12.253  0.00  0.00    +0.000 C 
ATOM     16  C   UNL     1      49.250   7.717  11.344  0.00  0.00    +0.000 C 
BRANCH  16  17
ATOM     17  C   UNL     1      50.671   8.000  11.624  0.00  0.00    +0.000 A 
ATOM     18  C   UNL     1      51.100   8.512  12.856  0.00  0.00    +0.000 A 
ATOM     19  C   UNL     1      52.445   8.828  13.074  0.00  0.00    +0.000 A 
ATOM     20  C   UNL     1      53.395   8.603  12.075  0.00  0.00    +0.000 A 
ATOM     21  C   UNL     1      52.990   8.046  10.858  0.00  0.00    +0.000 A 
ATOM     22  C   UNL     1      51.636   7.744  10.637  0.00  0.00    +0.000 A 
BRANCH  20  23
ATOM     23  C   UNL     1      54.795   9.021  12.347  0.00  0.00    +0.000 C 
ATOM     24  N   UNL     1      55.099  10.346  12.245  0.00  0.00    +0.000 N 
ATOM     25  O   UNL     1      55.662   8.202  12.635  0.00  0.00    +0.000 OA
ATOM     26  H   UNL     1      54.465  11.044  11.886  0.00  0.00    +0.000 HD
ATOM     27  H   UNL     1      56.072  10.598  12.369  0.00  0.00    +0.000 HD
ENDBRANCH  20  23
ENDBRANCH  16  17
ENDBRANCH   2  15
TORSDOF 6
ENDMDL
MODEL 9
REMARK VINA RESULT:    -5.778      5.370      7.750
REMARK INTER + INTRA:          -8.339
REMARK INTER:                  -7.629
REMARK INTRA:                  -0.711
REMARK UNBOUND:                -0.703
REMARK  Name = 
REMARK  7 active torsions:
REMARK  status: ('A' for Active; 'I' for Inactive)
REMARK    1  A    between atoms: C_1  and  C_2
REMARK    2  A    between atoms: C_2  and  C_3
REMARK    3  A    between atoms: C_2  and  C_14
REMARK    4  A    between atoms: C_4  and  C_5
REMARK    5  A    between atoms: C_8  and  C_9
REMARK    6  A    between atoms: C_18  and  S_19
REMARK    7  A    between atoms: S_19  and  N_20
REMARK                            x       y       z     vdW  Elec       q    Type
REMARK                         _______ _______ _______ _____ _____    ______ ____
ROOT
ATOM      1  C   UNL     1      46.871   8.423  13.427  0.00  0.00    +0.000 C 
ATOM      2  C   UNL     1      46.906   7.601  12.133  0.00  0.00    +0.000 C 
ENDROOT
BRANCH   2   3
ATOM      3  C   UNL     1      46.580   6.144  12.425  0.00  0.00    +0.000 A 
ATOM      4  C   UNL     1      47.268   5.448  13.431  0.00  0.00    +0.000 A 
ATOM      5  C   UNL     1      46.931   4.128  13.747  0.00  0.00    +0.000 A 
ATOM      6  C   UNL     1      45.883   3.493  13.082  0.00  0.00    +0.000 A 
ATOM      7  C   UNL     1      45.197   4.175  12.076  0.00  0.00    +0.000 A 
ATOM      8  C   UNL     1      45.560   5.478  11.725  0.00  0.00    +0.000 A 
BRANCH   7   9
ATOM      9  S   UNL     1      43.767   3.447  11.328  0.00  0.00    +0.000 S 
ATOM     10  O   UNL     1      42.669   4.381  11.446  0.00  0.00    +0.000 OA
ATOM     11  O   UNL     1      44.157   2.853  10.074  0.00  0.00    +0.000 OA
BRANCH   9  12
ATOM     12  N   UNL     1      43.459   2.199  12.386  0.00  0.00    +0.000 NA
ATOM     13  H   UNL     1      42.983   2.439  13.247  0.00  0.00    +0.000 HD
ATOM     14  H   UNL     1      44.022   1.361  12.291  0.00  0.00    +0.000 HD
ENDBRANCH   9  12
ENDBRANCH   7   9
ENDBRANCH   2   3
BRANCH   2  15
ATOM     15  C   UNL     1      48.251   7.737  11.448  0.00  0.00    +0.000 C 
ATOM     16  C   UNL     1      49.304   8.433  11.916  0.00  0.00    +0.000 C 
BRANCH  16  17
ATOM     17  C   UNL     1      50.600   8.505  11.215  0.00  0.00    +0.000 A 
ATOM     18  C   UNL     1      51.254   7.360  10.739  0.00  0.00    +0.000 A 
ATOM     19  C   UNL     1      52.510   7.450  10.131  0.00  0.00    +0.000 A 
ATOM     20  C   UNL     1      53.122   8.694   9.953  0.00  0.00    +0.000 A 
ATOM     21  C   UNL     1      52.459   9.849  10.378  0.00  0.00    +0.000 A 
ATOM     22  C   UNL     1      51.205   9.754  11.002  0.00  0.00    +0.000 A 
BRANCH  20  23
ATOM     23  C   UNL     1      54.484   8.714   9.360  0.00  0.00    +0.000 C 
ATOM     24  N   UNL     1      55.168   7.536   9.287  0.00  0.00    +0.000 N 
ATOM     25  O   UNL     1      54.994   9.757   8.964  0.00  0.00    +0.000 OA
ATOM     26  H   UNL     1      54.857   6.676   9.713  0.00  0.00    +0.000 HD
ATOM     27  H   UNL     1      56.119   7.586   8.942  0.00  0.00    +0.000 HD
ENDBRANCH  20  23
ENDBRANCH  16  17
ENDBRANCH   2  15
TORSDOF 6
ENDMDL
