MODEL 1
REMARK VINA RESULT:    -7.431      0.000      0.000
REMARK INTER + INTRA:          -9.939
REMARK INTER:                  -9.386
REMARK INTRA:                  -0.553
REMARK UNBOUND:                -0.553
REMARK  Name = 
REMARK  5 active torsions:
REMARK  status: ('A' for Active; 'I' for Inactive)
REMARK    1  A    between atoms: N_1  and  C_2
REMARK    2  A    between atoms: C_2  and  C_3
REMARK    3  A    between atoms: C_3  and  C_4
REMARK    4  A    between atoms: C_7  and  C_8
REMARK    5  A    between atoms: C_8  and  N_9
REMARK                            x       y       z     vdW  Elec       q    Type
REMARK                         _______ _______ _______ _____ _____    ______ ____
ROOT
ATOM      1  C   UNL     1      45.889   3.469   7.673  0.00  0.00    +0.000 A 
ATOM      2  C   UNL     1      45.093   2.635   8.451  0.00  0.00    +0.000 A 
ATOM      3  C   UNL     1      44.587   3.118   9.656  0.00  0.00    +0.000 A 
ATOM      4  C   UNL     1      44.887   4.419  10.065  0.00  0.00    +0.000 A 
ATOM      5  C   UNL     1      45.689   5.176   9.221  0.00  0.00    +0.000 A 
ATOM      6  N   UNL     1      46.191   4.735   8.045  0.00  0.00    +0.000 NA
ENDROOT
BRANCH   1   7
ATOM      7  C   UNL     1      46.495   2.967   6.387  0.00  0.00    +0.000 C 
BRANCH   7   8
ATOM      8  C   UNL     1      47.498   1.844   6.661  0.00  0.00    +0.000 C 
BRANCH   8   9
ATOM      9  N   UNL     1      48.571   1.836   5.664  0.00  0.00    +0.000 NA
ATOM     10  H   UNL     1      48.548   2.716   5.148  0.00  0.00    +0.000 HD
ATOM     11  H   UNL     1      48.385   1.106   4.977  0.00  0.00    +0.000 HD
ENDBRANCH   8   9
ENDBRANCH   7   8
ENDBRANCH   1   7
BRANCH   4  12
ATOM     12  C   UNL     1      44.376   4.985  11.357  0.00  0.00    +0.000 C 
BRANCH  12  13
ATOM     13  N   UNL     1      45.396   5.011  12.401  0.00  0.00    +0.000 N 
ATOM     14  C   UNL     1      45.858   3.894  13.053  0.00  0.00    +0.000 A 
ATOM     15  C   UNL     1      46.914   4.269  13.850  0.00  0.00    +0.000 A 
ATOM     16  C   UNL     1      47.114   5.664  13.676  0.00  0.00    +0.000 A 
ATOM     17  C   UNL     1      48.051   6.581  14.192  0.00  0.00    +0.000 A 
ATOM     18  C   UNL     1      47.981   7.919  13.801  0.00  0.00    +0.000 A 
ATOM     19 CL   UNL     1      49.144   9.040  14.398  0.00  0.00    +0.000 Cl
ATOM     20  C   UNL     1      46.994   8.359  12.924  0.00  0.00    +0.000 A 
ATOM     21  C   UNL     1      46.054   7.466  12.400  0.00  0.00    +0.000 A 
ATOM     22  C   UNL     1      46.138   6.116  12.780  0.00  0.00    +0.000 A 
ENDBRANCH  12  13
ENDBRANCH   4  12
TORSDOF 5
ENDMDL
MODEL 2
REMARK VINA RESULT:    -7.205      1.390      1.773
REMARK INTER + INTRA:          -9.654
REMARK INTER:                  -9.308
REMARK INTRA:                  -0.346
REMARK UNBOUND:                -0.553
REMARK  Name = 
REMARK  5 active torsions:
REMARK  status: ('A' for Active; 'I' for Inactive)
REMARK    1  A    between atoms: N_1  and  C_2
REMARK    2  A    between atoms: C_2  and  C_3
REMARK    3  A    between atoms: C_3  and  C_4
REMARK    4  A    between atoms: C_7  and  C_8
REMARK    5  A    between atoms: C_8  and  N_9
REMARK                            x       y       z     vdW  Elec       q    Type
REMARK                         _______ _______ _______ _____ _____    ______ ____
ROOT
ATOM      1  C   UNL     1      45.825   3.189   7.697  0.00  0.00    +0.000 A 
ATOM      2  C   UNL     1      45.209   2.216   8.477  0.00  0.00    +0.000 A 
ATOM      3  C   UNL     1      44.608   2.595   9.676  0.00  0.00    +0.000 A 
ATOM      4  C   UNL     1      44.636   3.932  10.077  0.00  0.00    +0.000 A 
ATOM      5  C   UNL     1      45.274   4.831   9.231  0.00  0.00    +0.000 A 
ATOM      6  N   UNL     1      45.861   4.493   8.060  0.00  0.00    +0.000 NA
ENDROOT
BRANCH   1   7
ATOM      7  C   UNL     1      46.528   2.812   6.417  0.00  0.00    +0.000 C 
BRANCH   7   8
ATOM      8  C   UNL     1      47.649   1.806   6.690  0.00  0.00    +0.000 C 
BRANCH   8   9
ATOM      9  N   UNL     1      48.602   1.760   5.578  0.00  0.00    +0.000 NA
ATOM     10  H   UNL     1      48.834   0.786   5.384  0.00  0.00    +0.000 HD
ATOM     11  H   UNL     1      49.475   2.201   5.867  0.00  0.00    +0.000 HD
ENDBRANCH   8   9
ENDBRANCH   7   8
ENDBRANCH   1   7
BRANCH   4  12
ATOM     12  C   UNL     1      44.012   4.391  11.362  0.00  0.00    +0.000 C 
BRANCH  12  13
ATOM     13  N   UNL     1      44.892   5.265  12.132  0.00  0.00    +0.000 N 
ATOM     14  C   UNL     1      45.880   4.814  12.973  0.00  0.00    +0.000 A 
ATOM     15  C   UNL     1      46.605   5.900  13.404  0.00  0.00    +0.000 A 
ATOM     16  C   UNL     1      46.049   7.059  12.800  0.00  0.00    +0.000 A 
ATOM     17  C   UNL     1      46.386   8.426  12.835  0.00  0.00    +0.000 A 
ATOM     18  C   UNL     1      45.625   9.335  12.096  0.00  0.00    +0.000 A 
ATOM     19 CL   UNL     1      46.051  11.003  12.105  0.00  0.00    +0.000 Cl
ATOM     20  C   UNL     1      44.535   8.911  11.343  0.00  0.00    +0.000 A 
ATOM     21  C   UNL     1      44.183   7.558  11.294  0.00  0.00    +0.000 A 
ATOM     22  C   UNL     1      44.962   6.643  12.023  0.00  0.00    +0.000 A 
ENDBRANCH  12  13
ENDBRANCH   4  12
TORSDOF 5
ENDMDL
MODEL 3
REMARK VINA RESULT:    -7.033      1.268      2.314
REMARK INTER + INTRA:          -9.436
REMARK INTER:                  -8.875
REMARK INTRA:                  -0.561
REMARK UNBOUND:                -0.553
REMARK  Name = 
REMARK  5 active torsions:
REMARK  status: ('A' for Active; 'I' for Inactive)
REMARK    1  A    between atoms: N_1  and  C_2
REMARK    2  A    between atoms: C_2  and  C_3
REMARK    3  A    between atoms: C_3  and  C_4
REMARK    4  A    between atoms: C_7  and  C_8
REMARK    5  A    between atoms: C_8  and  N_9
REMARK                            x       y       z     vdW  Elec       q    Type
REMARK                         _______ _______ _______ _____ _____    ______ ____
ROOT
ATOM      1  C   UNL     1      45.906   2.571   8.165  0.00  0.00    +0.000 A 
ATOM      2  C   UNL     1      46.007   3.951   8.022  0.00  0.00    +0.000 A 
ATOM      3  C   UNL     1      45.318   4.773   8.912  0.00  0.00    +0.000 A 
ATOM      4  C   UNL     1      44.539   4.206   9.922  0.00  0.00    +0.000 A 
ATOM      5  C   UNL     1      44.500   2.818   9.985  0.00  0.00    +0.000 A 
ATOM      6  N   UNL     1      45.161   1.996   9.139  0.00  0.00    +0.000 NA
ENDROOT
BRANCH   1   7
ATOM      7  C   UNL     1      46.597   1.649   7.193  0.00  0.00    +0.000 C 
BRANCH   7   8
ATOM      8  C   UNL     1      48.006   2.152   6.874  0.00  0.00    +0.000 C 
BRANCH   8   9
ATOM      9  N   UNL     1      48.401   1.796   5.509  0.00  0.00    +0.000 NA
ATOM     10  H   UNL     1      47.560   1.672   4.945  0.00  0.00    +0.000 HD
ATOM     11  H   UNL     1      48.864   0.888   5.520  0.00  0.00    +0.000 HD
ENDBRANCH   8   9
ENDBRANCH   7   8
ENDBRANCH   1   7
BRANCH   4  12
ATOM     12  C   UNL     1      43.770   5.044  10.901  0.00  0.00    +0.000 C 
BRANCH  12  13
ATOM     13  N   UNL     1      44.537   6.190  11.382  0.00  0.00    +0.000 N 
ATOM     14  C   UNL     1      44.189   7.499  11.155  0.00  0.00    +0.000 A 
ATOM     15  C   UNL     1      45.040   8.301  11.878  0.00  0.00    +0.000 A 
ATOM     16  C   UNL     1      45.937   7.455  12.583  0.00  0.00    +0.000 A 
ATOM     17  C   UNL     1      46.984   7.697  13.494  0.00  0.00    +0.000 A 
ATOM     18  C   UNL     1      47.683   6.615  14.032  0.00  0.00    +0.000 A 
ATOM     19 CL   UNL     1      48.940   6.899  15.174  0.00  0.00    +0.000 Cl
ATOM     20  C   UNL     1      47.371   5.308  13.670  0.00  0.00    +0.000 A 
ATOM     21  C   UNL     1      46.336   5.045  12.767  0.00  0.00    +0.000 A 
ATOM     22  C   UNL     1      45.621   6.135  12.241  0.00  0.00    +0.000 A 
ENDBRANCH  12  13
ENDBRANCH   4  12
TORSDOF 5
ENDMDL
MODEL 4
REMARK VINA RESULT:    -6.565      3.228      6.717
REMARK INTER + INTRA:          -8.845
REMARK INTER:                  -8.117
REMARK INTRA:                  -0.728
REMARK UNBOUND:                -0.553
REMARK  Name = 
REMARK  5 active torsions:
REMARK  status: ('A' for Active; 'I' for Inactive)
REMARK    1  A    between atoms: N_1  and  C_2
REMARK    2  A    between atoms: C_2  and  C_3
REMARK    3  A    between atoms: C_3  and  C_4
REMARK    4  A    between atoms: C_7  and  C_8
REMARK    5  A    between atoms: C_8  and  N_9
REMARK                            x       y       z     vdW  Elec       q    Type
REMARK                         _______ _______ _______ _____ _____    ______ ____
ROOT
ATOM      1  C   UNL     1      48.039   6.797  14.066  0.00  0.00    +0.000 A 
ATOM      2  C   UNL     1      47.365   7.812  13.394  0.00  0.00    +0.000 A 
ATOM      3  C   UNL     1      46.127   7.534  12.819  0.00  0.00    +0.000 A 
ATOM      4  C   UNL     1      45.586   6.250  12.919  0.00  0.00    +0.000 A 
ATOM      5  C   UNL     1      46.333   5.303  13.609  0.00  0.00    +0.000 A 
ATOM      6  N   UNL     1      47.534   5.546  14.181  0.00  0.00    +0.000 NA
ENDROOT
BRANCH   1   7
ATOM      7  C   UNL     1      49.403   7.046  14.659  0.00  0.00    +0.000 C 
BRANCH   7   8
ATOM      8  C   UNL     1      49.387   6.818  16.172  0.00  0.00    +0.000 C 
BRANCH   8   9
ATOM      9  N   UNL     1      49.817   5.459  16.508  0.00  0.00    +0.000 NA
ATOM     10  H   UNL     1      49.344   5.166  17.363  0.00  0.00    +0.000 HD
ATOM     11  H   UNL     1      50.812   5.467  16.730  0.00  0.00    +0.000 HD
ENDBRANCH   8   9
ENDBRANCH   7   8
ENDBRANCH   1   7
BRANCH   4  12
ATOM     12  C   UNL     1      44.261   5.895  12.311  0.00  0.00    +0.000 C 
BRANCH  12  13
ATOM     13  N   UNL     1      44.300   4.631  11.582  0.00  0.00    +0.000 N 
ATOM     14  C   UNL     1      43.613   3.503  11.961  0.00  0.00    +0.000 A 
ATOM     15  C   UNL     1      43.753   2.562  10.968  0.00  0.00    +0.000 A 
ATOM     16  C   UNL     1      44.547   3.134   9.938  0.00  0.00    +0.000 A 
ATOM     17  C   UNL     1      44.985   2.670   8.682  0.00  0.00    +0.000 A 
ATOM     18  C   UNL     1      45.763   3.508   7.881  0.00  0.00    +0.000 A 
ATOM     19 CL   UNL     1      46.273   2.964   6.329  0.00  0.00    +0.000 Cl
ATOM     20  C   UNL     1      46.121   4.782   8.311  0.00  0.00    +0.000 A 
ATOM     21  C   UNL     1      45.697   5.262   9.554  0.00  0.00    +0.000 A 
ATOM     22  C   UNL     1      44.898   4.424  10.351  0.00  0.00    +0.000 A 
ENDBRANCH  12  13
ENDBRANCH   4  12
TORSDOF 5
ENDMDL
MODEL 5
REMARK VINA RESULT:    -5.952      1.995      3.239
REMARK INTER + INTRA:          -8.072
REMARK INTER:                  -7.582
REMARK INTRA:                  -0.490
REMARK UNBOUND:                -0.553
REMARK  Name = 
REMARK  5 active torsions:
REMARK  status: ('A' for Active; 'I' for Inactive)
REMARK    1  A    between atoms: N_1  and  C_2
REMARK    2  A    between atoms: C_2  and  C_3
REMARK    3  A    between atoms: C_3  and  C_4
REMARK    4  A    between atoms: C_7  and  C_8
REMARK    5  A    between atoms: C_8  and  N_9
REMARK                            x       y       z     vdW  Elec       q    Type
REMARK                         _______ _______ _______ _____ _____    ______ ____
ROOT
ATOM      1  C   UNL     1      45.019   3.289   9.896  0.00  0.00    +0.000 A 
ATOM      2  C   UNL     1      45.176   4.622   9.533  0.00  0.00    +0.000 A 
ATOM      3  C   UNL     1      45.323   5.581  10.533  0.00  0.00    +0.000 A 
ATOM      4  C   UNL     1      45.306   5.196  11.874  0.00  0.00    +0.000 A 
ATOM      5  C   UNL     1      45.145   3.842  12.140  0.00  0.00    +0.000 A 
ATOM      6  N   UNL     1      45.004   2.889  11.190  0.00  0.00    +0.000 NA
ENDROOT
BRANCH   1   7
ATOM      7  C   UNL     1      44.809   2.229   8.846  0.00  0.00    +0.000 C 
BRANCH   7   8
ATOM      8  C   UNL     1      46.106   1.956   8.081  0.00  0.00    +0.000 C 
BRANCH   8   9
ATOM      9  N   UNL     1      46.425   0.527   8.069  0.00  0.00    +0.000 NA
ATOM     10  H   UNL     1      46.888   0.285   8.945  0.00  0.00    +0.000 HD
ATOM     11  H   UNL     1      47.107   0.341   7.334  0.00  0.00    +0.000 HD
ENDBRANCH   8   9
ENDBRANCH   7   8
ENDBRANCH   1   7
BRANCH   4  12
ATOM     12  C   UNL     1      45.452   6.189  12.990  0.00  0.00    +0.000 C 
BRANCH  12  13
ATOM     13  N   UNL     1      46.021   7.456  12.542  0.00  0.00    +0.000 N 
ATOM     14  C   UNL     1      45.301   8.618  12.406  0.00  0.00    +0.000 A 
ATOM     15  C   UNL     1      46.179   9.637  12.121  0.00  0.00    +0.000 A 
ATOM     16  C   UNL     1      47.487   9.084  12.090  0.00  0.00    +0.000 A 
ATOM     17  C   UNL     1      48.767   9.636  11.888  0.00  0.00    +0.000 A 
ATOM     18  C   UNL     1      49.884   8.799  11.933  0.00  0.00    +0.000 A 
ATOM     19 CL   UNL     1      51.456   9.470  11.723  0.00  0.00    +0.000 Cl
ATOM     20  C   UNL     1      49.748   7.433  12.159  0.00  0.00    +0.000 A 
ATOM     21  C   UNL     1      48.486   6.864  12.361  0.00  0.00    +0.000 A 
ATOM     22  C   UNL     1      47.365   7.711  12.334  0.00  0.00    +0.000 A 
ENDBRANCH  12  13
ENDBRANCH   4  12
TORSDOF 5
ENDMDL
MODEL 6
REMARK VINA RESULT:    -5.453      3.911      5.691
REMARK INTER + INTRA:          -7.441
REMARK INTER:                  -6.649
REMARK INTRA:                  -0.793
REMARK UNBOUND:                -0.553
REMARK  Name = 
REMARK  5 active torsions:
REMARK  status: ('A' for Active; 'I' for Inactive)
REMARK    1  A    between atoms: N_1  and  C_2
REMARK    2  A    between atoms: C_2  and  C_3
REMARK    3  A    between atoms: C_3  and  C_4
REMARK    4  A    between atoms: C_7  and  C_8
REMARK    5  A    between atoms: C_8  and  N_9
REMARK                            x       y       z     vdW  Elec       q    Type
REMARK                         _______ _______ _______ _____ _____    ______ ____
ROOT
ATOM      1  C   UNL     1      44.656   5.127  12.870  0.00  0.00    +0.000 A 
ATOM      2  C   UNL     1      44.901   6.473  12.619  0.00  0.00    +0.000 A 
ATOM      3  C   UNL     1      46.168   6.989  12.887  0.00  0.00    +0.000 A 
ATOM      4  C   UNL     1      47.163   6.157  13.403  0.00  0.00    +0.000 A 
ATOM      5  C   UNL     1      46.824   4.828  13.621  0.00  0.00    +0.000 A 
ATOM      6  N   UNL     1      45.605   4.299  13.366  0.00  0.00    +0.000 NA
ENDROOT
BRANCH   1   7
ATOM      7  C   UNL     1      43.285   4.544  12.640  0.00  0.00    +0.000 C 
BRANCH   7   8
ATOM      8  C   UNL     1      43.352   3.371  11.658  0.00  0.00    +0.000 C 
BRANCH   8   9
ATOM      9  N   UNL     1      43.515   2.098  12.364  0.00  0.00    +0.000 NA
ATOM     10  H   UNL     1      44.511   1.913  12.484  0.00  0.00    +0.000 HD
ATOM     11  H   UNL     1      43.162   1.342  11.777  0.00  0.00    +0.000 HD
ENDBRANCH   8   9
ENDBRANCH   7   8
ENDBRANCH   1   7
BRANCH   4  12
ATOM     12  C   UNL     1      48.540   6.663  13.717  0.00  0.00    +0.000 C 
BRANCH  12  13
ATOM     13  N   UNL     1      48.599   7.377  14.990  0.00  0.00    +0.000 N 
ATOM     14  C   UNL     1      48.467   8.738  15.115  0.00  0.00    +0.000 A 
ATOM     15  C   UNL     1      48.416   9.043  16.455  0.00  0.00    +0.000 A 
ATOM     16  C   UNL     1      48.511   7.825  17.180  0.00  0.00    +0.000 A 
ATOM     17  C   UNL     1      48.480   7.509  18.552  0.00  0.00    +0.000 A 
ATOM     18  C   UNL     1      48.588   6.174  18.946  0.00  0.00    +0.000 A 
ATOM     19 CL   UNL     1      48.514   5.775  20.619  0.00  0.00    +0.000 Cl
ATOM     20  C   UNL     1      48.742   5.159  18.007  0.00  0.00    +0.000 A 
ATOM     21  C   UNL     1      48.777   5.451  16.639  0.00  0.00    +0.000 A 
ATOM     22  C   UNL     1      48.648   6.793  16.244  0.00  0.00    +0.000 A 
ENDBRANCH  12  13
ENDBRANCH   4  12
TORSDOF 5
ENDMDL
MODEL 7
REMARK VINA RESULT:    -5.414      4.669      7.801
REMARK INTER + INTRA:          -7.391
REMARK INTER:                  -6.998
REMARK INTRA:                  -0.393
REMARK UNBOUND:                -0.553
REMARK  Name = 
REMARK  5 active torsions:
REMARK  status: ('A' for Active; 'I' for Inactive)
REMARK    1  A    between atoms: N_1  and  C_2
REMARK    2  A    between atoms: C_2  and  C_3
REMARK    3  A    between atoms: C_3  and  C_4
REMARK    4  A    between atoms: C_7  and  C_8
REMARK    5  A    between atoms: C_8  and  N_9
REMARK                            x       y       z     vdW  Elec       q    Type
REMARK                         _______ _______ _______ _____ _____    ______ ____
ROOT
ATOM      1  C   UNL     1      50.934   2.704  17.418  0.00  0.00    +0.000 A 
ATOM      2  C   UNL     1      50.505   3.963  17.826  0.00  0.00    +0.000 A 
ATOM      3  C   UNL     1      49.247   4.410  17.426  0.00  0.00    +0.000 A 
ATOM      4  C   UNL     1      48.443   3.598  16.624  0.00  0.00    +0.000 A 
ATOM      5  C   UNL     1      48.956   2.357  16.268  0.00  0.00    +0.000 A 
ATOM      6  N   UNL     1      50.171   1.896  16.645  0.00  0.00    +0.000 NA
ENDROOT
BRANCH   1   7
ATOM      7  C   UNL     1      52.307   2.205  17.789  0.00  0.00    +0.000 C 
BRANCH   7   8
ATOM      8  C   UNL     1      52.465   0.727  17.427  0.00  0.00    +0.000 C 
BRANCH   8   9
ATOM      9  N   UNL     1      51.818  -0.134  18.421  0.00  0.00    +0.000 NA
ATOM     10  H   UNL     1      52.478  -0.854  18.713  0.00  0.00    +0.000 HD
ATOM     11  H   UNL     1      51.044  -0.630  17.980  0.00  0.00    +0.000 HD
ENDBRANCH   8   9
ENDBRANCH   7   8
ENDBRANCH   1   7
BRANCH   4  12
ATOM     12  C   UNL     1      47.085   4.034  16.159  0.00  0.00    +0.000 C 
BRANCH  12  13
ATOM     13  N   UNL     1      47.149   4.972  15.042  0.00  0.00    +0.000 N 
ATOM     14  C   UNL     1      48.027   6.026  14.972  0.00  0.00    +0.000 A 
ATOM     15  C   UNL     1      47.916   6.594  13.725  0.00  0.00    +0.000 A 
ATOM     16  C   UNL     1      46.942   5.858  12.999  0.00  0.00    +0.000 A 
ATOM     17  C   UNL     1      46.441   5.948  11.685  0.00  0.00    +0.000 A 
ATOM     18  C   UNL     1      45.468   5.038  11.264  0.00  0.00    +0.000 A 
ATOM     19 CL   UNL     1      44.875   5.117   9.649  0.00  0.00    +0.000 Cl
ATOM     20  C   UNL     1      44.980   4.061  12.125  0.00  0.00    +0.000 A 
ATOM     21  C   UNL     1      45.464   3.955  13.434  0.00  0.00    +0.000 A 
ATOM     22  C   UNL     1      46.456   4.858  13.849  0.00  0.00    +0.000 A 
ENDBRANCH  12  13
ENDBRANCH   4  12
TORSDOF 5
ENDMDL
MODEL 8
REMARK VINA RESULT:    -5.326      2.673      4.774
REMARK INTER + INTRA:          -7.280
REMARK INTER:                  -6.424
REMARK INTRA:                  -0.856
REMARK UNBOUND:                -0.553
REMARK  Name = 
REMARK  5 active torsions:
REMARK  status: ('A' for Active; 'I' for Inactive)
REMARK    1  A    between atoms: N_1  and  C_2
REMARK    2  A    between atoms: C_2  and  C_3
REMARK    3  A    between atoms: C_3  and  C_4
REMARK    4  A    between atoms: C_7  and  C_8
REMARK    5  A    between atoms: C_8  and  N_9
REMARK                            x       y       z     vdW  Elec       q    Type
REMARK                         _______ _______ _______ _____ _____    ______ ____
ROOT
ATOM      1  C   UNL     1      44.970   5.003  11.231  0.00  0.00    +0.000 A 
ATOM      2  C   UNL     1      45.880   4.933  12.280  0.00  0.00    +0.000 A 
ATOM      3  C   UNL     1      46.234   6.106  12.944  0.00  0.00    +0.000 A 
ATOM      4  C   UNL     1      45.679   7.325  12.548  0.00  0.00    +0.000 A 
ATOM      5  C   UNL     1      44.779   7.294  11.490  0.00  0.00    +0.000 A 
ATOM      6  N   UNL     1      44.414   6.171  10.830  0.00  0.00    +0.000 NA
ENDROOT
BRANCH   1   7
ATOM      7  C   UNL     1      44.599   3.763  10.456  0.00  0.00    +0.000 C 
BRANCH   7   8
ATOM      8  C   UNL     1      44.481   4.071   8.962  0.00  0.00    +0.000 C 
BRANCH   8   9
ATOM      9  N   UNL     1      45.597   4.900   8.501  0.00  0.00    +0.000 NA
ATOM     10  H   UNL     1      46.468   4.511   8.863  0.00  0.00    +0.000 HD
ATOM     11  H   UNL     1      45.517   5.830   8.914  0.00  0.00    +0.000 HD
ENDBRANCH   8   9
ENDBRANCH   7   8
ENDBRANCH   1   7
BRANCH   4  12
ATOM     12  C   UNL     1      46.032   8.617  13.223  0.00  0.00    +0.000 C 
BRANCH  12  13
ATOM     13  N   UNL     1      46.759   9.529  12.344  0.00  0.00    +0.000 N 
ATOM     14  C   UNL     1      46.243  10.706  11.861  0.00  0.00    +0.000 A 
ATOM     15  C   UNL     1      47.247  11.377  11.203  0.00  0.00    +0.000 A 
ATOM     16  C   UNL     1      48.425  10.589  11.294  0.00  0.00    +0.000 A 
ATOM     17  C   UNL     1      49.750  10.772  10.852  0.00  0.00    +0.000 A 
ATOM     18  C   UNL     1      50.700   9.785  11.120  0.00  0.00    +0.000 A 
ATOM     19 CL   UNL     1      52.330  10.017  10.615  0.00  0.00    +0.000 Cl
ATOM     20  C   UNL     1      50.354   8.622  11.801  0.00  0.00    +0.000 A 
ATOM     21  C   UNL     1      49.044   8.420  12.248  0.00  0.00    +0.000 A 
ATOM     22  C   UNL     1      48.094   9.423  11.994  0.00  0.00    +0.000 A 
ENDBRANCH  12  13
ENDBRANCH   4  12
TORSDOF 5
ENDMDL
MODEL 9
REMARK VINA RESULT:    -5.253      4.310      8.427
REMARK INTER + INTRA:          -7.188
REMARK INTER:                  -6.407
REMARK INTRA:                  -0.782
REMARK UNBOUND:                -0.553
REMARK  Name = 
REMARK  5 active torsions:
REMARK  status: ('A' for Active; 'I' for Inactive)
REMARK    1  A    between atoms: N_1  and  C_2
REMARK    2  A    between atoms: C_2  and  C_3
REMARK    3  A    between atoms: C_3  and  C_4
REMARK    4  A    between atoms: C_7  and  C_8
REMARK    5  A    between atoms: C_8  and  N_9
REMARK                            x       y       z     vdW  Elec       q    Type
REMARK                         _______ _______ _______ _____ _____    ______ ____
ROOT
ATOM      1  C   UNL     1      48.511   6.331  18.605  0.00  0.00    +0.000 A 
ATOM      2  C   UNL     1      48.637   7.635  18.139  0.00  0.00    +0.000 A 
ATOM      3  C   UNL     1      48.715   7.855  16.765  0.00  0.00    +0.000 A 
ATOM      4  C   UNL     1      48.671   6.773  15.883  0.00  0.00    +0.000 A 
ATOM      5  C   UNL     1      48.543   5.508  16.443  0.00  0.00    +0.000 A 
ATOM      6  N   UNL     1      48.461   5.265  17.772  0.00  0.00    +0.000 NA
ENDROOT
BRANCH   1   7
ATOM      7  C   UNL     1      48.472   6.048  20.086  0.00  0.00    +0.000 C 
BRANCH   7   8
ATOM      8  C   UNL     1      49.220   4.753  20.412  0.00  0.00    +0.000 C 
BRANCH   8   9
ATOM      9  N   UNL     1      48.317   3.600  20.386  0.00  0.00    +0.000 NA
ATOM     10  H   UNL     1      48.537   3.028  19.570  0.00  0.00    +0.000 HD
ATOM     11  H   UNL     1      47.361   3.925  20.247  0.00  0.00    +0.000 HD
ENDBRANCH   8   9
ENDBRANCH   7   8
ENDBRANCH   1   7
BRANCH   4  12
ATOM     12  C   UNL     1      48.760   6.953  14.397  0.00  0.00    +0.000 C 
BRANCH  12  13
ATOM     13  N   UNL     1      47.473   7.289  13.794  0.00  0.00    +0.000 N 
ATOM     14  C   UNL     1      47.052   8.572  13.544  0.00  0.00    +0.000 A 
ATOM     15  C   UNL     1      45.875   8.507  12.836  0.00  0.00    +0.000 A 
ATOM     16  C   UNL     1      45.567   7.135  12.634  0.00  0.00    +0.000 A 
ATOM     17  C   UNL     1      44.528   6.465  11.959  0.00  0.00    +0.000 A 
ATOM     18  C   UNL     1      44.520   5.069  11.936  0.00  0.00    +0.000 A 
ATOM     19 CL   UNL     1      43.274   4.241  11.083  0.00  0.00    +0.000 Cl
ATOM     20  C   UNL     1      45.512   4.336  12.580  0.00  0.00    +0.000 A 
ATOM     21  C   UNL     1      46.553   4.981  13.256  0.00  0.00    +0.000 A 
ATOM     22  C   UNL     1      46.569   6.386  13.262  0.00  0.00    +0.000 A 
ENDBRANCH  12  13
ENDBRANCH   4  12
TORSDOF 5
ENDMDL
