MODEL 1
REMARK VINA RESULT:    -8.852      0.000      0.000
REMARK INTER + INTRA:         -11.650
REMARK INTER:                 -10.922
REMARK INTRA:                  -0.729
REMARK UNBOUND:                -0.729
REMARK  Name = 
REMARK  4 active torsions:
REMARK  status: ('A' for Active; 'I' for Inactive)
REMARK    1  A    between atoms: C_2  and  C_4
REMARK    2  A    between atoms: N_8  and  C_9
REMARK    3  A    between atoms: C_9  and  C_10
REMARK    4  A    between atoms: C_15  and  N_16
REMARK                            x       y       z     vdW  Elec       q    Type
REMARK                         _______ _______ _______ _____ _____    ______ ____
ROOT
ATOM      1  C   UNL     1      46.384   2.287   7.666  0.00  0.00    +0.000 A 
ATOM      2  C   UNL     1      45.665   1.808   8.756  0.00  0.00    +0.000 A 
ATOM      3  C   UNL     1      44.836   2.682   9.460  0.00  0.00    +0.000 A 
ATOM      4  C   UNL     1      44.756   4.018   9.085  0.00  0.00    +0.000 A 
ATOM      5  N   UNL     1      43.902   4.925   9.676  0.00  0.00    +0.000 N 
ATOM      6  N   UNL     1      45.469   4.497   8.045  0.00  0.00    +0.000 NA
ATOM      7  C   UNL     1      46.269   3.633   7.364  0.00  0.00    +0.000 A 
ATOM      8  H   UNL     1      44.116   5.840   9.288  0.00  0.00    +0.000 HD
ENDROOT
BRANCH   1  10
ATOM      9  N   UNL     1      48.312   2.023   6.216  0.00  0.00    +0.000 N 
ATOM     10  C   UNL     1      47.249   1.424   6.837  0.00  0.00    +0.000 C 
ATOM     11  O   UNL     1      47.049   0.221   6.735  0.00  0.00    +0.000 OA
ATOM     12  H   UNL     1      48.959   1.406   5.738  0.00  0.00    +0.000 HD
ATOM     13  H   UNL     1      48.652   2.937   6.476  0.00  0.00    +0.000 HD
ENDBRANCH   1  10
BRANCH   5  14
ATOM     14  C   UNL     1      43.619   4.905  11.096  0.00  0.00    +0.000 C 
BRANCH  14  15
ATOM     15  C   UNL     1      44.852   5.214  11.910  0.00  0.00    +0.000 A 
ATOM     16  C   UNL     1      45.349   4.289  12.834  0.00  0.00    +0.000 A 
ATOM     17  C   UNL     1      46.499   4.585  13.555  0.00  0.00    +0.000 A 
ATOM     18  F   UNL     1      46.961   3.696  14.444  0.00  0.00    +0.000 F 
ATOM     19  C   UNL     1      47.182   5.784  13.373  0.00  0.00    +0.000 A 
ATOM     20  C   UNL     1      46.708   6.720  12.447  0.00  0.00    +0.000 A 
ATOM     21  C   UNL     1      45.538   6.429  11.724  0.00  0.00    +0.000 A 
BRANCH  20  22
ATOM     22  N   UNL     1      47.414   7.938  12.222  0.00  0.00    +0.000 N 
ATOM     23  C   UNL     1      48.718   8.084  11.798  0.00  0.00    +0.000 A 
ATOM     24  C   UNL     1      48.933   9.437  11.674  0.00  0.00    +0.000 A 
ATOM     25  N   UNL     1      47.822  10.139  12.040  0.00  0.00    +0.000 NA
ATOM     26  C   UNL     1      46.936   9.224  12.367  0.00  0.00    +0.000 A 
ENDBRANCH  20  22
ENDBRANCH  14  15
ENDBRANCH   5  14
TORSDOF 4
ENDMDL
MODEL 2
REMARK VINA RESULT:    -8.185      2.387      3.542
REMARK INTER + INTRA:         -10.827
REMARK INTER:                 -10.206
REMARK INTRA:                  -0.621
REMARK UNBOUND:                -0.729
REMARK  Name = 
REMARK  4 active torsions:
REMARK  status: ('A' for Active; 'I' for Inactive)
REMARK    1  A    between atoms: C_2  and  C_4
REMARK    2  A    between atoms: N_8  and  C_9
REMARK    3  A    between atoms: C_9  and  C_10
REMARK    4  A    between atoms: C_15  and  N_16
REMARK                            x       y       z     vdW  Elec       q    Type
REMARK                         _______ _______ _______ _____ _____    ______ ____
ROOT
ATOM      1  C   UNL     1      46.486   2.579   7.513  0.00  0.00    +0.000 A 
ATOM      2  C   UNL     1      45.845   2.005   8.605  0.00  0.00    +0.000 A 
ATOM      3  C   UNL     1      45.165   2.827   9.505  0.00  0.00    +0.000 A 
ATOM      4  C   UNL     1      45.155   4.205   9.316  0.00  0.00    +0.000 A 
ATOM      5  N   UNL     1      44.441   5.077  10.110  0.00  0.00    +0.000 N 
ATOM      6  N   UNL     1      45.793   4.773   8.272  0.00  0.00    +0.000 NA
ATOM      7  C   UNL     1      46.448   3.959   7.400  0.00  0.00    +0.000 A 
ATOM      8  H   UNL     1      44.686   6.020   9.821  0.00  0.00    +0.000 HD
ENDROOT
BRANCH   1  10
ATOM      9  N   UNL     1      47.939   2.471   5.573  0.00  0.00    +0.000 N 
ATOM     10  C   UNL     1      47.189   1.783   6.488  0.00  0.00    +0.000 C 
ATOM     11  O   UNL     1      47.136   0.561   6.475  0.00  0.00    +0.000 OA
ATOM     12  H   UNL     1      48.502   1.912   4.942  0.00  0.00    +0.000 HD
ATOM     13  H   UNL     1      48.210   3.435   5.703  0.00  0.00    +0.000 HD
ENDBRANCH   1  10
BRANCH   5  14
ATOM     14  C   UNL     1      44.304   4.883  11.538  0.00  0.00    +0.000 C 
BRANCH  14  15
ATOM     15  C   UNL     1      45.539   5.337  12.279  0.00  0.00    +0.000 A 
ATOM     16  C   UNL     1      46.285   6.428  11.823  0.00  0.00    +0.000 A 
ATOM     17  C   UNL     1      47.404   6.843  12.533  0.00  0.00    +0.000 A 
ATOM     18  F   UNL     1      48.117   7.883  12.083  0.00  0.00    +0.000 F 
ATOM     19  C   UNL     1      47.800   6.202  13.704  0.00  0.00    +0.000 A 
ATOM     20  C   UNL     1      47.062   5.114  14.184  0.00  0.00    +0.000 A 
ATOM     21  C   UNL     1      45.936   4.684  13.461  0.00  0.00    +0.000 A 
BRANCH  20  22
ATOM     22  N   UNL     1      47.433   4.467  15.399  0.00  0.00    +0.000 N 
ATOM     23  C   UNL     1      47.644   3.119  15.600  0.00  0.00    +0.000 A 
ATOM     24  C   UNL     1      48.034   2.982  16.911  0.00  0.00    +0.000 A 
ATOM     25  N   UNL     1      48.040   4.190  17.543  0.00  0.00    +0.000 NA
ATOM     26  C   UNL     1      47.673   5.056  16.624  0.00  0.00    +0.000 A 
ENDBRANCH  20  22
ENDBRANCH  14  15
ENDBRANCH   5  14
TORSDOF 4
ENDMDL
MODEL 3
REMARK VINA RESULT:    -8.009      2.097      2.738
REMARK INTER + INTRA:         -10.610
REMARK INTER:                 -10.036
REMARK INTRA:                  -0.574
REMARK UNBOUND:                -0.729
REMARK  Name = 
REMARK  4 active torsions:
REMARK  status: ('A' for Active; 'I' for Inactive)
REMARK    1  A    between atoms: C_2  and  C_4
REMARK    2  A    between atoms: N_8  and  C_9
REMARK    3  A    between atoms: C_9  and  C_10
REMARK    4  A    between atoms: C_15  and  N_16
REMARK                            x       y       z     vdW  Elec       q    Type
REMARK                         _______ _______ _______ _____ _____    ______ ____
ROOT
ATOM      1  C   UNL     1      46.477   2.300   7.638  0.00  0.00    +0.000 A 
ATOM      2  C   UNL     1      45.847   1.902   8.812  0.00  0.00    +0.000 A 
ATOM      3  C   UNL     1      45.081   2.828   9.521  0.00  0.00    +0.000 A 
ATOM      4  C   UNL     1      44.975   4.137   9.063  0.00  0.00    +0.000 A 
ATOM      5  N   UNL     1      44.175   5.088   9.659  0.00  0.00    +0.000 N 
ATOM      6  N   UNL     1      45.602   4.539   7.939  0.00  0.00    +0.000 NA
ATOM      7  C   UNL     1      46.342   3.624   7.255  0.00  0.00    +0.000 A 
ATOM      8  H   UNL     1      44.358   5.973   9.194  0.00  0.00    +0.000 HD
ENDROOT
BRANCH   1  10
ATOM      9  N   UNL     1      48.343   1.906   6.136  0.00  0.00    +0.000 N 
ATOM     10  C   UNL     1      47.270   1.377   6.801  0.00  0.00    +0.000 C 
ATOM     11  O   UNL     1      47.004   0.184   6.731  0.00  0.00    +0.000 OA
ATOM     12  H   UNL     1      48.941   1.246   5.652  0.00  0.00    +0.000 HD
ATOM     13  H   UNL     1      48.738   2.805   6.366  0.00  0.00    +0.000 HD
ENDBRANCH   1  10
BRANCH   5  14
ATOM     14  C   UNL     1      44.007   5.166  11.095  0.00  0.00    +0.000 C 
BRANCH  14  15
ATOM     15  C   UNL     1      44.763   6.337  11.676  0.00  0.00    +0.000 A 
ATOM     16  C   UNL     1      44.325   7.648  11.464  0.00  0.00    +0.000 A 
ATOM     17  C   UNL     1      45.023   8.708  12.027  0.00  0.00    +0.000 A 
ATOM     18  F   UNL     1      44.600   9.960  11.810  0.00  0.00    +0.000 F 
ATOM     19  C   UNL     1      46.151   8.498  12.815  0.00  0.00    +0.000 A 
ATOM     20  C   UNL     1      46.603   7.193  13.049  0.00  0.00    +0.000 A 
ATOM     21  C   UNL     1      45.905   6.119  12.470  0.00  0.00    +0.000 A 
BRANCH  20  22
ATOM     22  N   UNL     1      47.736   6.957  13.881  0.00  0.00    +0.000 N 
ATOM     23  C   UNL     1      48.884   7.716  13.967  0.00  0.00    +0.000 A 
ATOM     24  C   UNL     1      49.661   7.129  14.938  0.00  0.00    +0.000 A 
ATOM     25  N   UNL     1      49.055   6.013  15.434  0.00  0.00    +0.000 NA
ATOM     26  C   UNL     1      47.914   5.930  14.784  0.00  0.00    +0.000 A 
ENDBRANCH  20  22
ENDBRANCH  14  15
ENDBRANCH   5  14
TORSDOF 4
ENDMDL
MODEL 4
REMARK VINA RESULT:    -7.483      2.084      2.506
REMARK INTER + INTRA:          -9.961
REMARK INTER:                  -9.430
REMARK INTRA:                  -0.531
REMARK UNBOUND:                -0.729
REMARK  Name = 
REMARK  4 active torsions:
REMARK  status: ('A' for Active; 'I' for Inactive)
REMARK    1  A    between atoms: C_2  and  C_4
REMARK    2  A    between atoms: N_8  and  C_9
REMARK    3  A    between atoms: C_9  and  C_10
REMARK    4  A    between atoms: C_15  and  N_16
REMARK                            x       y       z     vdW  Elec       q    Type
REMARK                         _______ _______ _______ _____ _____    ______ ____
ROOT
ATOM      1  C   UNL     1      46.576   2.609   7.312  0.00  0.00    +0.000 A 
ATOM      2  C   UNL     1      46.404   3.907   7.778  0.00  0.00    +0.000 A 
ATOM      3  C   UNL     1      45.631   4.124   8.920  0.00  0.00    +0.000 A 
ATOM      4  C   UNL     1      45.023   3.050   9.561  0.00  0.00    +0.000 A 
ATOM      5  N   UNL     1      44.312   3.169  10.736  0.00  0.00    +0.000 N 
ATOM      6  N   UNL     1      45.164   1.789   9.102  0.00  0.00    +0.000 NA
ATOM      7  C   UNL     1      45.925   1.592   7.992  0.00  0.00    +0.000 A 
ATOM      8  H   UNL     1      43.895   2.263  10.931  0.00  0.00    +0.000 HD
ENDROOT
BRANCH   1  10
ATOM      9  N   UNL     1      47.281   3.084   5.040  0.00  0.00    +0.000 N 
ATOM     10  C   UNL     1      47.413   2.282   6.141  0.00  0.00    +0.000 C 
ATOM     11  O   UNL     1      48.217   1.360   6.162  0.00  0.00    +0.000 OA
ATOM     12  H   UNL     1      47.934   2.919   4.282  0.00  0.00    +0.000 HD
ATOM     13  H   UNL     1      46.831   3.987   5.072  0.00  0.00    +0.000 HD
ENDBRANCH   1  10
BRANCH   5  14
ATOM     14  C   UNL     1      43.469   4.312  11.016  0.00  0.00    +0.000 C 
BRANCH  14  15
ATOM     15  C   UNL     1      44.254   5.435  11.651  0.00  0.00    +0.000 A 
ATOM     16  C   UNL     1      45.248   5.167  12.598  0.00  0.00    +0.000 A 
ATOM     17  C   UNL     1      45.972   6.214  13.151  0.00  0.00    +0.000 A 
ATOM     18  F   UNL     1      46.916   5.946  14.064  0.00  0.00    +0.000 F 
ATOM     19  C   UNL     1      45.742   7.535  12.778  0.00  0.00    +0.000 A 
ATOM     20  C   UNL     1      44.759   7.826  11.824  0.00  0.00    +0.000 A 
ATOM     21  C   UNL     1      44.015   6.769  11.271  0.00  0.00    +0.000 A 
BRANCH  20  22
ATOM     22  N   UNL     1      44.533   9.169  11.404  0.00  0.00    +0.000 N 
ATOM     23  C   UNL     1      45.282  10.283  11.722  0.00  0.00    +0.000 A 
ATOM     24  C   UNL     1      44.712  11.335  11.043  0.00  0.00    +0.000 A 
ATOM     25  N   UNL     1      43.618  10.923  10.342  0.00  0.00    +0.000 NA
ATOM     26  C   UNL     1      43.529   9.633  10.579  0.00  0.00    +0.000 A 
ENDBRANCH  20  22
ENDBRANCH  14  15
ENDBRANCH   5  14
TORSDOF 4
ENDMDL
MODEL 5
REMARK VINA RESULT:    -7.218      3.190      7.154
REMARK INTER + INTRA:          -9.635
REMARK INTER:                  -9.218
REMARK INTRA:                  -0.416
REMARK UNBOUND:                -0.729
REMARK  Name = 
REMARK  4 active torsions:
REMARK  status: ('A' for Active; 'I' for Inactive)
REMARK    1  A    between atoms: C_2  and  C_4
REMARK    2  A    between atoms: N_8  and  C_9
REMARK    3  A    between atoms: C_9  and  C_10
REMARK    4  A    between atoms: C_15  and  N_16
REMARK                            x       y       z     vdW  Elec       q    Type
REMARK                         _______ _______ _______ _____ _____    ______ ____
ROOT
ATOM      1  C   UNL     1      48.006   5.813  15.202  0.00  0.00    +0.000 A 
ATOM      2  C   UNL     1      47.022   4.973  14.695  0.00  0.00    +0.000 A 
ATOM      3  C   UNL     1      46.490   5.232  13.430  0.00  0.00    +0.000 A 
ATOM      4  C   UNL     1      46.929   6.334  12.705  0.00  0.00    +0.000 A 
ATOM      5  N   UNL     1      46.516   6.613  11.420  0.00  0.00    +0.000 N 
ATOM      6  N   UNL     1      47.867   7.169  13.199  0.00  0.00    +0.000 NA
ATOM      7  C   UNL     1      48.379   6.901  14.431  0.00  0.00    +0.000 A 
ATOM      8  H   UNL     1      46.904   7.518  11.166  0.00  0.00    +0.000 HD
ENDROOT
BRANCH   1  10
ATOM      9  N   UNL     1      47.946   5.942  17.624  0.00  0.00    +0.000 N 
ATOM     10  C   UNL     1      48.656   5.589  16.509  0.00  0.00    +0.000 C 
ATOM     11  O   UNL     1      49.764   5.077  16.596  0.00  0.00    +0.000 OA
ATOM     12  H   UNL     1      48.354   5.686  18.516  0.00  0.00    +0.000 HD
ATOM     13  H   UNL     1      46.953   6.122  17.606  0.00  0.00    +0.000 HD
ENDBRANCH   1  10
BRANCH   5  14
ATOM     14  C   UNL     1      45.157   6.377  10.979  0.00  0.00    +0.000 C 
BRANCH  14  15
ATOM     15  C   UNL     1      44.965   4.951  10.519  0.00  0.00    +0.000 A 
ATOM     16  C   UNL     1      44.067   4.104  11.175  0.00  0.00    +0.000 A 
ATOM     17  C   UNL     1      43.890   2.804  10.721  0.00  0.00    +0.000 A 
ATOM     18  F   UNL     1      43.034   1.997  11.362  0.00  0.00    +0.000 F 
ATOM     19  C   UNL     1      44.581   2.320   9.613  0.00  0.00    +0.000 A 
ATOM     20  C   UNL     1      45.477   3.155   8.935  0.00  0.00    +0.000 A 
ATOM     21  C   UNL     1      45.668   4.468   9.400  0.00  0.00    +0.000 A 
BRANCH  20  22
ATOM     22  N   UNL     1      46.167   2.689   7.778  0.00  0.00    +0.000 N 
ATOM     23  C   UNL     1      46.383   3.372   6.600  0.00  0.00    +0.000 A 
ATOM     24  C   UNL     1      47.138   2.540   5.806  0.00  0.00    +0.000 A 
ATOM     25  N   UNL     1      47.370   1.352   6.432  0.00  0.00    +0.000 NA
ATOM     26  C   UNL     1      46.777   1.463   7.601  0.00  0.00    +0.000 A 
ENDBRANCH  20  22
ENDBRANCH  14  15
ENDBRANCH   5  14
TORSDOF 4
ENDMDL
MODEL 6
REMARK VINA RESULT:    -6.830      4.632      7.790
REMARK INTER + INTRA:          -9.156
REMARK INTER:                  -8.763
REMARK INTRA:                  -0.393
REMARK UNBOUND:                -0.729
REMARK  Name = 
REMARK  4 active torsions:
REMARK  status: ('A' for Active; 'I' for Inactive)
REMARK    1  A    between atoms: C_2  and  C_4
REMARK    2  A    between atoms: N_8  and  C_9
REMARK    3  A    between atoms: C_9  and  C_10
REMARK    4  A    between atoms: C_15  and  N_16
REMARK                            x       y       z     vdW  Elec       q    Type
REMARK                         _______ _______ _______ _____ _____    ______ ____
ROOT
ATOM      1  C   UNL     1      49.474   3.982  17.349  0.00  0.00    +0.000 A 
ATOM      2  C   UNL     1      49.095   5.281  17.030  0.00  0.00    +0.000 A 
ATOM      3  C   UNL     1      48.044   5.483  16.134  0.00  0.00    +0.000 A 
ATOM      4  C   UNL     1      47.407   4.392  15.553  0.00  0.00    +0.000 A 
ATOM      5  N   UNL     1      46.312   4.503  14.724  0.00  0.00    +0.000 N 
ATOM      6  N   UNL     1      47.784   3.128  15.838  0.00  0.00    +0.000 NA
ATOM      7  C   UNL     1      48.806   2.946  16.717  0.00  0.00    +0.000 A 
ATOM      8  H   UNL     1      46.110   3.574  14.362  0.00  0.00    +0.000 HD
ENDROOT
BRANCH   1  10
ATOM      9  N   UNL     1      51.252   2.522  18.120  0.00  0.00    +0.000 N 
ATOM     10  C   UNL     1      50.543   3.675  18.320  0.00  0.00    +0.000 C 
ATOM     11  O   UNL     1      50.809   4.433  19.243  0.00  0.00    +0.000 OA
ATOM     12  H   UNL     1      52.051   2.375  18.727  0.00  0.00    +0.000 HD
ATOM     13  H   UNL     1      51.236   2.015  17.248  0.00  0.00    +0.000 HD
ENDBRANCH   1  10
BRANCH   5  14
ATOM     14  C   UNL     1      46.173   5.583  13.769  0.00  0.00    +0.000 C 
BRANCH  14  15
ATOM     15  C   UNL     1      45.199   5.228  12.671  0.00  0.00    +0.000 A 
ATOM     16  C   UNL     1      43.859   5.619  12.750  0.00  0.00    +0.000 A 
ATOM     17  C   UNL     1      42.987   5.302  11.718  0.00  0.00    +0.000 A 
ATOM     18  F   UNL     1      41.703   5.673  11.808  0.00  0.00    +0.000 F 
ATOM     19  C   UNL     1      43.417   4.608  10.590  0.00  0.00    +0.000 A 
ATOM     20  C   UNL     1      44.757   4.215  10.485  0.00  0.00    +0.000 A 
ATOM     21  C   UNL     1      45.640   4.525  11.534  0.00  0.00    +0.000 A 
BRANCH  20  22
ATOM     22  N   UNL     1      45.223   3.535   9.323  0.00  0.00    +0.000 N 
ATOM     23  C   UNL     1      45.619   4.096   8.127  0.00  0.00    +0.000 A 
ATOM     24  C   UNL     1      46.036   3.053   7.333  0.00  0.00    +0.000 A 
ATOM     25  N   UNL     1      45.882   1.862   7.977  0.00  0.00    +0.000 NA
ATOM     26  C   UNL     1      45.391   2.176   9.156  0.00  0.00    +0.000 A 
ENDBRANCH  20  22
ENDBRANCH  14  15
ENDBRANCH   5  14
TORSDOF 4
ENDMDL
MODEL 7
REMARK VINA RESULT:    -6.783      3.055      6.879
REMARK INTER + INTRA:          -9.098
REMARK INTER:                  -8.424
REMARK INTRA:                  -0.674
REMARK UNBOUND:                -0.729
REMARK  Name = 
REMARK  4 active torsions:
REMARK  status: ('A' for Active; 'I' for Inactive)
REMARK    1  A    between atoms: C_2  and  C_4
REMARK    2  A    between atoms: N_8  and  C_9
REMARK    3  A    between atoms: C_9  and  C_10
REMARK    4  A    between atoms: C_15  and  N_16
REMARK                            x       y       z     vdW  Elec       q    Type
REMARK                         _______ _______ _______ _____ _____    ______ ____
ROOT
ATOM      1  C   UNL     1      49.110   7.558  13.126  0.00  0.00    +0.000 A 
ATOM      2  C   UNL     1      48.588   8.032  11.928  0.00  0.00    +0.000 A 
ATOM      3  C   UNL     1      47.251   7.776  11.619  0.00  0.00    +0.000 A 
ATOM      4  C   UNL     1      46.466   7.033  12.495  0.00  0.00    +0.000 A 
ATOM      5  N   UNL     1      45.120   6.805  12.303  0.00  0.00    +0.000 N 
ATOM      6  N   UNL     1      46.970   6.549  13.649  0.00  0.00    +0.000 NA
ATOM      7  C   UNL     1      48.274   6.811  13.939  0.00  0.00    +0.000 A 
ATOM      8  H   UNL     1      44.816   6.158  13.026  0.00  0.00    +0.000 HD
ENDROOT
BRANCH   1  10
ATOM      9  N   UNL     1      50.861   7.376  14.797  0.00  0.00    +0.000 N 
ATOM     10  C   UNL     1      50.498   7.821  13.555  0.00  0.00    +0.000 C 
ATOM     11  O   UNL     1      51.302   8.380  12.820  0.00  0.00    +0.000 OA
ATOM     12  H   UNL     1      51.841   7.466  15.038  0.00  0.00    +0.000 HD
ATOM     13  H   UNL     1      50.317   6.701  15.315  0.00  0.00    +0.000 HD
ENDBRANCH   1  10
BRANCH   5  14
ATOM     14  C   UNL     1      44.556   6.576  10.990  0.00  0.00    +0.000 C 
BRANCH  14  15
ATOM     15  C   UNL     1      44.539   5.105  10.645  0.00  0.00    +0.000 A 
ATOM     16  C   UNL     1      43.719   4.216  11.347  0.00  0.00    +0.000 A 
ATOM     17  C   UNL     1      43.702   2.872  10.998  0.00  0.00    +0.000 A 
ATOM     18  F   UNL     1      42.919   2.027  11.682  0.00  0.00    +0.000 F 
ATOM     19  C   UNL     1      44.478   2.384   9.951  0.00  0.00    +0.000 A 
ATOM     20  C   UNL     1      45.299   3.258   9.228  0.00  0.00    +0.000 A 
ATOM     21  C   UNL     1      45.327   4.617   9.587  0.00  0.00    +0.000 A 
BRANCH  20  22
ATOM     22  N   UNL     1      46.074   2.782   8.131  0.00  0.00    +0.000 N 
ATOM     23  C   UNL     1      46.624   3.528   7.109  0.00  0.00    +0.000 A 
ATOM     24  C   UNL     1      47.326   2.644   6.323  0.00  0.00    +0.000 A 
ATOM     25  N   UNL     1      47.205   1.372   6.798  0.00  0.00    +0.000 NA
ATOM     26  C   UNL     1      46.451   1.481   7.870  0.00  0.00    +0.000 A 
ENDBRANCH  20  22
ENDBRANCH  14  15
ENDBRANCH   5  14
TORSDOF 4
ENDMDL
MODEL 8
REMARK VINA RESULT:    -6.380      5.439      7.990
REMARK INTER + INTRA:          -8.600
REMARK INTER:                  -8.002
REMARK INTRA:                  -0.598
REMARK UNBOUND:                -0.729
REMARK  Name = 
REMARK  4 active torsions:
REMARK  status: ('A' for Active; 'I' for Inactive)
REMARK    1  A    between atoms: C_2  and  C_4
REMARK    2  A    between atoms: N_8  and  C_9
REMARK    3  A    between atoms: C_9  and  C_10
REMARK    4  A    between atoms: C_15  and  N_16
REMARK                            x       y       z     vdW  Elec       q    Type
REMARK                         _______ _______ _______ _____ _____    ______ ____
ROOT
ATOM      1  C   UNL     1      51.385   2.044  17.483  0.00  0.00    +0.000 A 
ATOM      2  C   UNL     1      50.877   3.195  18.074  0.00  0.00    +0.000 A 
ATOM      3  C   UNL     1      49.598   3.632  17.725  0.00  0.00    +0.000 A 
ATOM      4  C   UNL     1      48.860   2.931  16.777  0.00  0.00    +0.000 A 
ATOM      5  N   UNL     1      47.563   3.249  16.437  0.00  0.00    +0.000 N 
ATOM      6  N   UNL     1      49.355   1.827  16.181  0.00  0.00    +0.000 NA
ATOM      7  C   UNL     1      50.600   1.410  16.535  0.00  0.00    +0.000 A 
ATOM      8  H   UNL     1      47.298   2.650  15.659  0.00  0.00    +0.000 HD
ENDROOT
BRANCH   1  10
ATOM      9  N   UNL     1      52.756   0.156  18.151  0.00  0.00    +0.000 N 
ATOM     10  C   UNL     1      52.708   1.485  17.827  0.00  0.00    +0.000 C 
ATOM     11  O   UNL     1      53.724   2.167  17.790  0.00  0.00    +0.000 OA
ATOM     12  H   UNL     1      53.680  -0.242  18.280  0.00  0.00    +0.000 HD
ATOM     13  H   UNL     1      52.002  -0.483  17.947  0.00  0.00    +0.000 HD
ENDBRANCH   1  10
BRANCH   5  14
ATOM     14  C   UNL     1      47.101   4.618  16.349  0.00  0.00    +0.000 C 
BRANCH  14  15
ATOM     15  C   UNL     1      47.071   5.101  14.919  0.00  0.00    +0.000 A 
ATOM     16  C   UNL     1      48.021   6.014  14.452  0.00  0.00    +0.000 A 
ATOM     17  C   UNL     1      47.988   6.426  13.126  0.00  0.00    +0.000 A 
ATOM     18  F   UNL     1      48.897   7.308  12.691  0.00  0.00    +0.000 F 
ATOM     19  C   UNL     1      47.031   5.941  12.238  0.00  0.00    +0.000 A 
ATOM     20  C   UNL     1      46.076   5.019  12.681  0.00  0.00    +0.000 A 
ATOM     21  C   UNL     1      46.100   4.609  14.026  0.00  0.00    +0.000 A 
BRANCH  20  22
ATOM     22  N   UNL     1      45.111   4.485  11.779  0.00  0.00    +0.000 N 
ATOM     23  C   UNL     1      44.849   4.902  10.491  0.00  0.00    +0.000 A 
ATOM     24  C   UNL     1      43.881   4.056  10.002  0.00  0.00    +0.000 A 
ATOM     25  N   UNL     1      43.507   3.150  10.949  0.00  0.00    +0.000 NA
ATOM     26  C   UNL     1      44.248   3.431  11.999  0.00  0.00    +0.000 A 
ENDBRANCH  20  22
ENDBRANCH  14  15
ENDBRANCH   5  14
TORSDOF 4
ENDMDL
MODEL 9
REMARK VINA RESULT:    -6.175      4.965      7.566
REMARK INTER + INTRA:          -8.347
REMARK INTER:                  -7.850
REMARK INTRA:                  -0.497
REMARK UNBOUND:                -0.729
REMARK  Name = 
REMARK  4 active torsions:
REMARK  status: ('A' for Active; 'I' for Inactive)
REMARK    1  A    between atoms: C_2  and  C_4
REMARK    2  A    between atoms: N_8  and  C_9
REMARK    3  A    between atoms: C_9  and  C_10
REMARK    4  A    between atoms: C_15  and  N_16
REMARK                            x       y       z     vdW  Elec       q    Type
REMARK                         _______ _______ _______ _____ _____    ______ ____
ROOT
ATOM      1  C   UNL     1      48.630   4.513  18.386  0.00  0.00    +0.000 A 
ATOM      2  C   UNL     1      48.981   5.358  17.339  0.00  0.00    +0.000 A 
ATOM      3  C   UNL     1      48.265   5.293  16.143  0.00  0.00    +0.000 A 
ATOM      4  C   UNL     1      47.231   4.374  16.001  0.00  0.00    +0.000 A 
ATOM      5  N   UNL     1      46.424   4.302  14.886  0.00  0.00    +0.000 N 
ATOM      6  N   UNL     1      46.899   3.534  17.003  0.00  0.00    +0.000 NA
ATOM      7  C   UNL     1      47.602   3.612  18.165  0.00  0.00    +0.000 A 
ATOM      8  H   UNL     1      45.824   3.489  14.997  0.00  0.00    +0.000 HD
ENDROOT
BRANCH   1  10
ATOM      9  N   UNL     1      48.622   4.009  20.759  0.00  0.00    +0.000 N 
ATOM     10  C   UNL     1      49.303   4.545  19.700  0.00  0.00    +0.000 C 
ATOM     11  O   UNL     1      50.432   4.996  19.833  0.00  0.00    +0.000 OA
ATOM     12  H   UNL     1      49.133   3.938  21.632  0.00  0.00    +0.000 HD
ATOM     13  H   UNL     1      47.818   3.409  20.645  0.00  0.00    +0.000 HD
ENDBRANCH   1  10
BRANCH   5  14
ATOM     14  C   UNL     1      46.937   4.514  13.548  0.00  0.00    +0.000 C 
BRANCH  14  15
ATOM     15  C   UNL     1      45.909   5.176  12.662  0.00  0.00    +0.000 A 
ATOM     16  C   UNL     1      44.946   4.415  11.992  0.00  0.00    +0.000 A 
ATOM     17  C   UNL     1      43.996   5.047  11.201  0.00  0.00    +0.000 A 
ATOM     18  F   UNL     1      43.084   4.308  10.556  0.00  0.00    +0.000 F 
ATOM     19  C   UNL     1      43.970   6.432  11.064  0.00  0.00    +0.000 A 
ATOM     20  C   UNL     1      44.918   7.215  11.733  0.00  0.00    +0.000 A 
ATOM     21  C   UNL     1      45.888   6.577  12.525  0.00  0.00    +0.000 A 
BRANCH  20  22
ATOM     22  N   UNL     1      44.885   8.636  11.632  0.00  0.00    +0.000 N 
ATOM     23  C   UNL     1      45.792   9.534  12.156  0.00  0.00    +0.000 A 
ATOM     24  C   UNL     1      45.374  10.781  11.754  0.00  0.00    +0.000 A 
ATOM     25  N   UNL     1      44.223  10.696  11.030  0.00  0.00    +0.000 NA
ATOM     26  C   UNL     1      43.950   9.410  10.977  0.00  0.00    +0.000 A 
ENDBRANCH  20  22
ENDBRANCH  14  15
ENDBRANCH   5  14
TORSDOF 4
ENDMDL
