MODEL 1
REMARK VINA RESULT:    -8.516      0.000      0.000
REMARK INTER + INTRA:         -11.810
REMARK INTER:                 -11.006
REMARK INTRA:                  -0.804
REMARK UNBOUND:                -0.804
REMARK  Name = 
REMARK  5 active torsions:
REMARK  status: ('A' for Active; 'I' for Inactive)
REMARK    1  A    between atoms: C_2  and  C_3
REMARK    2  A    between atoms: C_6  and  N_7
REMARK    3  A    between atoms: N_7  and  C_8
REMARK    4  A    between atoms: C_8  and  C_9
REMARK    5  A    between atoms: C_11  and  C_12
REMARK                            x       y       z     vdW  Elec       q    Type
REMARK                         _______ _______ _______ _____ _____    ______ ____
ROOT
ATOM      1  C   UNL     1      43.894   4.791  11.334  0.00  0.00    +0.000 C 
ATOM      2  C   UNL     1      42.663   4.833  12.241  0.00  0.00    +0.000 C 
ATOM      3  C   UNL     1      42.977   6.004  11.370  0.00  0.00    +0.000 C 
ENDROOT
BRANCH   1   4
ATOM      4  C   UNL     1      45.249   4.965  12.035  0.00  0.00    +0.000 A 
ATOM      5  C   UNL     1      46.074   6.033  11.678  0.00  0.00    +0.000 A 
ATOM      6  C   UNL     1      47.115   6.472  12.511  0.00  0.00    +0.000 A 
ATOM      7  C   UNL     1      47.294   5.747  13.691  0.00  0.00    +0.000 A 
ATOM      8  C   UNL     1      46.540   4.605  13.915  0.00  0.00    +0.000 A 
ATOM      9  N   UNL     1      45.532   4.203  13.119  0.00  0.00    +0.000 NA
BRANCH   6  10
ATOM     10  C   UNL     1      47.922   7.669  12.134  0.00  0.00    +0.000 A 
ATOM     11  C   UNL     1      49.297   7.498  11.826  0.00  0.00    +0.000 A 
ATOM     12  C   UNL     1      50.156   8.574  11.584  0.00  0.00    +0.000 A 
ATOM     13  C   UNL     1      49.656   9.867  11.588  0.00  0.00    +0.000 A 
ATOM     14  C   UNL     1      48.302  10.075  11.832  0.00  0.00    +0.000 A 
ATOM     15  C   UNL     1      47.445   8.999  12.117  0.00  0.00    +0.000 A 
ATOM     16 CL   UNL     1      45.820   9.451  12.512  0.00  0.00    +0.000 Cl
ENDBRANCH   6  10
ENDBRANCH   1   4
BRANCH   1  17
ATOM     17  N   UNL     1      43.832   3.787  10.273  0.00  0.00    +0.000 N 
ATOM     18  H   UNL     1      43.126   3.059  10.332  0.00  0.00    +0.000 HD
BRANCH  17  22
ATOM     19  C   UNL     1      46.580   2.566   7.476  0.00  0.00    +0.000 A 
ATOM     20  C   UNL     1      45.997   1.705   8.389  0.00  0.00    +0.000 A 
ATOM     21  N   UNL     1      45.113   2.122   9.328  0.00  0.00    +0.000 NA
ATOM     22  C   UNL     1      44.796   3.439   9.340  0.00  0.00    +0.000 A 
ATOM     23  C   UNL     1      45.394   4.295   8.417  0.00  0.00    +0.000 A 
ATOM     24  N   UNL     1      46.297   3.892   7.477  0.00  0.00    +0.000 NA
BRANCH  19  26
ATOM     25  N   UNL     1      48.255   1.653   5.722  0.00  0.00    +0.000 NA
ATOM     26  C   UNL     1      47.489   2.086   6.483  0.00  0.00    +0.000 C 
ENDBRANCH  19  26
ENDBRANCH  17  22
ENDBRANCH   1  17
TORSDOF 5
ENDMDL
MODEL 2
REMARK VINA RESULT:    -7.728      1.959      3.619
REMARK INTER + INTRA:         -10.791
REMARK INTER:                 -10.860
REMARK INTRA:                   0.069
REMARK UNBOUND:                -0.804
REMARK  Name = 
REMARK  5 active torsions:
REMARK  status: ('A' for Active; 'I' for Inactive)
REMARK    1  A    between atoms: C_2  and  C_3
REMARK    2  A    between atoms: C_6  and  N_7
REMARK    3  A    between atoms: N_7  and  C_8
REMARK    4  A    between atoms: C_8  and  C_9
REMARK    5  A    between atoms: C_11  and  C_12
REMARK                            x       y       z     vdW  Elec       q    Type
REMARK                         _______ _______ _______ _____ _____    ______ ____
ROOT
ATOM      1  C   UNL     1      43.915   4.964  11.507  0.00  0.00    +0.000 C 
ATOM      2  C   UNL     1      43.380   3.811  12.358  0.00  0.00    +0.000 C 
ATOM      3  C   UNL     1      42.667   5.123  12.362  0.00  0.00    +0.000 C 
ENDROOT
BRANCH   1   4
ATOM      4  C   UNL     1      45.175   5.661  12.041  0.00  0.00    +0.000 A 
ATOM      5  C   UNL     1      45.687   5.294  13.286  0.00  0.00    +0.000 A 
ATOM      6  C   UNL     1      47.006   5.596  13.660  0.00  0.00    +0.000 A 
ATOM      7  C   UNL     1      47.751   6.318  12.726  0.00  0.00    +0.000 A 
ATOM      8  C   UNL     1      47.138   6.783  11.572  0.00  0.00    +0.000 A 
ATOM      9  N   UNL     1      45.878   6.473  11.215  0.00  0.00    +0.000 NA
BRANCH   6  10
ATOM     10  C   UNL     1      47.543   5.115  14.967  0.00  0.00    +0.000 A 
ATOM     11  C   UNL     1      47.218   3.802  15.399  0.00  0.00    +0.000 A 
ATOM     12  C   UNL     1      47.571   3.314  16.660  0.00  0.00    +0.000 A 
ATOM     13  C   UNL     1      48.314   4.106  17.521  0.00  0.00    +0.000 A 
ATOM     14  C   UNL     1      48.699   5.380  17.115  0.00  0.00    +0.000 A 
ATOM     15  C   UNL     1      48.310   5.889  15.866  0.00  0.00    +0.000 A 
ATOM     16 CL   UNL     1      48.777   7.532  15.574  0.00  0.00    +0.000 Cl
ENDBRANCH   6  10
ENDBRANCH   1   4
BRANCH   1  17
ATOM     17  N   UNL     1      43.860   4.731  10.065  0.00  0.00    +0.000 N 
ATOM     18  H   UNL     1      42.993   4.929   9.573  0.00  0.00    +0.000 HD
BRANCH  17  22
ATOM     19  C   UNL     1      46.470   2.602   7.717  0.00  0.00    +0.000 A 
ATOM     20  C   UNL     1      46.315   3.974   7.622  0.00  0.00    +0.000 A 
ATOM     21  N   UNL     1      45.430   4.665   8.381  0.00  0.00    +0.000 NA
ATOM     22  C   UNL     1      44.691   3.959   9.270  0.00  0.00    +0.000 A 
ATOM     23  C   UNL     1      44.855   2.576   9.352  0.00  0.00    +0.000 A 
ATOM     24  N   UNL     1      45.730   1.867   8.583  0.00  0.00    +0.000 NA
BRANCH  19  26
ATOM     25  N   UNL     1      48.254   1.404   6.268  0.00  0.00    +0.000 NA
ATOM     26  C   UNL     1      47.433   1.910   6.920  0.00  0.00    +0.000 C 
ENDBRANCH  19  26
ENDBRANCH  17  22
ENDBRANCH   1  17
TORSDOF 5
ENDMDL
MODEL 3
REMARK VINA RESULT:    -7.126      3.326      6.923
REMARK INTER + INTRA:         -10.014
REMARK INTER:                  -9.363
REMARK INTRA:                  -0.650
REMARK UNBOUND:                -0.804
REMARK  Name = 
REMARK  5 active torsions:
REMARK  status: ('A' for Active; 'I' for Inactive)
REMARK    1  A    between atoms: C_2  and  C_3
REMARK    2  A    between atoms: C_6  and  N_7
REMARK    3  A    between atoms: N_7  and  C_8
REMARK    4  A    between atoms: C_8  and  C_9
REMARK    5  A    between atoms: C_11  and  C_12
REMARK                            x       y       z     vdW  Elec       q    Type
REMARK                         _______ _______ _______ _____ _____    ______ ____
ROOT
ATOM      1  C   UNL     1      46.235   7.520  12.236  0.00  0.00    +0.000 C 
ATOM      2  C   UNL     1      46.542   8.950  11.787  0.00  0.00    +0.000 C 
ATOM      3  C   UNL     1      45.627   8.721  12.945  0.00  0.00    +0.000 C 
ENDROOT
BRANCH   1   4
ATOM      4  C   UNL     1      45.275   6.728  11.337  0.00  0.00    +0.000 A 
ATOM      5  C   UNL     1      45.793   5.889  10.349  0.00  0.00    +0.000 A 
ATOM      6  C   UNL     1      45.023   4.872   9.765  0.00  0.00    +0.000 A 
ATOM      7  C   UNL     1      43.701   4.784  10.205  0.00  0.00    +0.000 A 
ATOM      8  C   UNL     1      43.204   5.742  11.077  0.00  0.00    +0.000 A 
ATOM      9  N   UNL     1      43.955   6.702  11.644  0.00  0.00    +0.000 NA
BRANCH   6  10
ATOM     10  C   UNL     1      45.638   3.943   8.772  0.00  0.00    +0.000 A 
ATOM     11  C   UNL     1      46.504   4.476   7.781  0.00  0.00    +0.000 A 
ATOM     12  C   UNL     1      47.024   3.703   6.739  0.00  0.00    +0.000 A 
ATOM     13  C   UNL     1      46.739   2.347   6.680  0.00  0.00    +0.000 A 
ATOM     14  C   UNL     1      45.938   1.775   7.663  0.00  0.00    +0.000 A 
ATOM     15  C   UNL     1      45.380   2.556   8.687  0.00  0.00    +0.000 A 
ATOM     16 CL   UNL     1      44.314   1.701   9.754  0.00  0.00    +0.000 Cl
ENDBRANCH   6  10
ENDBRANCH   1   4
BRANCH   1  17
ATOM     17  N   UNL     1      47.384   6.790  12.765  0.00  0.00    +0.000 N 
ATOM     18  H   UNL     1      48.217   6.708  12.189  0.00  0.00    +0.000 HD
BRANCH  17  22
ATOM     19  C   UNL     1      47.562   4.262  15.996  0.00  0.00    +0.000 A 
ATOM     20  C   UNL     1      48.303   5.428  15.907  0.00  0.00    +0.000 A 
ATOM     21  N   UNL     1      48.260   6.241  14.824  0.00  0.00    +0.000 NA
ATOM     22  C   UNL     1      47.439   5.880  13.809  0.00  0.00    +0.000 A 
ATOM     23  C   UNL     1      46.702   4.701  13.911  0.00  0.00    +0.000 A 
ATOM     24  N   UNL     1      46.748   3.865  14.988  0.00  0.00    +0.000 NA
BRANCH  19  26
ATOM     25  N   UNL     1      47.675   2.722  18.078  0.00  0.00    +0.000 NA
ATOM     26  C   UNL     1      47.612   3.442  17.165  0.00  0.00    +0.000 C 
ENDBRANCH  19  26
ENDBRANCH  17  22
ENDBRANCH   1  17
TORSDOF 5
ENDMDL
MODEL 4
REMARK VINA RESULT:    -6.704      3.367      7.043
REMARK INTER + INTRA:          -9.468
REMARK INTER:                  -8.779
REMARK INTRA:                  -0.690
REMARK UNBOUND:                -0.804
REMARK  Name = 
REMARK  5 active torsions:
REMARK  status: ('A' for Active; 'I' for Inactive)
REMARK    1  A    between atoms: C_2  and  C_3
REMARK    2  A    between atoms: C_6  and  N_7
REMARK    3  A    between atoms: N_7  and  C_8
REMARK    4  A    between atoms: C_8  and  C_9
REMARK    5  A    between atoms: C_11  and  C_12
REMARK                            x       y       z     vdW  Elec       q    Type
REMARK                         _______ _______ _______ _____ _____    ______ ____
ROOT
ATOM      1  C   UNL     1      48.325   8.336  12.870  0.00  0.00    +0.000 C 
ATOM      2  C   UNL     1      49.306   9.329  12.244  0.00  0.00    +0.000 C 
ATOM      3  C   UNL     1      48.532   9.723  13.458  0.00  0.00    +0.000 C 
ENDROOT
BRANCH   1   4
ATOM      4  C   UNL     1      47.006   8.130  12.110  0.00  0.00    +0.000 A 
ATOM      5  C   UNL     1      46.780   6.926  11.442  0.00  0.00    +0.000 A 
ATOM      6  C   UNL     1      45.490   6.521  11.064  0.00  0.00    +0.000 A 
ATOM      7  C   UNL     1      44.463   7.418  11.364  0.00  0.00    +0.000 A 
ATOM      8  C   UNL     1      44.770   8.662  11.892  0.00  0.00    +0.000 A 
ATOM      9  N   UNL     1      46.008   9.032  12.267  0.00  0.00    +0.000 NA
BRANCH   6  10
ATOM     10  C   UNL     1      45.280   5.189  10.424  0.00  0.00    +0.000 A 
ATOM     11  C   UNL     1      45.624   5.025   9.057  0.00  0.00    +0.000 A 
ATOM     12  C   UNL     1      45.347   3.855   8.345  0.00  0.00    +0.000 A 
ATOM     13  C   UNL     1      44.761   2.778   8.992  0.00  0.00    +0.000 A 
ATOM     14  C   UNL     1      44.457   2.879  10.346  0.00  0.00    +0.000 A 
ATOM     15  C   UNL     1      44.695   4.068  11.054  0.00  0.00    +0.000 A 
ATOM     16 CL   UNL     1      44.147   4.056  12.698  0.00  0.00    +0.000 Cl
ENDBRANCH   6  10
ENDBRANCH   1   4
BRANCH   1  17
ATOM     17  N   UNL     1      48.947   7.140  13.433  0.00  0.00    +0.000 N 
ATOM     18  H   UNL     1      49.689   6.684  12.909  0.00  0.00    +0.000 HD
BRANCH  17  22
ATOM     19  C   UNL     1      47.583   4.467  16.236  0.00  0.00    +0.000 A 
ATOM     20  C   UNL     1      47.270   4.377  14.891  0.00  0.00    +0.000 A 
ATOM     21  N   UNL     1      47.701   5.281  13.977  0.00  0.00    +0.000 NA
ATOM     22  C   UNL     1      48.480   6.294  14.426  0.00  0.00    +0.000 A 
ATOM     23  C   UNL     1      48.784   6.374  15.784  0.00  0.00    +0.000 A 
ATOM     24  N   UNL     1      48.344   5.480  16.717  0.00  0.00    +0.000 NA
BRANCH  19  26
ATOM     25  N   UNL     1      46.750   2.637  17.871  0.00  0.00    +0.000 NA
ATOM     26  C   UNL     1      47.133   3.480  17.167  0.00  0.00    +0.000 C 
ENDBRANCH  19  26
ENDBRANCH  17  22
ENDBRANCH   1  17
TORSDOF 5
ENDMDL
MODEL 5
REMARK VINA RESULT:    -6.277      3.965      8.018
REMARK INTER + INTRA:          -8.916
REMARK INTER:                  -7.998
REMARK INTRA:                  -0.919
REMARK UNBOUND:                -0.804
REMARK  Name = 
REMARK  5 active torsions:
REMARK  status: ('A' for Active; 'I' for Inactive)
REMARK    1  A    between atoms: C_2  and  C_3
REMARK    2  A    between atoms: C_6  and  N_7
REMARK    3  A    between atoms: N_7  and  C_8
REMARK    4  A    between atoms: C_8  and  C_9
REMARK    5  A    between atoms: C_11  and  C_12
REMARK                            x       y       z     vdW  Elec       q    Type
REMARK                         _______ _______ _______ _____ _____    ______ ____
ROOT
ATOM      1  C   UNL     1      49.281   7.848  12.512  0.00  0.00    +0.000 C 
ATOM      2  C   UNL     1      50.296   7.766  11.370  0.00  0.00    +0.000 C 
ATOM      3  C   UNL     1      50.162   9.033  12.147  0.00  0.00    +0.000 C 
ENDROOT
BRANCH   1   4
ATOM      4  C   UNL     1      47.809   7.965  12.092  0.00  0.00    +0.000 A 
ATOM      5  C   UNL     1      47.063   6.805  11.877  0.00  0.00    +0.000 A 
ATOM      6  C   UNL     1      45.659   6.821  11.871  0.00  0.00    +0.000 A 
ATOM      7  C   UNL     1      45.067   8.072  12.050  0.00  0.00    +0.000 A 
ATOM      8  C   UNL     1      45.863   9.206  12.107  0.00  0.00    +0.000 A 
ATOM      9  N   UNL     1      47.207   9.178  12.130  0.00  0.00    +0.000 NA
BRANCH   6  10
ATOM     10  C   UNL     1      44.897   5.547  11.720  0.00  0.00    +0.000 A 
ATOM     11  C   UNL     1      44.159   5.055  12.829  0.00  0.00    +0.000 A 
ATOM     12  C   UNL     1      43.520   3.812  12.819  0.00  0.00    +0.000 A 
ATOM     13  C   UNL     1      43.549   3.034  11.672  0.00  0.00    +0.000 A 
ATOM     14  C   UNL     1      44.215   3.503  10.545  0.00  0.00    +0.000 A 
ATOM     15  C   UNL     1      44.894   4.732  10.565  0.00  0.00    +0.000 A 
ATOM     16 CL   UNL     1      45.767   5.104   9.115  0.00  0.00    +0.000 Cl
ENDBRANCH   6  10
ENDBRANCH   1   4
BRANCH   1  17
ATOM     17  N   UNL     1      49.569   6.972  13.645  0.00  0.00    +0.000 N 
ATOM     18  H   UNL     1      49.874   6.020  13.459  0.00  0.00    +0.000 HD
BRANCH  17  22
ATOM     19  C   UNL     1      48.532   7.159  17.614  0.00  0.00    +0.000 A 
ATOM     20  C   UNL     1      48.668   5.967  16.924  0.00  0.00    +0.000 A 
ATOM     21  N   UNL     1      48.982   5.916  15.606  0.00  0.00    +0.000 NA
ATOM     22  C   UNL     1      49.179   7.095  14.969  0.00  0.00    +0.000 A 
ATOM     23  C   UNL     1      49.035   8.287  15.676  0.00  0.00    +0.000 A 
ATOM     24  N   UNL     1      48.704   8.354  16.998  0.00  0.00    +0.000 NA
BRANCH  19  26
ATOM     25  N   UNL     1      47.912   7.200  20.130  0.00  0.00    +0.000 NA
ATOM     26  C   UNL     1      48.227   7.174  19.010  0.00  0.00    +0.000 C 
ENDBRANCH  19  26
ENDBRANCH  17  22
ENDBRANCH   1  17
TORSDOF 5
ENDMDL
MODEL 6
REMARK VINA RESULT:    -6.265      4.960      8.090
REMARK INTER + INTRA:          -8.901
REMARK INTER:                  -8.610
REMARK INTRA:                  -0.291
REMARK UNBOUND:                -0.804
REMARK  Name = 
REMARK  5 active torsions:
REMARK  status: ('A' for Active; 'I' for Inactive)
REMARK    1  A    between atoms: C_2  and  C_3
REMARK    2  A    between atoms: C_6  and  N_7
REMARK    3  A    between atoms: N_7  and  C_8
REMARK    4  A    between atoms: C_8  and  C_9
REMARK    5  A    between atoms: C_11  and  C_12
REMARK                            x       y       z     vdW  Elec       q    Type
REMARK                         _______ _______ _______ _____ _____    ______ ____
ROOT
ATOM      1  C   UNL     1      48.216   4.527  17.015  0.00  0.00    +0.000 C 
ATOM      2  C   UNL     1      47.097   4.952  17.967  0.00  0.00    +0.000 C 
ATOM      3  C   UNL     1      47.080   3.582  17.376  0.00  0.00    +0.000 C 
ENDROOT
BRANCH   1   4
ATOM      4  C   UNL     1      48.155   5.124  15.602  0.00  0.00    +0.000 A 
ATOM      5  C   UNL     1      47.155   4.705  14.722  0.00  0.00    +0.000 A 
ATOM      6  C   UNL     1      46.805   5.457  13.590  0.00  0.00    +0.000 A 
ATOM      7  C   UNL     1      47.549   6.620  13.382  0.00  0.00    +0.000 A 
ATOM      8  C   UNL     1      48.627   6.902  14.206  0.00  0.00    +0.000 A 
ATOM      9  N   UNL     1      48.942   6.184  15.300  0.00  0.00    +0.000 NA
BRANCH   6  10
ATOM     10  C   UNL     1      45.675   5.019  12.719  0.00  0.00    +0.000 A 
ATOM     11  C   UNL     1      45.435   3.629  12.557  0.00  0.00    +0.000 A 
ATOM     12  C   UNL     1      44.482   3.127  11.667  0.00  0.00    +0.000 A 
ATOM     13  C   UNL     1      43.691   4.002  10.940  0.00  0.00    +0.000 A 
ATOM     14  C   UNL     1      43.857   5.373  11.109  0.00  0.00    +0.000 A 
ATOM     15  C   UNL     1      44.842   5.882  11.971  0.00  0.00    +0.000 A 
ATOM     16 CL   UNL     1      44.988   7.608  11.969  0.00  0.00    +0.000 Cl
ENDBRANCH   6  10
ENDBRANCH   1   4
BRANCH   1  17
ATOM     17  N   UNL     1      49.538   4.442  17.631  0.00  0.00    +0.000 N 
ATOM     18  H   UNL     1      49.991   5.300  17.932  0.00  0.00    +0.000 HD
BRANCH  17  22
ATOM     19  C   UNL     1      52.356   1.455  17.682  0.00  0.00    +0.000 A 
ATOM     20  C   UNL     1      52.606   2.738  18.137  0.00  0.00    +0.000 A 
ATOM     21  N   UNL     1      51.679   3.726  18.089  0.00  0.00    +0.000 NA
ATOM     22  C   UNL     1      50.463   3.410  17.583  0.00  0.00    +0.000 A 
ATOM     23  C   UNL     1      50.226   2.115  17.126  0.00  0.00    +0.000 A 
ATOM     24  N   UNL     1      51.154   1.116  17.154  0.00  0.00    +0.000 NA
BRANCH  19  26
ATOM     25  N   UNL     1      54.195  -0.359  17.887  0.00  0.00    +0.000 NA
ATOM     26  C   UNL     1      53.349   0.431  17.773  0.00  0.00    +0.000 C 
ENDBRANCH  19  26
ENDBRANCH  17  22
ENDBRANCH   1  17
TORSDOF 5
ENDMDL
MODEL 7
REMARK VINA RESULT:    -6.242      3.596      6.019
REMARK INTER + INTRA:          -8.871
REMARK INTER:                  -8.075
REMARK INTRA:                  -0.796
REMARK UNBOUND:                -0.804
REMARK  Name = 
REMARK  5 active torsions:
REMARK  status: ('A' for Active; 'I' for Inactive)
REMARK    1  A    between atoms: C_2  and  C_3
REMARK    2  A    between atoms: C_6  and  N_7
REMARK    3  A    between atoms: N_7  and  C_8
REMARK    4  A    between atoms: C_8  and  C_9
REMARK    5  A    between atoms: C_11  and  C_12
REMARK                            x       y       z     vdW  Elec       q    Type
REMARK                         _______ _______ _______ _____ _____    ______ ____
ROOT
ATOM      1  C   UNL     1      48.028   7.939  12.587  0.00  0.00    +0.000 C 
ATOM      2  C   UNL     1      48.970   8.912  11.876  0.00  0.00    +0.000 C 
ATOM      3  C   UNL     1      49.284   7.453  11.880  0.00  0.00    +0.000 C 
ENDROOT
BRANCH   1   4
ATOM      4  C   UNL     1      48.093   7.944  14.121  0.00  0.00    +0.000 A 
ATOM      5  C   UNL     1      48.565   6.815  14.792  0.00  0.00    +0.000 A 
ATOM      6  C   UNL     1      49.007   6.878  16.123  0.00  0.00    +0.000 A 
ATOM      7  C   UNL     1      48.903   8.127  16.737  0.00  0.00    +0.000 A 
ATOM      8  C   UNL     1      48.287   9.172  16.066  0.00  0.00    +0.000 A 
ATOM      9  N   UNL     1      47.883   9.106  14.785  0.00  0.00    +0.000 NA
BRANCH   6  10
ATOM     10  C   UNL     1      49.580   5.666  16.779  0.00  0.00    +0.000 A 
ATOM     11  C   UNL     1      50.971   5.636  17.064  0.00  0.00    +0.000 A 
ATOM     12  C   UNL     1      51.614   4.499  17.561  0.00  0.00    +0.000 A 
ATOM     13  C   UNL     1      50.877   3.360  17.845  0.00  0.00    +0.000 A 
ATOM     14  C   UNL     1      49.502   3.366  17.631  0.00  0.00    +0.000 A 
ATOM     15  C   UNL     1      48.859   4.492  17.092  0.00  0.00    +0.000 A 
ATOM     16 CL   UNL     1      47.167   4.283  16.782  0.00  0.00    +0.000 Cl
ENDBRANCH   6  10
ENDBRANCH   1   4
BRANCH   1  17
ATOM     17  N   UNL     1      46.698   7.836  11.991  0.00  0.00    +0.000 N 
ATOM     18  H   UNL     1      46.183   8.691  11.799  0.00  0.00    +0.000 HD
BRANCH  17  22
ATOM     19  C   UNL     1      44.328   4.492  11.735  0.00  0.00    +0.000 A 
ATOM     20  C   UNL     1      45.231   4.856  10.751  0.00  0.00    +0.000 A 
ATOM     21  N   UNL     1      45.988   5.978  10.830  0.00  0.00    +0.000 NA
ATOM     22  C   UNL     1      45.844   6.746  11.936  0.00  0.00    +0.000 A 
ATOM     23  C   UNL     1      44.928   6.369  12.918  0.00  0.00    +0.000 A 
ATOM     24  N   UNL     1      44.149   5.252  12.843  0.00  0.00    +0.000 NA
BRANCH  19  26
ATOM     25  N   UNL     1      42.995   2.282  11.504  0.00  0.00    +0.000 NA
ATOM     26  C   UNL     1      43.566   3.288  11.630  0.00  0.00    +0.000 C 
ENDBRANCH  19  26
ENDBRANCH  17  22
ENDBRANCH   1  17
TORSDOF 5
ENDMDL
MODEL 8
REMARK VINA RESULT:    -6.215      4.002      8.136
REMARK INTER + INTRA:          -8.836
REMARK INTER:                  -8.491
REMARK INTRA:                  -0.344
REMARK UNBOUND:                -0.804
REMARK  Name = 
REMARK  5 active torsions:
REMARK  status: ('A' for Active; 'I' for Inactive)
REMARK    1  A    between atoms: C_2  and  C_3
REMARK    2  A    between atoms: C_6  and  N_7
REMARK    3  A    between atoms: N_7  and  C_8
REMARK    4  A    between atoms: C_8  and  C_9
REMARK    5  A    between atoms: C_11  and  C_12
REMARK                            x       y       z     vdW  Elec       q    Type
REMARK                         _______ _______ _______ _____ _____    ______ ____
ROOT
ATOM      1  C   UNL     1      48.216   7.235  14.217  0.00  0.00    +0.000 C 
ATOM      2  C   UNL     1      49.672   7.408  13.780  0.00  0.00    +0.000 C 
ATOM      3  C   UNL     1      49.012   8.479  14.583  0.00  0.00    +0.000 C 
ENDROOT
BRANCH   1   4
ATOM      4  C   UNL     1      47.160   7.426  13.119  0.00  0.00    +0.000 A 
ATOM      5  C   UNL     1      46.854   6.362  12.269  0.00  0.00    +0.000 A 
ATOM      6  C   UNL     1      45.668   6.334  11.519  0.00  0.00    +0.000 A 
ATOM      7  C   UNL     1      44.843   7.453  11.648  0.00  0.00    +0.000 A 
ATOM      8  C   UNL     1      45.275   8.541  12.391  0.00  0.00    +0.000 A 
ATOM      9  N   UNL     1      46.405   8.551  13.120  0.00  0.00    +0.000 NA
BRANCH   6  10
ATOM     10  C   UNL     1      45.338   5.142  10.684  0.00  0.00    +0.000 A 
ATOM     11  C   UNL     1      45.732   5.130   9.321  0.00  0.00    +0.000 A 
ATOM     12  C   UNL     1      45.358   4.115   8.436  0.00  0.00    +0.000 A 
ATOM     13  C   UNL     1      44.616   3.038   8.898  0.00  0.00    +0.000 A 
ATOM     14  C   UNL     1      44.255   2.984  10.240  0.00  0.00    +0.000 A 
ATOM     15  C   UNL     1      44.593   4.023  11.123  0.00  0.00    +0.000 A 
ATOM     16 CL   UNL     1      43.962   3.848  12.727  0.00  0.00    +0.000 Cl
ENDBRANCH   6  10
ENDBRANCH   1   4
BRANCH   1  17
ATOM     17  N   UNL     1      47.990   6.139  15.156  0.00  0.00    +0.000 N 
ATOM     18  H   UNL     1      47.144   5.584  15.062  0.00  0.00    +0.000 HD
BRANCH  17  22
ATOM     19  C   UNL     1      49.884   5.382  18.721  0.00  0.00    +0.000 A 
ATOM     20  C   UNL     1      49.958   4.532  17.630  0.00  0.00    +0.000 A 
ATOM     21  N   UNL     1      49.305   4.776  16.467  0.00  0.00    +0.000 NA
ATOM     22  C   UNL     1      48.571   5.912  16.394  0.00  0.00    +0.000 A 
ATOM     23  C   UNL     1      48.503   6.756  17.502  0.00  0.00    +0.000 A 
ATOM     24  N   UNL     1      49.142   6.515  18.683  0.00  0.00    +0.000 NA
BRANCH  19  26
ATOM     25  N   UNL     1      51.182   4.815  20.891  0.00  0.00    +0.000 NA
ATOM     26  C   UNL     1      50.608   5.106  19.922  0.00  0.00    +0.000 C 
ENDBRANCH  19  26
ENDBRANCH  17  22
ENDBRANCH   1  17
TORSDOF 5
ENDMDL
MODEL 9
REMARK VINA RESULT:    -5.892      3.913      6.526
REMARK INTER + INTRA:          -8.418
REMARK INTER:                  -7.798
REMARK INTRA:                  -0.621
REMARK UNBOUND:                -0.804
REMARK  Name = 
REMARK  5 active torsions:
REMARK  status: ('A' for Active; 'I' for Inactive)
REMARK    1  A    between atoms: C_2  and  C_3
REMARK    2  A    between atoms: C_6  and  N_7
REMARK    3  A    between atoms: N_7  and  C_8
REMARK    4  A    between atoms: C_8  and  C_9
REMARK    5  A    between atoms: C_11  and  C_12
REMARK                            x       y       z     vdW  Elec       q    Type
REMARK                         _______ _______ _______ _____ _____    ______ ____
ROOT
ATOM      1  C   UNL     1      48.121   7.718  13.178  0.00  0.00    +0.000 C 
ATOM      2  C   UNL     1      48.239   8.889  12.201  0.00  0.00    +0.000 C 
ATOM      3  C   UNL     1      48.650   7.523  11.765  0.00  0.00    +0.000 C 
ENDROOT
BRANCH   1   4
ATOM      4  C   UNL     1      49.177   7.667  14.292  0.00  0.00    +0.000 A 
ATOM      5  C   UNL     1      48.898   6.973  15.470  0.00  0.00    +0.000 A 
ATOM      6  C   UNL     1      49.917   6.565  16.345  0.00  0.00    +0.000 A 
ATOM      7  C   UNL     1      51.213   6.934  15.981  0.00  0.00    +0.000 A 
ATOM      8  C   UNL     1      51.408   7.752  14.878  0.00  0.00    +0.000 A 
ATOM      9  N   UNL     1      50.427   8.123  14.036  0.00  0.00    +0.000 NA
BRANCH   6  10
ATOM     10  C   UNL     1      49.586   5.753  17.553  0.00  0.00    +0.000 A 
ATOM     11  C   UNL     1      49.129   4.420  17.378  0.00  0.00    +0.000 A 
ATOM     12  C   UNL     1      48.679   3.632  18.441  0.00  0.00    +0.000 A 
ATOM     13  C   UNL     1      48.720   4.131  19.734  0.00  0.00    +0.000 A 
ATOM     14  C   UNL     1      49.212   5.413  19.955  0.00  0.00    +0.000 A 
ATOM     15  C   UNL     1      49.625   6.224  18.885  0.00  0.00    +0.000 A 
ATOM     16 CL   UNL     1      50.096   7.831  19.331  0.00  0.00    +0.000 Cl
ENDBRANCH   6  10
ENDBRANCH   1   4
BRANCH   1  17
ATOM     17  N   UNL     1      46.752   7.381  13.560  0.00  0.00    +0.000 N 
ATOM     18  H   UNL     1      46.330   7.872  14.343  0.00  0.00    +0.000 HD
BRANCH  17  22
ATOM     19  C   UNL     1      44.502   4.126  12.461  0.00  0.00    +0.000 A 
ATOM     20  C   UNL     1      44.148   5.428  12.154  0.00  0.00    +0.000 A 
ATOM     21  N   UNL     1      44.881   6.499  12.547  0.00  0.00    +0.000 NA
ATOM     22  C   UNL     1      46.009   6.251  13.254  0.00  0.00    +0.000 A 
ATOM     23  C   UNL     1      46.352   4.935  13.559  0.00  0.00    +0.000 A 
ATOM     24  N   UNL     1      45.615   3.850  13.184  0.00  0.00    +0.000 NA
BRANCH  19  26
ATOM     25  N   UNL     1      43.032   2.165  11.619  0.00  0.00    +0.000 NA
ATOM     26  C   UNL     1      43.719   3.020  12.008  0.00  0.00    +0.000 C 
ENDBRANCH  19  26
ENDBRANCH  17  22
ENDBRANCH   1  17
TORSDOF 5
ENDMDL
