MODEL 1
REMARK VINA RESULT:    -7.762      0.000      0.000
REMARK INTER + INTRA:         -12.820
REMARK INTER:                 -11.619
REMARK INTRA:                  -1.201
REMARK UNBOUND:                -1.201
REMARK  Name = 
REMARK  11 active torsions:
REMARK  status: ('A' for Active; 'I' for Inactive)
REMARK    1  A    between atoms: C_1  and  O_2
REMARK    2  A    between atoms: O_2  and  C_3
REMARK    3  A    between atoms: C_10  and  C_11
REMARK    4  A    between atoms: N_13  and  C_14
REMARK    5  A    between atoms: C_14  and  C_15
REMARK    6  A    between atoms: C_18  and  N_19
REMARK    7  A    between atoms: N_19  and  C_20
REMARK    8  A    between atoms: N_19  and  C_21
REMARK    9  A    between atoms: C_21  and  C_22
REMARK   10  A    between atoms: C_22  and  N_23
REMARK   11  A    between atoms: C_26  and  O_27
REMARK                            x       y       z     vdW  Elec       q    Type
REMARK                         _______ _______ _______ _____ _____    ______ ____
ROOT
ATOM      1  C   UNL     1      47.273   6.116  13.131  0.00  0.00    +0.000 A 
ATOM      2  C   UNL     1      46.870   6.609  11.889  0.00  0.00    +0.000 A 
ATOM      3  C   UNL     1      45.804   6.015  11.192  0.00  0.00    +0.000 A 
ATOM      4  C   UNL     1      45.094   4.910  11.694  0.00  0.00    +0.000 A 
ATOM      5  C   UNL     1      45.499   4.456  12.959  0.00  0.00    +0.000 A 
ATOM      6  C   UNL     1      46.554   5.050  13.673  0.00  0.00    +0.000 A 
ENDROOT
BRANCH   4   7
ATOM      7  N   UNL     1      44.021   4.360  10.992  0.00  0.00    +0.000 N 
ATOM      8  C   UNL     1      42.651   4.677  11.410  0.00  0.00    +0.000 C 
BRANCH   7   9
ATOM      9  C   UNL     1      44.142   3.964   9.571  0.00  0.00    +0.000 C 
BRANCH   9  10
ATOM     10  C   UNL     1      45.024   2.702   9.393  0.00  0.00    +0.000 C 
BRANCH  10  11
ATOM     11  N   UNL     1      45.537   2.441   8.024  0.00  0.00    +0.000 NA
ATOM     12  C   UNL     1      46.522   1.344   8.092  0.00  0.00    +0.000 C 
ATOM     13  C   UNL     1      47.039   0.959   6.707  0.00  0.00    +0.000 C 
ATOM     14  C   UNL     1      47.606   2.159   5.959  0.00  0.00    +0.000 C 
ATOM     15  C   UNL     1      46.635   3.332   5.986  0.00  0.00    +0.000 C 
ATOM     16  C   UNL     1      46.125   3.633   7.398  0.00  0.00    +0.000 C 
BRANCH  14  17
ATOM     17  O   UNL     1      48.869   2.543   6.504  0.00  0.00    +0.000 OA
ATOM     18  H   UNL     1      48.729   2.923   7.386  0.00  0.00    +0.000 HD
ENDBRANCH  14  17
ENDBRANCH  10  11
ENDBRANCH   9  10
ENDBRANCH   7   9
ENDBRANCH   4   7
BRANCH   1  19
ATOM     19  C   UNL     1      48.461   6.695  13.856  0.00  0.00    +0.000 C 
BRANCH  19  22
ATOM     20  C   UNL     1      49.159   7.353  16.111  0.00  0.00    +0.000 C 
ATOM     21  O   UNL     1      50.113   7.979  15.656  0.00  0.00    +0.000 OA
ATOM     22  N   UNL     1      48.324   6.633  15.290  0.00  0.00    +0.000 N 
ATOM     23  H   UNL     1      47.451   6.276  15.660  0.00  0.00    +0.000 HD
BRANCH  20  31
ATOM     24  C   UNL     1      48.853   4.814  18.422  0.00  0.00    +0.000 A 
ATOM     25  N   UNL     1      48.776   4.046  19.529  0.00  0.00    +0.000 NA
ATOM     26  C   UNL     1      48.623   4.653  20.709  0.00  0.00    +0.000 A 
ATOM     27  N   UNL     1      48.515   5.959  20.928  0.00  0.00    +0.000 NA
ATOM     28  C   UNL     1      48.603   6.688  19.803  0.00  0.00    +0.000 A 
ATOM     29  S   UNL     1      48.458   8.377  19.892  0.00  0.00    +0.000 S 
ATOM     30  C   UNL     1      48.683   8.532  18.216  0.00  0.00    +0.000 A 
ATOM     31  C   UNL     1      48.891   7.323  17.561  0.00  0.00    +0.000 A 
ATOM     32  C   UNL     1      48.797   6.217  18.509  0.00  0.00    +0.000 A 
BRANCH  24  34
ATOM     33  C   UNL     1      47.811   3.413  16.853  0.00  0.00    +0.000 C 
ATOM     34  O   UNL     1      48.956   4.192  17.193  0.00  0.00    +0.000 OA
ENDBRANCH  24  34
ENDBRANCH  20  31
ENDBRANCH  19  22
ENDBRANCH   1  19
TORSDOF 9
ENDMDL
MODEL 2
REMARK VINA RESULT:    -7.752      1.492      2.729
REMARK INTER + INTRA:         -12.806
REMARK INTER:                 -11.669
REMARK INTRA:                  -1.137
REMARK UNBOUND:                -1.201
REMARK  Name = 
REMARK  11 active torsions:
REMARK  status: ('A' for Active; 'I' for Inactive)
REMARK    1  A    between atoms: C_1  and  O_2
REMARK    2  A    between atoms: O_2  and  C_3
REMARK    3  A    between atoms: C_10  and  C_11
REMARK    4  A    between atoms: N_13  and  C_14
REMARK    5  A    between atoms: C_14  and  C_15
REMARK    6  A    between atoms: C_18  and  N_19
REMARK    7  A    between atoms: N_19  and  C_20
REMARK    8  A    between atoms: N_19  and  C_21
REMARK    9  A    between atoms: C_21  and  C_22
REMARK   10  A    between atoms: C_22  and  N_23
REMARK   11  A    between atoms: C_26  and  O_27
REMARK                            x       y       z     vdW  Elec       q    Type
REMARK                         _______ _______ _______ _____ _____    ______ ____
ROOT
ATOM      1  C   UNL     1      47.429   6.121  13.315  0.00  0.00    +0.000 A 
ATOM      2  C   UNL     1      46.776   4.972  13.760  0.00  0.00    +0.000 A 
ATOM      3  C   UNL     1      45.722   4.411  13.018  0.00  0.00    +0.000 A 
ATOM      4  C   UNL     1      45.272   4.964  11.807  0.00  0.00    +0.000 A 
ATOM      5  C   UNL     1      45.968   6.101  11.366  0.00  0.00    +0.000 A 
ATOM      6  C   UNL     1      47.032   6.663  12.091  0.00  0.00    +0.000 A 
ENDROOT
BRANCH   4   7
ATOM      7  N   UNL     1      44.242   4.369  11.077  0.00  0.00    +0.000 N 
ATOM      8  C   UNL     1      42.855   4.540  11.523  0.00  0.00    +0.000 C 
BRANCH   7   9
ATOM      9  C   UNL     1      44.381   4.076   9.633  0.00  0.00    +0.000 C 
BRANCH   9  10
ATOM     10  C   UNL     1      45.020   2.687   9.380  0.00  0.00    +0.000 C 
BRANCH  10  11
ATOM     11  N   UNL     1      45.540   2.437   8.012  0.00  0.00    +0.000 NA
ATOM     12  C   UNL     1      46.528   1.343   8.076  0.00  0.00    +0.000 C 
ATOM     13  C   UNL     1      47.052   0.969   6.691  0.00  0.00    +0.000 C 
ATOM     14  C   UNL     1      47.618   2.175   5.953  0.00  0.00    +0.000 C 
ATOM     15  C   UNL     1      46.642   3.345   5.984  0.00  0.00    +0.000 C 
ATOM     16  C   UNL     1      46.126   3.636   7.396  0.00  0.00    +0.000 C 
BRANCH  14  17
ATOM     17  O   UNL     1      48.877   2.561   6.505  0.00  0.00    +0.000 OA
ATOM     18  H   UNL     1      48.755   3.363   7.040  0.00  0.00    +0.000 HD
ENDBRANCH  14  17
ENDBRANCH  10  11
ENDBRANCH   9  10
ENDBRANCH   7   9
ENDBRANCH   4   7
BRANCH   1  19
ATOM     19  C   UNL     1      48.510   6.776  14.136  0.00  0.00    +0.000 C 
BRANCH  19  22
ATOM     20  C   UNL     1      48.827   6.342  16.528  0.00  0.00    +0.000 C 
ATOM     21  O   UNL     1      49.719   5.534  16.284  0.00  0.00    +0.000 OA
ATOM     22  N   UNL     1      48.130   6.958  15.515  0.00  0.00    +0.000 N 
ATOM     23  H   UNL     1      47.530   7.744  15.734  0.00  0.00    +0.000 HD
BRANCH  20  31
ATOM     24  C   UNL     1      47.912   9.247  18.139  0.00  0.00    +0.000 A 
ATOM     25  N   UNL     1      47.446  10.192  18.983  0.00  0.00    +0.000 NA
ATOM     26  C   UNL     1      47.128   9.826  20.228  0.00  0.00    +0.000 A 
ATOM     27  N   UNL     1      47.237   8.612  20.756  0.00  0.00    +0.000 NA
ATOM     28  C   UNL     1      47.697   7.699  19.883  0.00  0.00    +0.000 A 
ATOM     29  S   UNL     1      47.926   6.098  20.395  0.00  0.00    +0.000 S 
ATOM     30  C   UNL     1      48.451   5.628  18.850  0.00  0.00    +0.000 A 
ATOM     31  C   UNL     1      48.447   6.659  17.917  0.00  0.00    +0.000 A 
ATOM     32  C   UNL     1      48.037   7.908  18.550  0.00  0.00    +0.000 A 
BRANCH  24  34
ATOM     33  C   UNL     1      48.820  10.953  16.806  0.00  0.00    +0.000 C 
ATOM     34  O   UNL     1      48.294   9.628  16.868  0.00  0.00    +0.000 OA
ENDBRANCH  24  34
ENDBRANCH  20  31
ENDBRANCH  19  22
ENDBRANCH   1  19
TORSDOF 9
ENDMDL
MODEL 3
REMARK VINA RESULT:    -7.002      3.566      8.689
REMARK INTER + INTRA:         -11.682
REMARK INTER:                 -10.278
REMARK INTRA:                  -1.404
REMARK UNBOUND:                -1.201
REMARK  Name = 
REMARK  11 active torsions:
REMARK  status: ('A' for Active; 'I' for Inactive)
REMARK    1  A    between atoms: C_1  and  O_2
REMARK    2  A    between atoms: O_2  and  C_3
REMARK    3  A    between atoms: C_10  and  C_11
REMARK    4  A    between atoms: N_13  and  C_14
REMARK    5  A    between atoms: C_14  and  C_15
REMARK    6  A    between atoms: C_18  and  N_19
REMARK    7  A    between atoms: N_19  and  C_20
REMARK    8  A    between atoms: N_19  and  C_21
REMARK    9  A    between atoms: C_21  and  C_22
REMARK   10  A    between atoms: C_22  and  N_23
REMARK   11  A    between atoms: C_26  and  O_27
REMARK                            x       y       z     vdW  Elec       q    Type
REMARK                         _______ _______ _______ _____ _____    ______ ____
ROOT
ATOM      1  C   UNL     1      48.469   8.095  13.461  0.00  0.00    +0.000 A 
ATOM      2  C   UNL     1      49.025   6.984  14.096  0.00  0.00    +0.000 A 
ATOM      3  C   UNL     1      49.272   6.996  15.480  0.00  0.00    +0.000 A 
ATOM      4  C   UNL     1      48.980   8.107  16.290  0.00  0.00    +0.000 A 
ATOM      5  C   UNL     1      48.392   9.198  15.631  0.00  0.00    +0.000 A 
ATOM      6  C   UNL     1      48.126   9.193  14.251  0.00  0.00    +0.000 A 
ENDROOT
BRANCH   4   7
ATOM      7  N   UNL     1      49.210   8.080  17.666  0.00  0.00    +0.000 N 
ATOM      8  C   UNL     1      49.529   9.329  18.365  0.00  0.00    +0.000 C 
BRANCH   7   9
ATOM      9  C   UNL     1      48.616   7.037  18.533  0.00  0.00    +0.000 C 
BRANCH   9  10
ATOM     10  C   UNL     1      49.641   5.934  18.900  0.00  0.00    +0.000 C 
BRANCH  10  11
ATOM     11  N   UNL     1      49.246   4.536  18.593  0.00  0.00    +0.000 NA
ATOM     12  C   UNL     1      50.239   3.959  17.665  0.00  0.00    +0.000 C 
ATOM     13  C   UNL     1      49.947   2.490  17.363  0.00  0.00    +0.000 C 
ATOM     14  C   UNL     1      48.530   2.288  16.843  0.00  0.00    +0.000 C 
ATOM     15  C   UNL     1      47.513   2.980  17.741  0.00  0.00    +0.000 C 
ATOM     16  C   UNL     1      47.890   4.434  18.037  0.00  0.00    +0.000 C 
BRANCH  14  17
ATOM     17  O   UNL     1      48.412   2.758  15.500  0.00  0.00    +0.000 OA
ATOM     18  H   UNL     1      48.021   3.647  15.510  0.00  0.00    +0.000 HD
ENDBRANCH  14  17
ENDBRANCH  10  11
ENDBRANCH   9  10
ENDBRANCH   7   9
ENDBRANCH   4   7
BRANCH   1  19
ATOM     19  C   UNL     1      48.268   8.124  11.967  0.00  0.00    +0.000 C 
BRANCH  19  22
ATOM     20  C   UNL     1      46.250   6.873  11.358  0.00  0.00    +0.000 C 
ATOM     21  O   UNL     1      45.535   7.777  11.783  0.00  0.00    +0.000 OA
ATOM     22  N   UNL     1      47.619   6.937  11.468  0.00  0.00    +0.000 N 
ATOM     23  H   UNL     1      48.189   6.274  10.957  0.00  0.00    +0.000 HD
BRANCH  20  31
ATOM     24  C   UNL     1      44.481   4.186  12.594  0.00  0.00    +0.000 A 
ATOM     25  N   UNL     1      43.712   3.093  12.783  0.00  0.00    +0.000 NA
ATOM     26  C   UNL     1      43.373   2.366  11.715  0.00  0.00    +0.000 A 
ATOM     27  N   UNL     1      43.729   2.585  10.454  0.00  0.00    +0.000 NA
ATOM     28  C   UNL     1      44.487   3.684  10.306  0.00  0.00    +0.000 A 
ATOM     29  S   UNL     1      45.057   4.102   8.763  0.00  0.00    +0.000 S 
ATOM     30  C   UNL     1      45.835   5.484   9.372  0.00  0.00    +0.000 A 
ATOM     31  C   UNL     1      45.665   5.668  10.740  0.00  0.00    +0.000 A 
ATOM     32  C   UNL     1      44.896   4.564  11.304  0.00  0.00    +0.000 A 
BRANCH  24  34
ATOM     33  C   UNL     1      46.206   4.609  14.128  0.00  0.00    +0.000 C 
ATOM     34  O   UNL     1      44.880   4.912  13.699  0.00  0.00    +0.000 OA
ENDBRANCH  24  34
ENDBRANCH  20  31
ENDBRANCH  19  22
ENDBRANCH   1  19
TORSDOF 9
ENDMDL
MODEL 4
REMARK VINA RESULT:    -6.699      2.152      2.710
REMARK INTER + INTRA:         -11.229
REMARK INTER:                 -10.377
REMARK INTRA:                  -0.852
REMARK UNBOUND:                -1.201
REMARK  Name = 
REMARK  11 active torsions:
REMARK  status: ('A' for Active; 'I' for Inactive)
REMARK    1  A    between atoms: C_1  and  O_2
REMARK    2  A    between atoms: O_2  and  C_3
REMARK    3  A    between atoms: C_10  and  C_11
REMARK    4  A    between atoms: N_13  and  C_14
REMARK    5  A    between atoms: C_14  and  C_15
REMARK    6  A    between atoms: C_18  and  N_19
REMARK    7  A    between atoms: N_19  and  C_20
REMARK    8  A    between atoms: N_19  and  C_21
REMARK    9  A    between atoms: C_21  and  C_22
REMARK   10  A    between atoms: C_22  and  N_23
REMARK   11  A    between atoms: C_26  and  O_27
REMARK                            x       y       z     vdW  Elec       q    Type
REMARK                         _______ _______ _______ _____ _____    ______ ____
ROOT
ATOM      1  C   UNL     1      46.933   6.996  13.161  0.00  0.00    +0.000 A 
ATOM      2  C   UNL     1      46.442   5.843  13.774  0.00  0.00    +0.000 A 
ATOM      3  C   UNL     1      45.630   4.942  13.065  0.00  0.00    +0.000 A 
ATOM      4  C   UNL     1      45.270   5.145  11.721  0.00  0.00    +0.000 A 
ATOM      5  C   UNL     1      45.804   6.295  11.119  0.00  0.00    +0.000 A 
ATOM      6  C   UNL     1      46.629   7.197  11.813  0.00  0.00    +0.000 A 
ENDROOT
BRANCH   4   7
ATOM      7  N   UNL     1      44.486   4.217  11.034  0.00  0.00    +0.000 N 
ATOM      8  C   UNL     1      43.170   3.854  11.570  0.00  0.00    +0.000 C 
BRANCH   7   9
ATOM      9  C   UNL     1      44.621   4.015   9.574  0.00  0.00    +0.000 C 
BRANCH   9  10
ATOM     10  C   UNL     1      44.885   2.531   9.215  0.00  0.00    +0.000 C 
BRANCH  10  11
ATOM     11  N   UNL     1      45.483   2.270   7.881  0.00  0.00    +0.000 NA
ATOM     12  C   UNL     1      46.526   1.236   8.027  0.00  0.00    +0.000 C 
ATOM     13  C   UNL     1      47.136   0.851   6.680  0.00  0.00    +0.000 C 
ATOM     14  C   UNL     1      47.670   2.065   5.930  0.00  0.00    +0.000 C 
ATOM     15  C   UNL     1      46.631   3.177   5.878  0.00  0.00    +0.000 C 
ATOM     16  C   UNL     1      46.032   3.481   7.254  0.00  0.00    +0.000 C 
BRANCH  14  17
ATOM     17  O   UNL     1      48.878   2.537   6.528  0.00  0.00    +0.000 OA
ATOM     18  H   UNL     1      49.549   2.651   5.835  0.00  0.00    +0.000 HD
ENDBRANCH  14  17
ENDBRANCH  10  11
ENDBRANCH   9  10
ENDBRANCH   7   9
ENDBRANCH   4   7
BRANCH   1  19
ATOM     19  C   UNL     1      47.743   8.009  13.929  0.00  0.00    +0.000 C 
BRANCH  19  22
ATOM     20  C   UNL     1      50.125   8.072  14.503  0.00  0.00    +0.000 C 
ATOM     21  O   UNL     1      50.282   9.088  13.833  0.00  0.00    +0.000 OA
ATOM     22  N   UNL     1      48.908   7.433  14.554  0.00  0.00    +0.000 N 
ATOM     23  H   UNL     1      48.757   6.709  15.246  0.00  0.00    +0.000 HD
BRANCH  20  31
ATOM     24  C   UNL     1      50.324   5.694  16.991  0.00  0.00    +0.000 A 
ATOM     25  N   UNL     1      50.697   4.752  17.882  0.00  0.00    +0.000 NA
ATOM     26  C   UNL     1      52.002   4.566  18.096  0.00  0.00    +0.000 A 
ATOM     27  N   UNL     1      53.007   5.229  17.533  0.00  0.00    +0.000 NA
ATOM     28  C   UNL     1      52.595   6.153  16.649  0.00  0.00    +0.000 A 
ATOM     29  S   UNL     1      53.744   7.117  15.854  0.00  0.00    +0.000 S 
ATOM     30  C   UNL     1      52.533   7.926  14.982  0.00  0.00    +0.000 A 
ATOM     31  C   UNL     1      51.246   7.476  15.255  0.00  0.00    +0.000 A 
ATOM     32  C   UNL     1      51.283   6.445  16.287  0.00  0.00    +0.000 A 
BRANCH  24  34
ATOM     33  C   UNL     1      48.325   6.447  17.965  0.00  0.00    +0.000 C 
ATOM     34  O   UNL     1      48.976   5.931  16.805  0.00  0.00    +0.000 OA
ENDBRANCH  24  34
ENDBRANCH  20  31
ENDBRANCH  19  22
ENDBRANCH   1  19
TORSDOF 9
ENDMDL
MODEL 5
REMARK VINA RESULT:    -6.474      3.386      5.268
REMARK INTER + INTRA:         -10.892
REMARK INTER:                  -9.573
REMARK INTRA:                  -1.319
REMARK UNBOUND:                -1.201
REMARK  Name = 
REMARK  11 active torsions:
REMARK  status: ('A' for Active; 'I' for Inactive)
REMARK    1  A    between atoms: C_1  and  O_2
REMARK    2  A    between atoms: O_2  and  C_3
REMARK    3  A    between atoms: C_10  and  C_11
REMARK    4  A    between atoms: N_13  and  C_14
REMARK    5  A    between atoms: C_14  and  C_15
REMARK    6  A    between atoms: C_18  and  N_19
REMARK    7  A    between atoms: N_19  and  C_20
REMARK    8  A    between atoms: N_19  and  C_21
REMARK    9  A    between atoms: C_21  and  C_22
REMARK   10  A    between atoms: C_22  and  N_23
REMARK   11  A    between atoms: C_26  and  O_27
REMARK                            x       y       z     vdW  Elec       q    Type
REMARK                         _______ _______ _______ _____ _____    ______ ____
ROOT
ATOM      1  C   UNL     1      49.096   7.493  16.779  0.00  0.00    +0.000 A 
ATOM      2  C   UNL     1      48.853   6.363  15.998  0.00  0.00    +0.000 A 
ATOM      3  C   UNL     1      48.219   6.476  14.749  0.00  0.00    +0.000 A 
ATOM      4  C   UNL     1      47.799   7.710  14.223  0.00  0.00    +0.000 A 
ATOM      5  C   UNL     1      48.085   8.834  15.015  0.00  0.00    +0.000 A 
ATOM      6  C   UNL     1      48.732   8.736  16.259  0.00  0.00    +0.000 A 
ENDROOT
BRANCH   4   7
ATOM      7  N   UNL     1      47.197   7.794  12.966  0.00  0.00    +0.000 N 
ATOM      8  C   UNL     1      47.936   7.335  11.785  0.00  0.00    +0.000 C 
BRANCH   7   9
ATOM      9  C   UNL     1      45.726   7.773  12.806  0.00  0.00    +0.000 C 
BRANCH   9  10
ATOM     10  C   UNL     1      45.298   7.162  11.447  0.00  0.00    +0.000 C 
BRANCH  10  11
ATOM     11  N   UNL     1      44.399   5.982  11.507  0.00  0.00    +0.000 NA
ATOM     12  C   UNL     1      44.325   5.517  12.906  0.00  0.00    +0.000 C 
ATOM     13  C   UNL     1      43.352   4.351  13.066  0.00  0.00    +0.000 C 
ATOM     14  C   UNL     1      43.683   3.201  12.123  0.00  0.00    +0.000 C 
ATOM     15  C   UNL     1      43.870   3.699  10.696  0.00  0.00    +0.000 C 
ATOM     16  C   UNL     1      44.824   4.894  10.616  0.00  0.00    +0.000 C 
BRANCH  14  17
ATOM     17  O   UNL     1      44.848   2.504  12.566  0.00  0.00    +0.000 OA
ATOM     18  H   UNL     1      44.699   1.549  12.470  0.00  0.00    +0.000 HD
ENDBRANCH  14  17
ENDBRANCH  10  11
ENDBRANCH   9  10
ENDBRANCH   7   9
ENDBRANCH   4   7
BRANCH   1  19
ATOM     19  C   UNL     1      49.707   7.380  18.152  0.00  0.00    +0.000 C 
BRANCH  19  22
ATOM     20  C   UNL     1      51.763   6.045  18.102  0.00  0.00    +0.000 C 
ATOM     21  O   UNL     1      52.383   6.981  17.604  0.00  0.00    +0.000 OA
ATOM     22  N   UNL     1      50.413   6.138  18.348  0.00  0.00    +0.000 N 
ATOM     23  H   UNL     1      49.963   5.431  18.917  0.00  0.00    +0.000 HD
BRANCH  20  31
ATOM     24  C   UNL     1      51.072   2.743  17.400  0.00  0.00    +0.000 A 
ATOM     25  N   UNL     1      51.097   1.408  17.201  0.00  0.00    +0.000 NA
ATOM     26  C   UNL     1      52.129   0.715  17.688  0.00  0.00    +0.000 A 
ATOM     27  N   UNL     1      53.156   1.194  18.383  0.00  0.00    +0.000 NA
ATOM     28  C   UNL     1      53.099   2.525  18.553  0.00  0.00    +0.000 A 
ATOM     29  S   UNL     1      54.317   3.304  19.443  0.00  0.00    +0.000 S 
ATOM     30  C   UNL     1      53.593   4.820  19.196  0.00  0.00    +0.000 A 
ATOM     31  C   UNL     1      52.436   4.773  18.427  0.00  0.00    +0.000 A 
ATOM     32  C   UNL     1      52.118   3.392  18.081  0.00  0.00    +0.000 A 
BRANCH  24  34
ATOM     33  C   UNL     1      48.734   2.943  17.407  0.00  0.00    +0.000 C 
ATOM     34  O   UNL     1      49.982   3.458  16.946  0.00  0.00    +0.000 OA
ENDBRANCH  24  34
ENDBRANCH  20  31
ENDBRANCH  19  22
ENDBRANCH   1  19
TORSDOF 9
ENDMDL
MODEL 6
REMARK VINA RESULT:    -6.201      2.946      9.109
REMARK INTER + INTRA:         -10.484
REMARK INTER:                  -9.113
REMARK INTRA:                  -1.371
REMARK UNBOUND:                -1.201
REMARK  Name = 
REMARK  11 active torsions:
REMARK  status: ('A' for Active; 'I' for Inactive)
REMARK    1  A    between atoms: C_1  and  O_2
REMARK    2  A    between atoms: O_2  and  C_3
REMARK    3  A    between atoms: C_10  and  C_11
REMARK    4  A    between atoms: N_13  and  C_14
REMARK    5  A    between atoms: C_14  and  C_15
REMARK    6  A    between atoms: C_18  and  N_19
REMARK    7  A    between atoms: N_19  and  C_20
REMARK    8  A    between atoms: N_19  and  C_21
REMARK    9  A    between atoms: C_21  and  C_22
REMARK   10  A    between atoms: C_22  and  N_23
REMARK   11  A    between atoms: C_26  and  O_27
REMARK                            x       y       z     vdW  Elec       q    Type
REMARK                         _______ _______ _______ _____ _____    ______ ____
ROOT
ATOM      1  C   UNL     1      48.299   7.933  12.881  0.00  0.00    +0.000 A 
ATOM      2  C   UNL     1      47.667   8.708  13.854  0.00  0.00    +0.000 A 
ATOM      3  C   UNL     1      48.256   8.896  15.116  0.00  0.00    +0.000 A 
ATOM      4  C   UNL     1      49.491   8.325  15.467  0.00  0.00    +0.000 A 
ATOM      5  C   UNL     1      50.120   7.577  14.459  0.00  0.00    +0.000 A 
ATOM      6  C   UNL     1      49.549   7.393  13.188  0.00  0.00    +0.000 A 
ENDROOT
BRANCH   4   7
ATOM      7  N   UNL     1      50.064   8.553  16.719  0.00  0.00    +0.000 N 
ATOM      8  C   UNL     1      50.639   9.869  17.016  0.00  0.00    +0.000 C 
BRANCH   7   9
ATOM      9  C   UNL     1      49.642   7.793  17.918  0.00  0.00    +0.000 C 
BRANCH   9  10
ATOM     10  C   UNL     1      50.368   6.428  18.026  0.00  0.00    +0.000 C 
BRANCH  10  11
ATOM     11  N   UNL     1      49.503   5.221  18.058  0.00  0.00    +0.000 NA
ATOM     12  C   UNL     1      50.272   4.078  17.528  0.00  0.00    +0.000 C 
ATOM     13  C   UNL     1      49.477   2.776  17.604  0.00  0.00    +0.000 C 
ATOM     14  C   UNL     1      48.125   2.894  16.912  0.00  0.00    +0.000 C 
ATOM     15  C   UNL     1      47.379   4.138  17.377  0.00  0.00    +0.000 C 
ATOM     16  C   UNL     1      48.249   5.397  17.314  0.00  0.00    +0.000 C 
BRANCH  14  17
ATOM     17  O   UNL     1      48.283   2.907  15.493  0.00  0.00    +0.000 OA
ATOM     18  H   UNL     1      48.933   3.588  15.254  0.00  0.00    +0.000 HD
ENDBRANCH  14  17
ENDBRANCH  10  11
ENDBRANCH   9  10
ENDBRANCH   7   9
ENDBRANCH   4   7
BRANCH   1  19
ATOM     19  C   UNL     1      47.647   7.661  11.550  0.00  0.00    +0.000 C 
BRANCH  19  22
ATOM     20  C   UNL     1      45.522   6.437  11.553  0.00  0.00    +0.000 C 
ATOM     21  O   UNL     1      44.895   7.484  11.691  0.00  0.00    +0.000 OA
ATOM     22  N   UNL     1      46.897   6.428  11.537  0.00  0.00    +0.000 N 
ATOM     23  H   UNL     1      47.385   5.590  11.246  0.00  0.00    +0.000 HD
BRANCH  20  31
ATOM     24  C   UNL     1      45.376   4.037   9.083  0.00  0.00    +0.000 A 
ATOM     25  N   UNL     1      45.213   2.920   8.343  0.00  0.00    +0.000 NA
ATOM     26  C   UNL     1      44.486   1.924   8.855  0.00  0.00    +0.000 A 
ATOM     27  N   UNL     1      43.870   1.907  10.033  0.00  0.00    +0.000 NA
ATOM     28  C   UNL     1      44.062   3.033  10.741  0.00  0.00    +0.000 A 
ATOM     29  S   UNL     1      43.324   3.197  12.260  0.00  0.00    +0.000 S 
ATOM     30  C   UNL     1      44.014   4.733  12.483  0.00  0.00    +0.000 A 
ATOM     31  C   UNL     1      44.825   5.143  11.431  0.00  0.00    +0.000 A 
ATOM     32  C   UNL     1      44.816   4.141  10.369  0.00  0.00    +0.000 A 
BRANCH  24  34
ATOM     33  C   UNL     1      47.030   4.693   7.552  0.00  0.00    +0.000 C 
ATOM     34  O   UNL     1      46.080   5.093   8.538  0.00  0.00    +0.000 OA
ENDBRANCH  24  34
ENDBRANCH  20  31
ENDBRANCH  19  22
ENDBRANCH   1  19
TORSDOF 9
ENDMDL
MODEL 7
REMARK VINA RESULT:    -6.136      3.920      8.698
REMARK INTER + INTRA:         -10.386
REMARK INTER:                  -8.925
REMARK INTRA:                  -1.460
REMARK UNBOUND:                -1.201
REMARK  Name = 
REMARK  11 active torsions:
REMARK  status: ('A' for Active; 'I' for Inactive)
REMARK    1  A    between atoms: C_1  and  O_2
REMARK    2  A    between atoms: O_2  and  C_3
REMARK    3  A    between atoms: C_10  and  C_11
REMARK    4  A    between atoms: N_13  and  C_14
REMARK    5  A    between atoms: C_14  and  C_15
REMARK    6  A    between atoms: C_18  and  N_19
REMARK    7  A    between atoms: N_19  and  C_20
REMARK    8  A    between atoms: N_19  and  C_21
REMARK    9  A    between atoms: C_21  and  C_22
REMARK   10  A    between atoms: C_22  and  N_23
REMARK   11  A    between atoms: C_26  and  O_27
REMARK                            x       y       z     vdW  Elec       q    Type
REMARK                         _______ _______ _______ _____ _____    ______ ____
ROOT
ATOM      1  C   UNL     1      48.301   8.714  15.367  0.00  0.00    +0.000 A 
ATOM      2  C   UNL     1      47.933   9.408  16.521  0.00  0.00    +0.000 A 
ATOM      3  C   UNL     1      48.245   8.902  17.794  0.00  0.00    +0.000 A 
ATOM      4  C   UNL     1      48.933   7.690  17.978  0.00  0.00    +0.000 A 
ATOM      5  C   UNL     1      49.319   7.029  16.801  0.00  0.00    +0.000 A 
ATOM      6  C   UNL     1      49.026   7.532  15.522  0.00  0.00    +0.000 A 
ENDROOT
BRANCH   4   7
ATOM      7  N   UNL     1      49.255   7.226  19.255  0.00  0.00    +0.000 N 
ATOM      8  C   UNL     1      50.203   7.986  20.075  0.00  0.00    +0.000 C 
BRANCH   7   9
ATOM      9  C   UNL     1      48.321   6.383  20.034  0.00  0.00    +0.000 C 
BRANCH   9  10
ATOM     10  C   UNL     1      48.768   4.900  20.069  0.00  0.00    +0.000 C 
BRANCH  10  11
ATOM     11  N   UNL     1      49.387   4.367  18.829  0.00  0.00    +0.000 NA
ATOM     12  C   UNL     1      48.702   3.111  18.465  0.00  0.00    +0.000 C 
ATOM     13  C   UNL     1      49.227   2.539  17.149  0.00  0.00    +0.000 C 
ATOM     14  C   UNL     1      50.739   2.351  17.175  0.00  0.00    +0.000 C 
ATOM     15  C   UNL     1      51.440   3.613  17.660  0.00  0.00    +0.000 C 
ATOM     16  C   UNL     1      50.835   4.154  18.959  0.00  0.00    +0.000 C 
BRANCH  14  17
ATOM     17  O   UNL     1      51.096   1.236  17.993  0.00  0.00    +0.000 OA
ATOM     18  H   UNL     1      50.639   0.444  17.663  0.00  0.00    +0.000 HD
ENDBRANCH  14  17
ENDBRANCH  10  11
ENDBRANCH   9  10
ENDBRANCH   7   9
ENDBRANCH   4   7
BRANCH   1  19
ATOM     19  C   UNL     1      47.907   9.206  13.998  0.00  0.00    +0.000 C 
BRANCH  19  22
ATOM     20  C   UNL     1      46.806   7.585  12.525  0.00  0.00    +0.000 C 
ATOM     21  O   UNL     1      47.876   7.316  11.986  0.00  0.00    +0.000 OA
ATOM     22  N   UNL     1      46.722   8.559  13.492  0.00  0.00    +0.000 N 
ATOM     23  H   UNL     1      45.876   8.639  14.043  0.00  0.00    +0.000 HD
BRANCH  20  31
ATOM     24  C   UNL     1      45.656   4.358  12.902  0.00  0.00    +0.000 A 
ATOM     25  N   UNL     1      44.933   3.221  12.988  0.00  0.00    +0.000 NA
ATOM     26  C   UNL     1      43.687   3.227  12.505  0.00  0.00    +0.000 A 
ATOM     27  N   UNL     1      43.063   4.241  11.916  0.00  0.00    +0.000 NA
ATOM     28  C   UNL     1      43.812   5.355  11.857  0.00  0.00    +0.000 A 
ATOM     29  S   UNL     1      43.183   6.743  11.111  0.00  0.00    +0.000 S 
ATOM     30  C   UNL     1      44.599   7.621  11.441  0.00  0.00    +0.000 A 
ATOM     31  C   UNL     1      45.562   6.895  12.134  0.00  0.00    +0.000 A 
ATOM     32  C   UNL     1      45.106   5.525  12.341  0.00  0.00    +0.000 A 
BRANCH  24  34
ATOM     33  C   UNL     1      47.079   4.476  14.765  0.00  0.00    +0.000 C 
ATOM     34  O   UNL     1      46.962   4.344  13.349  0.00  0.00    +0.000 OA
ENDBRANCH  24  34
ENDBRANCH  20  31
ENDBRANCH  19  22
ENDBRANCH   1  19
TORSDOF 9
ENDMDL
MODEL 8
REMARK VINA RESULT:    -5.735      6.231      9.314
REMARK INTER + INTRA:          -9.786
REMARK INTER:                  -8.620
REMARK INTRA:                  -1.166
REMARK UNBOUND:                -1.201
REMARK  Name = 
REMARK  11 active torsions:
REMARK  status: ('A' for Active; 'I' for Inactive)
REMARK    1  A    between atoms: C_1  and  O_2
REMARK    2  A    between atoms: O_2  and  C_3
REMARK    3  A    between atoms: C_10  and  C_11
REMARK    4  A    between atoms: N_13  and  C_14
REMARK    5  A    between atoms: C_14  and  C_15
REMARK    6  A    between atoms: C_18  and  N_19
REMARK    7  A    between atoms: N_19  and  C_20
REMARK    8  A    between atoms: N_19  and  C_21
REMARK    9  A    between atoms: C_21  and  C_22
REMARK   10  A    between atoms: C_22  and  N_23
REMARK   11  A    between atoms: C_26  and  O_27
REMARK                            x       y       z     vdW  Elec       q    Type
REMARK                         _______ _______ _______ _____ _____    ______ ____
ROOT
ATOM      1  C   UNL     1      50.276   8.811  11.644  0.00  0.00    +0.000 A 
ATOM      2  C   UNL     1      49.553   7.657  11.949  0.00  0.00    +0.000 A 
ATOM      3  C   UNL     1      48.175   7.722  12.220  0.00  0.00    +0.000 A 
ATOM      4  C   UNL     1      47.458   8.931  12.202  0.00  0.00    +0.000 A 
ATOM      5  C   UNL     1      48.203  10.071  11.861  0.00  0.00    +0.000 A 
ATOM      6  C   UNL     1      49.577  10.017  11.574  0.00  0.00    +0.000 A 
ENDROOT
BRANCH   4   7
ATOM      7  N   UNL     1      46.084   8.961  12.447  0.00  0.00    +0.000 N 
ATOM      8  C   UNL     1      45.282  10.059  11.899  0.00  0.00    +0.000 C 
BRANCH   7   9
ATOM      9  C   UNL     1      45.315   7.725  12.715  0.00  0.00    +0.000 C 
BRANCH   9  10
ATOM     10  C   UNL     1      44.460   7.297  11.495  0.00  0.00    +0.000 C 
BRANCH  10  11
ATOM     11  N   UNL     1      44.115   5.856  11.402  0.00  0.00    +0.000 NA
ATOM     12  C   UNL     1      43.889   5.338  12.766  0.00  0.00    +0.000 C 
ATOM     13  C   UNL     1      43.448   3.875  12.751  0.00  0.00    +0.000 C 
ATOM     14  C   UNL     1      44.428   2.994  11.986  0.00  0.00    +0.000 C 
ATOM     15  C   UNL     1      44.749   3.589  10.621  0.00  0.00    +0.000 C 
ATOM     16  C   UNL     1      45.141   5.067  10.707  0.00  0.00    +0.000 C 
BRANCH  14  17
ATOM     17  O   UNL     1      45.625   2.797  12.739  0.00  0.00    +0.000 OA
ATOM     18  H   UNL     1      45.550   3.276  13.581  0.00  0.00    +0.000 HD
ENDBRANCH  14  17
ENDBRANCH  10  11
ENDBRANCH   9  10
ENDBRANCH   7   9
ENDBRANCH   4   7
BRANCH   1  19
ATOM     19  C   UNL     1      51.766   8.767  11.425  0.00  0.00    +0.000 C 
BRANCH  19  22
ATOM     20  C   UNL     1      53.245   7.467   9.964  0.00  0.00    +0.000 C 
ATOM     21  O   UNL     1      54.032   7.283  10.888  0.00  0.00    +0.000 OA
ATOM     22  N   UNL     1      52.124   8.247  10.128  0.00  0.00    +0.000 N 
ATOM     23  H   UNL     1      51.405   8.239   9.415  0.00  0.00    +0.000 HD
BRANCH  20  31
ATOM     24  C   UNL     1      53.308   8.771   6.774  0.00  0.00    +0.000 A 
ATOM     25  N   UNL     1      53.482   9.021   5.459  0.00  0.00    +0.000 NA
ATOM     26  C   UNL     1      53.850   8.011   4.667  0.00  0.00    +0.000 A 
ATOM     27  N   UNL     1      54.053   6.748   5.025  0.00  0.00    +0.000 NA
ATOM     28  C   UNL     1      53.877   6.541   6.341  0.00  0.00    +0.000 A 
ATOM     29  S   UNL     1      54.069   4.977   6.972  0.00  0.00    +0.000 S 
ATOM     30  C   UNL     1      53.731   5.519   8.546  0.00  0.00    +0.000 A 
ATOM     31  C   UNL     1      53.488   6.885   8.631  0.00  0.00    +0.000 A 
ATOM     32  C   UNL     1      53.532   7.487   7.302  0.00  0.00    +0.000 A 
BRANCH  24  34
ATOM     33  C   UNL     1      53.907  10.718   7.941  0.00  0.00    +0.000 C 
ATOM     34  O   UNL     1      52.875   9.798   7.590  0.00  0.00    +0.000 OA
ENDBRANCH  24  34
ENDBRANCH  20  31
ENDBRANCH  19  22
ENDBRANCH   1  19
TORSDOF 9
ENDMDL
MODEL 9
REMARK VINA RESULT:    -5.636      6.297      9.136
REMARK INTER + INTRA:          -9.638
REMARK INTER:                  -8.437
REMARK INTRA:                  -1.201
REMARK UNBOUND:                -1.201
REMARK  Name = 
REMARK  11 active torsions:
REMARK  status: ('A' for Active; 'I' for Inactive)
REMARK    1  A    between atoms: C_1  and  O_2
REMARK    2  A    between atoms: O_2  and  C_3
REMARK    3  A    between atoms: C_10  and  C_11
REMARK    4  A    between atoms: N_13  and  C_14
REMARK    5  A    between atoms: C_14  and  C_15
REMARK    6  A    between atoms: C_18  and  N_19
REMARK    7  A    between atoms: N_19  and  C_20
REMARK    8  A    between atoms: N_19  and  C_21
REMARK    9  A    between atoms: C_21  and  C_22
REMARK   10  A    between atoms: C_22  and  N_23
REMARK   11  A    between atoms: C_26  and  O_27
REMARK                            x       y       z     vdW  Elec       q    Type
REMARK                         _______ _______ _______ _____ _____    ______ ____
ROOT
ATOM      1  C   UNL     1      50.920   9.282  11.104  0.00  0.00    +0.000 A 
ATOM      2  C   UNL     1      50.790   7.926  11.406  0.00  0.00    +0.000 A 
ATOM      3  C   UNL     1      49.583   7.417  11.919  0.00  0.00    +0.000 A 
ATOM      4  C   UNL     1      48.460   8.228  12.153  0.00  0.00    +0.000 A 
ATOM      5  C   UNL     1      48.609   9.582  11.810  0.00  0.00    +0.000 A 
ATOM      6  C   UNL     1      49.804  10.100  11.284  0.00  0.00    +0.000 A 
ENDROOT
BRANCH   4   7
ATOM      7  N   UNL     1      47.266   7.690  12.635  0.00  0.00    +0.000 N 
ATOM      8  C   UNL     1      46.082   8.548  12.739  0.00  0.00    +0.000 C 
BRANCH   7   9
ATOM      9  C   UNL     1      46.958   6.247  12.511  0.00  0.00    +0.000 C 
BRANCH   9  10
ATOM     10  C   UNL     1      45.488   5.932  12.890  0.00  0.00    +0.000 C 
BRANCH  10  11
ATOM     11  N   UNL     1      44.690   5.193  11.880  0.00  0.00    +0.000 NA
ATOM     12  C   UNL     1      44.475   3.816  12.367  0.00  0.00    +0.000 C 
ATOM     13  C   UNL     1      43.589   3.010  11.419  0.00  0.00    +0.000 C 
ATOM     14  C   UNL     1      44.133   3.009   9.996  0.00  0.00    +0.000 C 
ATOM     15  C   UNL     1      44.461   4.423   9.534  0.00  0.00    +0.000 C 
ATOM     16  C   UNL     1      45.315   5.185  10.551  0.00  0.00    +0.000 C 
BRANCH  14  17
ATOM     17  O   UNL     1      45.284   2.171   9.896  0.00  0.00    +0.000 OA
ATOM     18  H   UNL     1      45.276   1.726   9.032  0.00  0.00    +0.000 HD
ENDBRANCH  14  17
ENDBRANCH  10  11
ENDBRANCH   9  10
ENDBRANCH   7   9
ENDBRANCH   4   7
BRANCH   1  19
ATOM     19  C   UNL     1      52.230   9.855  10.625  0.00  0.00    +0.000 C 
BRANCH  19  22
ATOM     20  C   UNL     1      52.711   9.688   8.227  0.00  0.00    +0.000 C 
ATOM     21  O   UNL     1      52.106  10.734   8.011  0.00  0.00    +0.000 OA
ATOM     22  N   UNL     1      52.767   9.146   9.490  0.00  0.00    +0.000 N 
ATOM     23  H   UNL     1      53.414   8.390   9.677  0.00  0.00    +0.000 HD
BRANCH  20  31
ATOM     24  C   UNL     1      53.295   6.347   7.617  0.00  0.00    +0.000 A 
ATOM     25  N   UNL     1      53.573   5.136   7.091  0.00  0.00    +0.000 NA
ATOM     26  C   UNL     1      54.144   5.087   5.884  0.00  0.00    +0.000 A 
ATOM     27  N   UNL     1      54.497   6.118   5.125  0.00  0.00    +0.000 NA
ATOM     28  C   UNL     1      54.198   7.305   5.680  0.00  0.00    +0.000 A 
ATOM     29  S   UNL     1      54.605   8.734   4.861  0.00  0.00    +0.000 S 
ATOM     30  C   UNL     1      53.935   9.689   6.095  0.00  0.00    +0.000 A 
ATOM     31  C   UNL     1      53.376   8.954   7.134  0.00  0.00    +0.000 A 
ATOM     32  C   UNL     1      53.575   7.527   6.905  0.00  0.00    +0.000 A 
BRANCH  24  34
ATOM     33  C   UNL     1      53.531   5.719   9.866  0.00  0.00    +0.000 C 
ATOM     34  O   UNL     1      52.756   6.407   8.887  0.00  0.00    +0.000 OA
ENDBRANCH  24  34
ENDBRANCH  20  31
ENDBRANCH  19  22
ENDBRANCH   1  19
TORSDOF 9
ENDMDL
