MODEL 1
REMARK VINA RESULT:    -8.529      0.000      0.000
REMARK INTER + INTRA:         -11.170
REMARK INTER:                 -10.523
REMARK INTRA:                  -0.647
REMARK UNBOUND:                -0.647
REMARK  Name = 
REMARK  4 active torsions:
REMARK  status: ('A' for Active; 'I' for Inactive)
REMARK    1  A    between atoms: C_2  and  C_4
REMARK    2  A    between atoms: N_8  and  C_9
REMARK    3  A    between atoms: C_9  and  C_10
REMARK    4  A    between atoms: C_14  and  N_15
REMARK                            x       y       z     vdW  Elec       q    Type
REMARK                         _______ _______ _______ _____ _____    ______ ____
ROOT
ATOM      1  C   UNL     1      46.602   2.651   7.485  0.00  0.00    +0.000 A 
ATOM      2  C   UNL     1      46.320   4.008   7.595  0.00  0.00    +0.000 A 
ATOM      3  C   UNL     1      45.373   4.426   8.531  0.00  0.00    +0.000 A 
ATOM      4  C   UNL     1      44.741   3.495   9.350  0.00  0.00    +0.000 A 
ATOM      5  N   UNL     1      43.758   3.803  10.263  0.00  0.00    +0.000 N 
ATOM      6  N   UNL     1      45.014   2.178   9.250  0.00  0.00    +0.000 NA
ATOM      7  C   UNL     1      45.919   1.781   8.316  0.00  0.00    +0.000 A 
ATOM      8  H   UNL     1      43.583   2.986  10.839  0.00  0.00    +0.000 HD
ENDROOT
BRANCH   1  10
ATOM      9  N   UNL     1      47.904   2.908   5.450  0.00  0.00    +0.000 N 
ATOM     10  C   UNL     1      47.566   2.108   6.505  0.00  0.00    +0.000 C 
ATOM     11  O   UNL     1      48.070   1.003   6.651  0.00  0.00    +0.000 OA
ATOM     12  H   UNL     1      48.635   2.562   4.840  0.00  0.00    +0.000 HD
ATOM     13  H   UNL     1      47.701   3.897   5.424  0.00  0.00    +0.000 HD
ENDBRANCH   1  10
BRANCH   5  14
ATOM     14  C   UNL     1      43.711   5.091  10.934  0.00  0.00    +0.000 C 
BRANCH  14  15
ATOM     15  C   UNL     1      44.883   5.265  11.878  0.00  0.00    +0.000 A 
ATOM     16  C   UNL     1      44.989   4.507  13.035  0.00  0.00    +0.000 A 
ATOM     17  C   UNL     1      46.060   4.748  13.881  0.00  0.00    +0.000 A 
ATOM     18  C   UNL     1      46.979   5.745  13.555  0.00  0.00    +0.000 A 
ATOM     19  C   UNL     1      46.815   6.496  12.391  0.00  0.00    +0.000 A 
ATOM     20  N   UNL     1      45.787   6.226  11.557  0.00  0.00    +0.000 NA
BRANCH  19  21
ATOM     21  N   UNL     1      47.722   7.500  12.023  0.00  0.00    +0.000 N 
ATOM     22  C   UNL     1      47.190   8.852  12.258  0.00  0.00    +0.000 C 
ATOM     23  C   UNL     1      48.184   9.903  11.835  0.00  0.00    +0.000 C 
ATOM     24  C   UNL     1      49.464   9.653  11.527  0.00  0.00    +0.000 C 
ATOM     25  C   UNL     1      50.020   8.261  11.613  0.00  0.00    +0.000 C 
ATOM     26  C   UNL     1      49.121   7.321  12.434  0.00  0.00    +0.000 C 
ENDBRANCH  19  21
ENDBRANCH  14  15
ENDBRANCH   5  14
TORSDOF 4
ENDMDL
MODEL 2
REMARK VINA RESULT:    -7.369      4.275      8.012
REMARK INTER + INTRA:          -9.740
REMARK INTER:                  -9.295
REMARK INTRA:                  -0.445
REMARK UNBOUND:                -0.647
REMARK  Name = 
REMARK  4 active torsions:
REMARK  status: ('A' for Active; 'I' for Inactive)
REMARK    1  A    between atoms: C_2  and  C_4
REMARK    2  A    between atoms: N_8  and  C_9
REMARK    3  A    between atoms: C_9  and  C_10
REMARK    4  A    between atoms: C_14  and  N_15
REMARK                            x       y       z     vdW  Elec       q    Type
REMARK                         _______ _______ _______ _____ _____    ______ ____
ROOT
ATOM      1  C   UNL     1      48.586   4.386  17.888  0.00  0.00    +0.000 A 
ATOM      2  C   UNL     1      48.695   5.503  17.068  0.00  0.00    +0.000 A 
ATOM      3  C   UNL     1      47.970   5.537  15.874  0.00  0.00    +0.000 A 
ATOM      4  C   UNL     1      47.142   4.473  15.530  0.00  0.00    +0.000 A 
ATOM      5  N   UNL     1      46.432   4.390  14.353  0.00  0.00    +0.000 N 
ATOM      6  N   UNL     1      47.030   3.389  16.324  0.00  0.00    +0.000 NA
ATOM      7  C   UNL     1      47.761   3.357  17.470  0.00  0.00    +0.000 A 
ATOM      8  H   UNL     1      45.788   3.609  14.417  0.00  0.00    +0.000 HD
ENDROOT
BRANCH   1  10
ATOM      9  N   UNL     1      48.634   3.830  20.252  0.00  0.00    +0.000 N 
ATOM     10  C   UNL     1      49.334   4.244  19.154  0.00  0.00    +0.000 C 
ATOM     11  O   UNL     1      50.538   4.451  19.211  0.00  0.00    +0.000 OA
ATOM     12  H   UNL     1      49.176   3.646  21.088  0.00  0.00    +0.000 HD
ATOM     13  H   UNL     1      47.711   3.424  20.193  0.00  0.00    +0.000 HD
ENDBRANCH   1  10
BRANCH   5  14
ATOM     14  C   UNL     1      45.946   5.575  13.666  0.00  0.00    +0.000 C 
BRANCH  14  15
ATOM     15  C   UNL     1      45.071   5.208  12.484  0.00  0.00    +0.000 A 
ATOM     16  C   UNL     1      43.706   5.450  12.504  0.00  0.00    +0.000 A 
ATOM     17  C   UNL     1      42.954   5.047  11.411  0.00  0.00    +0.000 A 
ATOM     18  C   UNL     1      43.583   4.404  10.346  0.00  0.00    +0.000 A 
ATOM     19  C   UNL     1      44.957   4.164  10.385  0.00  0.00    +0.000 A 
ATOM     20  N   UNL     1      45.683   4.594  11.441  0.00  0.00    +0.000 NA
BRANCH  19  21
ATOM     21  N   UNL     1      45.628   3.529   9.331  0.00  0.00    +0.000 N 
ATOM     22  C   UNL     1      45.317   2.093   9.248  0.00  0.00    +0.000 C 
ATOM     23  C   UNL     1      46.070   1.442   8.117  0.00  0.00    +0.000 C 
ATOM     24  C   UNL     1      46.729   2.114   7.163  0.00  0.00    +0.000 C 
ATOM     25  C   UNL     1      46.740   3.615   7.144  0.00  0.00    +0.000 C 
ATOM     26  C   UNL     1      45.641   4.220   8.034  0.00  0.00    +0.000 C 
ENDBRANCH  19  21
ENDBRANCH  14  15
ENDBRANCH   5  14
TORSDOF 4
ENDMDL
MODEL 3
REMARK VINA RESULT:    -7.236      2.775      6.627
REMARK INTER + INTRA:          -9.575
REMARK INTER:                  -8.963
REMARK INTRA:                  -0.612
REMARK UNBOUND:                -0.647
REMARK  Name = 
REMARK  4 active torsions:
REMARK  status: ('A' for Active; 'I' for Inactive)
REMARK    1  A    between atoms: C_2  and  C_4
REMARK    2  A    between atoms: N_8  and  C_9
REMARK    3  A    between atoms: C_9  and  C_10
REMARK    4  A    between atoms: C_14  and  N_15
REMARK                            x       y       z     vdW  Elec       q    Type
REMARK                         _______ _______ _______ _____ _____    ______ ____
ROOT
ATOM      1  C   UNL     1      49.635   7.885  12.422  0.00  0.00    +0.000 A 
ATOM      2  C   UNL     1      48.688   7.649  11.432  0.00  0.00    +0.000 A 
ATOM      3  C   UNL     1      47.496   7.011  11.777  0.00  0.00    +0.000 A 
ATOM      4  C   UNL     1      47.260   6.637  13.097  0.00  0.00    +0.000 A 
ATOM      5  N   UNL     1      46.142   5.956  13.524  0.00  0.00    +0.000 N 
ATOM      6  N   UNL     1      48.173   6.866  14.062  0.00  0.00    +0.000 NA
ATOM      7  C   UNL     1      49.341   7.465  13.708  0.00  0.00    +0.000 A 
ATOM      8  H   UNL     1      46.134   5.951  14.539  0.00  0.00    +0.000 HD
ENDROOT
BRANCH   1  10
ATOM      9  N   UNL     1      51.923   7.745  11.617  0.00  0.00    +0.000 N 
ATOM     10  C   UNL     1      50.938   8.527  12.151  0.00  0.00    +0.000 C 
ATOM     11  O   UNL     1      51.118   9.719  12.361  0.00  0.00    +0.000 OA
ATOM     12  H   UNL     1      52.777   8.219  11.349  0.00  0.00    +0.000 HD
ATOM     13  H   UNL     1      51.743   6.837  11.213  0.00  0.00    +0.000 HD
ENDBRANCH   1  10
BRANCH   5  14
ATOM     14  C   UNL     1      44.855   6.106  12.867  0.00  0.00    +0.000 C 
BRANCH  14  15
ATOM     15  C   UNL     1      44.466   4.847  12.119  0.00  0.00    +0.000 A 
ATOM     16  C   UNL     1      43.465   4.014  12.595  0.00  0.00    +0.000 A 
ATOM     17  C   UNL     1      43.190   2.852  11.889  0.00  0.00    +0.000 A 
ATOM     18  C   UNL     1      43.930   2.553  10.746  0.00  0.00    +0.000 A 
ATOM     19  C   UNL     1      44.942   3.414  10.321  0.00  0.00    +0.000 A 
ATOM     20  N   UNL     1      45.176   4.561  10.998  0.00  0.00    +0.000 NA
BRANCH  19  21
ATOM     21  N   UNL     1      45.702   3.155   9.173  0.00  0.00    +0.000 N 
ATOM     22  C   UNL     1      45.693   1.730   8.801  0.00  0.00    +0.000 C 
ATOM     23  C   UNL     1      46.533   1.488   7.574  0.00  0.00    +0.000 C 
ATOM     24  C   UNL     1      47.013   2.457   6.782  0.00  0.00    +0.000 C 
ATOM     25  C   UNL     1      46.711   3.900   7.062  0.00  0.00    +0.000 C 
ATOM     26  C   UNL     1      45.536   4.075   8.039  0.00  0.00    +0.000 C 
ENDBRANCH  19  21
ENDBRANCH  14  15
ENDBRANCH   5  14
TORSDOF 4
ENDMDL
MODEL 4
REMARK VINA RESULT:    -6.766      5.093      6.790
REMARK INTER + INTRA:          -8.995
REMARK INTER:                  -8.525
REMARK INTRA:                  -0.470
REMARK UNBOUND:                -0.647
REMARK  Name = 
REMARK  4 active torsions:
REMARK  status: ('A' for Active; 'I' for Inactive)
REMARK    1  A    between atoms: C_2  and  C_4
REMARK    2  A    between atoms: N_8  and  C_9
REMARK    3  A    between atoms: C_9  and  C_10
REMARK    4  A    between atoms: C_14  and  N_15
REMARK                            x       y       z     vdW  Elec       q    Type
REMARK                         _______ _______ _______ _____ _____    ______ ____
ROOT
ATOM      1  C   UNL     1      45.143   4.307  11.428  0.00  0.00    +0.000 A 
ATOM      2  C   UNL     1      45.668   5.581  11.613  0.00  0.00    +0.000 A 
ATOM      3  C   UNL     1      46.345   5.865  12.801  0.00  0.00    +0.000 A 
ATOM      4  C   UNL     1      46.503   4.878  13.768  0.00  0.00    +0.000 A 
ATOM      5  N   UNL     1      47.106   5.076  14.990  0.00  0.00    +0.000 N 
ATOM      6  N   UNL     1      46.000   3.639  13.592  0.00  0.00    +0.000 NA
ATOM      7  C   UNL     1      45.319   3.383  12.443  0.00  0.00    +0.000 A 
ATOM      8  H   UNL     1      47.241   4.175  15.436  0.00  0.00    +0.000 HD
ENDROOT
BRANCH   1  10
ATOM      9  N   UNL     1      44.435   4.766   9.150  0.00  0.00    +0.000 N 
ATOM     10  C   UNL     1      44.386   3.918  10.220  0.00  0.00    +0.000 C 
ATOM     11  O   UNL     1      43.770   2.863  10.166  0.00  0.00    +0.000 OA
ATOM     12  H   UNL     1      43.992   4.442   8.299  0.00  0.00    +0.000 HD
ATOM     13  H   UNL     1      45.114   5.510   9.071  0.00  0.00    +0.000 HD
ENDBRANCH   1  10
BRANCH   5  14
ATOM     14  C   UNL     1      48.167   6.052  15.172  0.00  0.00    +0.000 C 
BRANCH  14  15
ATOM     15  C   UNL     1      48.829   5.904  16.527  0.00  0.00    +0.000 A 
ATOM     16  C   UNL     1      48.649   6.857  17.518  0.00  0.00    +0.000 A 
ATOM     17  C   UNL     1      49.321   6.688  18.719  0.00  0.00    +0.000 A 
ATOM     18  C   UNL     1      50.159   5.585  18.886  0.00  0.00    +0.000 A 
ATOM     19  C   UNL     1      50.323   4.667  17.849  0.00  0.00    +0.000 A 
ATOM     20  N   UNL     1      49.634   4.825  16.697  0.00  0.00    +0.000 NA
BRANCH  19  21
ATOM     21  N   UNL     1      51.147   3.541  17.980  0.00  0.00    +0.000 N 
ATOM     22  C   UNL     1      50.619   2.369  17.263  0.00  0.00    +0.000 C 
ATOM     23  C   UNL     1      51.521   1.175  17.442  0.00  0.00    +0.000 C 
ATOM     24  C   UNL     1      52.755   1.231  17.962  0.00  0.00    +0.000 C 
ATOM     25  C   UNL     1      53.351   2.540  18.392  0.00  0.00    +0.000 C 
ATOM     26  C   UNL     1      52.593   3.748  17.815  0.00  0.00    +0.000 C 
ENDBRANCH  19  21
ENDBRANCH  14  15
ENDBRANCH   5  14
TORSDOF 4
ENDMDL
MODEL 5
REMARK VINA RESULT:    -6.598      3.267      5.682
REMARK INTER + INTRA:          -8.789
REMARK INTER:                  -8.120
REMARK INTRA:                  -0.669
REMARK UNBOUND:                -0.647
REMARK  Name = 
REMARK  4 active torsions:
REMARK  status: ('A' for Active; 'I' for Inactive)
REMARK    1  A    between atoms: C_2  and  C_4
REMARK    2  A    between atoms: N_8  and  C_9
REMARK    3  A    between atoms: C_9  and  C_10
REMARK    4  A    between atoms: C_14  and  N_15
REMARK                            x       y       z     vdW  Elec       q    Type
REMARK                         _______ _______ _______ _____ _____    ______ ____
ROOT
ATOM      1  C   UNL     1      44.543   4.091  11.449  0.00  0.00    +0.000 A 
ATOM      2  C   UNL     1      45.337   4.926  10.672  0.00  0.00    +0.000 A 
ATOM      3  C   UNL     1      45.865   6.083  11.249  0.00  0.00    +0.000 A 
ATOM      4  C   UNL     1      45.611   6.375  12.586  0.00  0.00    +0.000 A 
ATOM      5  N   UNL     1      46.042   7.515  13.227  0.00  0.00    +0.000 N 
ATOM      6  N   UNL     1      44.846   5.566  13.345  0.00  0.00    +0.000 NA
ATOM      7  C   UNL     1      44.316   4.457  12.764  0.00  0.00    +0.000 A 
ATOM      8  H   UNL     1      45.871   7.412  14.222  0.00  0.00    +0.000 HD
ENDROOT
BRANCH   1  10
ATOM      9  N   UNL     1      44.501   2.275   9.835  0.00  0.00    +0.000 N 
ATOM     10  C   UNL     1      43.916   2.861  10.922  0.00  0.00    +0.000 C 
ATOM     11  O   UNL     1      42.934   2.366  11.458  0.00  0.00    +0.000 OA
ATOM     12  H   UNL     1      44.118   1.384   9.545  0.00  0.00    +0.000 HD
ATOM     13  H   UNL     1      45.432   2.511   9.520  0.00  0.00    +0.000 HD
ENDBRANCH   1  10
BRANCH   5  14
ATOM     14  C   UNL     1      47.272   8.189  12.849  0.00  0.00    +0.000 C 
BRANCH  14  15
ATOM     15  C   UNL     1      48.403   7.852  13.800  0.00  0.00    +0.000 A 
ATOM     16  C   UNL     1      49.662   8.409  13.639  0.00  0.00    +0.000 A 
ATOM     17  C   UNL     1      50.666   8.023  14.514  0.00  0.00    +0.000 A 
ATOM     18  C   UNL     1      50.385   7.084  15.507  0.00  0.00    +0.000 A 
ATOM     19  C   UNL     1      49.107   6.536  15.612  0.00  0.00    +0.000 A 
ATOM     20  N   UNL     1      48.129   6.949  14.775  0.00  0.00    +0.000 NA
BRANCH  19  21
ATOM     21  N   UNL     1      48.782   5.598  16.601  0.00  0.00    +0.000 N 
ATOM     22  C   UNL     1      47.810   4.597  16.131  0.00  0.00    +0.000 C 
ATOM     23  C   UNL     1      47.471   3.618  17.225  0.00  0.00    +0.000 C 
ATOM     24  C   UNL     1      48.144   3.512  18.379  0.00  0.00    +0.000 C 
ATOM     25  C   UNL     1      49.339   4.377  18.657  0.00  0.00    +0.000 C 
ATOM     26  C   UNL     1      49.893   5.038  17.383  0.00  0.00    +0.000 C 
ENDBRANCH  19  21
ENDBRANCH  14  15
ENDBRANCH   5  14
TORSDOF 4
ENDMDL
MODEL 6
REMARK VINA RESULT:    -6.460      5.938      8.611
REMARK INTER + INTRA:          -8.618
REMARK INTER:                  -8.049
REMARK INTRA:                  -0.569
REMARK UNBOUND:                -0.647
REMARK  Name = 
REMARK  4 active torsions:
REMARK  status: ('A' for Active; 'I' for Inactive)
REMARK    1  A    between atoms: C_2  and  C_4
REMARK    2  A    between atoms: N_8  and  C_9
REMARK    3  A    between atoms: C_9  and  C_10
REMARK    4  A    between atoms: C_14  and  N_15
REMARK                            x       y       z     vdW  Elec       q    Type
REMARK                         _______ _______ _______ _____ _____    ______ ____
ROOT
ATOM      1  C   UNL     1      52.499   2.424  18.095  0.00  0.00    +0.000 A 
ATOM      2  C   UNL     1      51.873   3.659  17.971  0.00  0.00    +0.000 A 
ATOM      3  C   UNL     1      50.583   3.712  17.440  0.00  0.00    +0.000 A 
ATOM      4  C   UNL     1      49.936   2.540  17.060  0.00  0.00    +0.000 A 
ATOM      5  N   UNL     1      48.689   2.494  16.479  0.00  0.00    +0.000 N 
ATOM      6  N   UNL     1      50.536   1.339  17.182  0.00  0.00    +0.000 NA
ATOM      7  C   UNL     1      51.802   1.304  17.676  0.00  0.00    +0.000 A 
ATOM      8  H   UNL     1      48.378   1.529  16.452  0.00  0.00    +0.000 HD
ENDROOT
BRANCH   1  10
ATOM      9  N   UNL     1      54.897   2.329  17.715  0.00  0.00    +0.000 N 
ATOM     10  C   UNL     1      53.872   2.268  18.617  0.00  0.00    +0.000 C 
ATOM     11  O   UNL     1      54.087   2.126  19.813  0.00  0.00    +0.000 OA
ATOM     12  H   UNL     1      55.834   2.316  18.098  0.00  0.00    +0.000 HD
ATOM     13  H   UNL     1      54.779   2.679  16.775  0.00  0.00    +0.000 HD
ENDBRANCH   1  10
BRANCH   5  14
ATOM     14  C   UNL     1      47.672   3.493  16.764  0.00  0.00    +0.000 C 
BRANCH  14  15
ATOM     15  C   UNL     1      47.536   4.484  15.626  0.00  0.00    +0.000 A 
ATOM     16  C   UNL     1      48.273   5.659  15.609  0.00  0.00    +0.000 A 
ATOM     17  C   UNL     1      48.068   6.546  14.564  0.00  0.00    +0.000 A 
ATOM     18  C   UNL     1      47.125   6.242  13.583  0.00  0.00    +0.000 A 
ATOM     19  C   UNL     1      46.392   5.057  13.658  0.00  0.00    +0.000 A 
ATOM     20  N   UNL     1      46.629   4.184  14.663  0.00  0.00    +0.000 NA
BRANCH  19  21
ATOM     21  N   UNL     1      45.443   4.710  12.687  0.00  0.00    +0.000 N 
ATOM     22  C   UNL     1      45.610   5.473  11.439  0.00  0.00    +0.000 C 
ATOM     23  C   UNL     1      44.562   5.087  10.427  0.00  0.00    +0.000 C 
ATOM     24  C   UNL     1      43.753   4.024  10.544  0.00  0.00    +0.000 C 
ATOM     25  C   UNL     1      43.860   3.101  11.722  0.00  0.00    +0.000 C 
ATOM     26  C   UNL     1      45.182   3.278  12.489  0.00  0.00    +0.000 C 
ENDBRANCH  19  21
ENDBRANCH  14  15
ENDBRANCH   5  14
TORSDOF 4
ENDMDL
MODEL 7
REMARK VINA RESULT:    -6.143      4.426      8.125
REMARK INTER + INTRA:          -8.226
REMARK INTER:                  -7.620
REMARK INTRA:                  -0.606
REMARK UNBOUND:                -0.647
REMARK  Name = 
REMARK  4 active torsions:
REMARK  status: ('A' for Active; 'I' for Inactive)
REMARK    1  A    between atoms: C_2  and  C_4
REMARK    2  A    between atoms: N_8  and  C_9
REMARK    3  A    between atoms: C_9  and  C_10
REMARK    4  A    between atoms: C_14  and  N_15
REMARK                            x       y       z     vdW  Elec       q    Type
REMARK                         _______ _______ _______ _____ _____    ______ ____
ROOT
ATOM      1  C   UNL     1      48.270   5.510  18.072  0.00  0.00    +0.000 A 
ATOM      2  C   UNL     1      48.703   6.749  17.616  0.00  0.00    +0.000 A 
ATOM      3  C   UNL     1      48.772   6.976  16.240  0.00  0.00    +0.000 A 
ATOM      4  C   UNL     1      48.394   5.977  15.348  0.00  0.00    +0.000 A 
ATOM      5  N   UNL     1      48.478   6.086  13.978  0.00  0.00    +0.000 N 
ATOM      6  N   UNL     1      47.969   4.774  15.785  0.00  0.00    +0.000 NA
ATOM      7  C   UNL     1      47.931   4.557  17.126  0.00  0.00    +0.000 A 
ATOM      8  H   UNL     1      47.994   5.299  13.560  0.00  0.00    +0.000 HD
ENDROOT
BRANCH   1  10
ATOM      9  N   UNL     1      48.599   3.913  19.873  0.00  0.00    +0.000 N 
ATOM     10  C   UNL     1      48.190   5.164  19.506  0.00  0.00    +0.000 C 
ATOM     11  O   UNL     1      47.810   5.976  20.338  0.00  0.00    +0.000 OA
ATOM     12  H   UNL     1      48.629   3.723  20.868  0.00  0.00    +0.000 HD
ATOM     13  H   UNL     1      49.136   3.311  19.265  0.00  0.00    +0.000 HD
ENDBRANCH   1  10
BRANCH   5  14
ATOM     14  C   UNL     1      48.341   7.364  13.301  0.00  0.00    +0.000 C 
BRANCH  14  15
ATOM     15  C   UNL     1      47.010   7.470  12.584  0.00  0.00    +0.000 A 
ATOM     16  C   UNL     1      46.207   8.591  12.729  0.00  0.00    +0.000 A 
ATOM     17  C   UNL     1      44.980   8.606  12.085  0.00  0.00    +0.000 A 
ATOM     18  C   UNL     1      44.587   7.498  11.334  0.00  0.00    +0.000 A 
ATOM     19  C   UNL     1      45.422   6.385  11.238  0.00  0.00    +0.000 A 
ATOM     20  N   UNL     1      46.631   6.399  11.841  0.00  0.00    +0.000 NA
BRANCH  19  21
ATOM     21  N   UNL     1      45.069   5.257  10.485  0.00  0.00    +0.000 N 
ATOM     22  C   UNL     1      45.769   5.202   9.191  0.00  0.00    +0.000 C 
ATOM     23  C   UNL     1      45.351   3.988   8.402  0.00  0.00    +0.000 C 
ATOM     24  C   UNL     1      44.641   2.968   8.905  0.00  0.00    +0.000 C 
ATOM     25  C   UNL     1      44.223   2.956  10.346  0.00  0.00    +0.000 C 
ATOM     26  C   UNL     1      45.010   3.971  11.193  0.00  0.00    +0.000 C 
ENDBRANCH  19  21
ENDBRANCH  14  15
ENDBRANCH   5  14
TORSDOF 4
ENDMDL
MODEL 8
REMARK VINA RESULT:    -6.064      5.135      6.509
REMARK INTER + INTRA:          -8.129
REMARK INTER:                  -7.581
REMARK INTRA:                  -0.548
REMARK UNBOUND:                -0.647
REMARK  Name = 
REMARK  4 active torsions:
REMARK  status: ('A' for Active; 'I' for Inactive)
REMARK    1  A    between atoms: C_2  and  C_4
REMARK    2  A    between atoms: N_8  and  C_9
REMARK    3  A    between atoms: C_9  and  C_10
REMARK    4  A    between atoms: C_14  and  N_15
REMARK                            x       y       z     vdW  Elec       q    Type
REMARK                         _______ _______ _______ _____ _____    ______ ____
ROOT
ATOM      1  C   UNL     1      45.608   4.966  11.248  0.00  0.00    +0.000 A 
ATOM      2  C   UNL     1      46.219   6.025  11.909  0.00  0.00    +0.000 A 
ATOM      3  C   UNL     1      46.536   5.883  13.262  0.00  0.00    +0.000 A 
ATOM      4  C   UNL     1      46.258   4.690  13.923  0.00  0.00    +0.000 A 
ATOM      5  N   UNL     1      46.483   4.475  15.264  0.00  0.00    +0.000 N 
ATOM      6  N   UNL     1      45.669   3.659  13.285  0.00  0.00    +0.000 NA
ATOM      7  C   UNL     1      45.342   3.819  11.975  0.00  0.00    +0.000 A 
ATOM      8  H   UNL     1      46.353   3.488  15.460  0.00  0.00    +0.000 HD
ENDROOT
BRANCH   1  10
ATOM      9  N   UNL     1      43.900   4.767   9.532  0.00  0.00    +0.000 N 
ATOM     10  C   UNL     1      45.208   5.030   9.827  0.00  0.00    +0.000 C 
ATOM     11  O   UNL     1      46.005   5.342   8.953  0.00  0.00    +0.000 OA
ATOM     12  H   UNL     1      43.619   4.907   8.569  0.00  0.00    +0.000 HD
ATOM     13  H   UNL     1      43.174   4.744  10.234  0.00  0.00    +0.000 HD
ENDBRANCH   1  10
BRANCH   5  14
ATOM     14  C   UNL     1      47.561   5.139  15.977  0.00  0.00    +0.000 C 
BRANCH  14  15
ATOM     15  C   UNL     1      48.602   4.147  16.455  0.00  0.00    +0.000 A 
ATOM     16  C   UNL     1      48.337   2.786  16.474  0.00  0.00    +0.000 A 
ATOM     17  C   UNL     1      49.313   1.935  16.969  0.00  0.00    +0.000 A 
ATOM     18  C   UNL     1      50.512   2.470  17.441  0.00  0.00    +0.000 A 
ATOM     19  C   UNL     1      50.720   3.849  17.421  0.00  0.00    +0.000 A 
ATOM     20  N   UNL     1      49.774   4.663  16.903  0.00  0.00    +0.000 NA
BRANCH  19  21
ATOM     21  N   UNL     1      51.914   4.424  17.877  0.00  0.00    +0.000 N 
ATOM     22  C   UNL     1      51.739   5.823  18.302  0.00  0.00    +0.000 C 
ATOM     23  C   UNL     1      53.045   6.412  18.768  0.00  0.00    +0.000 C 
ATOM     24  C   UNL     1      54.155   5.699  19.006  0.00  0.00    +0.000 C 
ATOM     25  C   UNL     1      54.161   4.206  18.843  0.00  0.00    +0.000 C 
ATOM     26  C   UNL     1      52.742   3.617  18.785  0.00  0.00    +0.000 C 
ENDBRANCH  19  21
ENDBRANCH  14  15
ENDBRANCH   5  14
TORSDOF 4
ENDMDL
MODEL 9
REMARK VINA RESULT:    -5.769      4.575      6.877
REMARK INTER + INTRA:          -7.765
REMARK INTER:                  -7.209
REMARK INTRA:                  -0.556
REMARK UNBOUND:                -0.647
REMARK  Name = 
REMARK  4 active torsions:
REMARK  status: ('A' for Active; 'I' for Inactive)
REMARK    1  A    between atoms: C_2  and  C_4
REMARK    2  A    between atoms: N_8  and  C_9
REMARK    3  A    between atoms: C_9  and  C_10
REMARK    4  A    between atoms: C_14  and  N_15
REMARK                            x       y       z     vdW  Elec       q    Type
REMARK                         _______ _______ _______ _____ _____    ______ ____
ROOT
ATOM      1  C   UNL     1      48.422   3.888  17.875  0.00  0.00    +0.000 A 
ATOM      2  C   UNL     1      47.345   4.642  17.426  0.00  0.00    +0.000 A 
ATOM      3  C   UNL     1      46.885   4.451  16.121  0.00  0.00    +0.000 A 
ATOM      4  C   UNL     1      47.490   3.505  15.299  0.00  0.00    +0.000 A 
ATOM      5  N   UNL     1      47.144   3.283  13.985  0.00  0.00    +0.000 N 
ATOM      6  N   UNL     1      48.533   2.769  15.731  0.00  0.00    +0.000 NA
ATOM      7  C   UNL     1      48.988   2.983  16.994  0.00  0.00    +0.000 A 
ATOM      8  H   UNL     1      47.614   2.443  13.663  0.00  0.00    +0.000 HD
ENDROOT
BRANCH   1  10
ATOM      9  N   UNL     1      48.351   3.419  20.258  0.00  0.00    +0.000 N 
ATOM     10  C   UNL     1      48.999   4.039  19.227  0.00  0.00    +0.000 C 
ATOM     11  O   UNL     1      50.036   4.661  19.413  0.00  0.00    +0.000 OA
ATOM     12  H   UNL     1      48.808   3.450  21.160  0.00  0.00    +0.000 HD
ATOM     13  H   UNL     1      47.645   2.710  20.114  0.00  0.00    +0.000 HD
ENDBRANCH   1  10
BRANCH   5  14
ATOM     14  C   UNL     1      45.789   3.491  13.503  0.00  0.00    +0.000 C 
BRANCH  14  15
ATOM     15  C   UNL     1      45.607   4.891  12.951  0.00  0.00    +0.000 A 
ATOM     16  C   UNL     1      44.345   5.390  12.672  0.00  0.00    +0.000 A 
ATOM     17  C   UNL     1      44.249   6.660  12.124  0.00  0.00    +0.000 A 
ATOM     18  C   UNL     1      45.413   7.381  11.858  0.00  0.00    +0.000 A 
ATOM     19  C   UNL     1      46.661   6.824  12.137  0.00  0.00    +0.000 A 
ATOM     20  N   UNL     1      46.738   5.600  12.705  0.00  0.00    +0.000 NA
BRANCH  19  21
ATOM     21  N   UNL     1      47.854   7.519  11.895  0.00  0.00    +0.000 N 
ATOM     22  C   UNL     1      47.688   8.978  12.008  0.00  0.00    +0.000 C 
ATOM     23  C   UNL     1      48.984   9.692  11.723  0.00  0.00    +0.000 C 
ATOM     24  C   UNL     1      50.176   9.086  11.632  0.00  0.00    +0.000 C 
ATOM     25  C   UNL     1      50.307   7.606  11.842  0.00  0.00    +0.000 C 
ATOM     26  C   UNL     1      49.072   7.000  12.531  0.00  0.00    +0.000 C 
ENDBRANCH  19  21
ENDBRANCH  14  15
ENDBRANCH   5  14
TORSDOF 4
ENDMDL
