MODEL 1
REMARK VINA RESULT:    -8.856      0.000      0.000
REMARK INTER + INTRA:         -12.099
REMARK INTER:                 -10.927
REMARK INTRA:                  -1.172
REMARK UNBOUND:                -1.172
REMARK  Name = 
REMARK  4 active torsions:
REMARK  status: ('A' for Active; 'I' for Inactive)
REMARK    1  A    between atoms: C_2  and  C_4
REMARK    2  A    between atoms: N_8  and  C_9
REMARK    3  A    between atoms: C_9  and  C_10
REMARK    4  A    between atoms: C_14  and  C_15
REMARK                            x       y       z     vdW  Elec       q    Type
REMARK                         _______ _______ _______ _____ _____    ______ ____
ROOT
ATOM      1  C   UNL     1      43.780   4.916  11.328  0.00  0.00    +0.000 C 
ATOM      2  C   UNL     1      42.420   5.192  11.958  0.00  0.00    +0.000 C 
ATOM      3  C   UNL     1      43.004   6.174  10.998  0.00  0.00    +0.000 C 
ENDROOT
BRANCH   1   8
ATOM      4  C   UNL     1      46.593   2.732   7.533  0.00  0.00    +0.000 A 
ATOM      5  C   UNL     1      46.235   4.071   7.662  0.00  0.00    +0.000 A 
ATOM      6  C   UNL     1      45.336   4.442   8.667  0.00  0.00    +0.000 A 
ATOM      7  C   UNL     1      44.812   3.470   9.512  0.00  0.00    +0.000 A 
ATOM      8  N   UNL     1      43.808   3.729  10.451  0.00  0.00    +0.000 N 
ATOM      9  N   UNL     1      45.167   2.172   9.404  0.00  0.00    +0.000 NA
ATOM     10  C   UNL     1      46.040   1.829   8.424  0.00  0.00    +0.000 A 
ATOM     11  H   UNL     1      43.689   2.842  10.941  0.00  0.00    +0.000 HD
BRANCH   4  13
ATOM     12  N   UNL     1      47.746   3.052   5.413  0.00  0.00    +0.000 N 
ATOM     13  C   UNL     1      47.482   2.225   6.468  0.00  0.00    +0.000 C 
ATOM     14  O   UNL     1      47.971   1.106   6.527  0.00  0.00    +0.000 OA
ATOM     15  H   UNL     1      48.417   2.714   4.734  0.00  0.00    +0.000 HD
ATOM     16  H   UNL     1      47.561   4.042   5.433  0.00  0.00    +0.000 HD
ENDBRANCH   4  13
ENDBRANCH   1   8
BRANCH   1  17
ATOM     17  C   UNL     1      45.039   5.039  12.180  0.00  0.00    +0.000 A 
ATOM     18  C   UNL     1      45.523   3.974  12.955  0.00  0.00    +0.000 A 
ATOM     19  C   UNL     1      46.766   4.044  13.583  0.00  0.00    +0.000 A 
ATOM     20  C   UNL     1      47.563   5.178  13.427  0.00  0.00    +0.000 A 
ATOM     21  C   UNL     1      47.129   6.272  12.662  0.00  0.00    +0.000 A 
ATOM     22  C   UNL     1      45.846   6.192  12.090  0.00  0.00    +0.000 A 
BRANCH  21  23
ATOM     23  C   UNL     1      48.013   7.417  12.366  0.00  0.00    +0.000 A 
ATOM     24  C   UNL     1      49.389   7.245  12.157  0.00  0.00    +0.000 A 
ATOM     25  C   UNL     1      50.197   8.326  11.799  0.00  0.00    +0.000 A 
ATOM     26  C   UNL     1      49.601   9.563  11.647  0.00  0.00    +0.000 A 
ATOM     27  N   UNL     1      48.286   9.789  11.841  0.00  0.00    +0.000 NA
ATOM     28  C   UNL     1      47.532   8.718  12.198  0.00  0.00    +0.000 A 
ENDBRANCH  21  23
ENDBRANCH   1  17
TORSDOF 4
ENDMDL
MODEL 2
REMARK VINA RESULT:    -8.629      1.976      3.279
REMARK INTER + INTRA:         -11.818
REMARK INTER:                 -11.170
REMARK INTRA:                  -0.648
REMARK UNBOUND:                -1.172
REMARK  Name = 
REMARK  4 active torsions:
REMARK  status: ('A' for Active; 'I' for Inactive)
REMARK    1  A    between atoms: C_2  and  C_4
REMARK    2  A    between atoms: N_8  and  C_9
REMARK    3  A    between atoms: C_9  and  C_10
REMARK    4  A    between atoms: C_14  and  C_15
REMARK                            x       y       z     vdW  Elec       q    Type
REMARK                         _______ _______ _______ _____ _____    ______ ____
ROOT
ATOM      1  C   UNL     1      43.933   4.954  11.482  0.00  0.00    +0.000 C 
ATOM      2  C   UNL     1      42.776   5.047  12.469  0.00  0.00    +0.000 C 
ATOM      3  C   UNL     1      42.881   6.037  11.358  0.00  0.00    +0.000 C 
ENDROOT
BRANCH   1   8
ATOM      4  C   UNL     1      46.432   2.711   7.506  0.00  0.00    +0.000 A 
ATOM      5  C   UNL     1      46.020   4.037   7.612  0.00  0.00    +0.000 A 
ATOM      6  C   UNL     1      45.217   4.417   8.691  0.00  0.00    +0.000 A 
ATOM      7  C   UNL     1      44.839   3.466   9.633  0.00  0.00    +0.000 A 
ATOM      8  N   UNL     1      43.930   3.725  10.663  0.00  0.00    +0.000 N 
ATOM      9  N   UNL     1      45.249   2.183   9.547  0.00  0.00    +0.000 NA
ATOM     10  C   UNL     1      46.028   1.831   8.494  0.00  0.00    +0.000 A 
ATOM     11  H   UNL     1      43.911   2.861  11.204  0.00  0.00    +0.000 HD
BRANCH   4  13
ATOM     12  N   UNL     1      47.291   2.953   5.240  0.00  0.00    +0.000 N 
ATOM     13  C   UNL     1      47.228   2.193   6.375  0.00  0.00    +0.000 C 
ATOM     14  O   UNL     1      47.815   1.123   6.447  0.00  0.00    +0.000 OA
ATOM     15  H   UNL     1      47.902   2.615   4.507  0.00  0.00    +0.000 HD
ATOM     16  H   UNL     1      47.025   3.924   5.217  0.00  0.00    +0.000 HD
ENDBRANCH   4  13
ENDBRANCH   1   8
BRANCH   1  17
ATOM     17  C   UNL     1      45.336   5.348  11.933  0.00  0.00    +0.000 A 
ATOM     18  C   UNL     1      46.059   6.376  11.309  0.00  0.00    +0.000 A 
ATOM     19  C   UNL     1      47.260   6.842  11.844  0.00  0.00    +0.000 A 
ATOM     20  C   UNL     1      47.749   6.302  13.033  0.00  0.00    +0.000 A 
ATOM     21  C   UNL     1      47.066   5.273  13.699  0.00  0.00    +0.000 A 
ATOM     22  C   UNL     1      45.888   4.787  13.103  0.00  0.00    +0.000 A 
BRANCH  21  23
ATOM     23  C   UNL     1      47.489   4.788  15.029  0.00  0.00    +0.000 A 
ATOM     24  C   UNL     1      47.432   3.427  15.364  0.00  0.00    +0.000 A 
ATOM     25  C   UNL     1      47.911   2.976  16.595  0.00  0.00    +0.000 A 
ATOM     26  C   UNL     1      48.450   3.903  17.466  0.00  0.00    +0.000 A 
ATOM     27  N   UNL     1      48.523   5.223  17.200  0.00  0.00    +0.000 NA
ATOM     28  C   UNL     1      48.040   5.629  15.999  0.00  0.00    +0.000 A 
ENDBRANCH  21  23
ENDBRANCH   1  17
TORSDOF 4
ENDMDL
MODEL 3
REMARK VINA RESULT:    -6.772      4.323      8.161
REMARK INTER + INTRA:          -9.527
REMARK INTER:                  -8.547
REMARK INTRA:                  -0.979
REMARK UNBOUND:                -1.172
REMARK  Name = 
REMARK  4 active torsions:
REMARK  status: ('A' for Active; 'I' for Inactive)
REMARK    1  A    between atoms: C_2  and  C_4
REMARK    2  A    between atoms: N_8  and  C_9
REMARK    3  A    between atoms: C_9  and  C_10
REMARK    4  A    between atoms: C_14  and  C_15
REMARK                            x       y       z     vdW  Elec       q    Type
REMARK                         _______ _______ _______ _____ _____    ______ ____
ROOT
ATOM      1  C   UNL     1      48.739   7.751  12.644  0.00  0.00    +0.000 C 
ATOM      2  C   UNL     1      49.710   8.029  11.503  0.00  0.00    +0.000 C 
ATOM      3  C   UNL     1      49.362   9.119  12.460  0.00  0.00    +0.000 C 
ENDROOT
BRANCH   1   8
ATOM      4  C   UNL     1      48.367   6.495  17.681  0.00  0.00    +0.000 A 
ATOM      5  C   UNL     1      48.529   7.764  17.131  0.00  0.00    +0.000 A 
ATOM      6  C   UNL     1      48.772   7.887  15.760  0.00  0.00    +0.000 A 
ATOM      7  C   UNL     1      48.855   6.743  14.972  0.00  0.00    +0.000 A 
ATOM      8  N   UNL     1      49.229   6.763  13.625  0.00  0.00    +0.000 N 
ATOM      9  N   UNL     1      48.682   5.510  15.495  0.00  0.00    +0.000 NA
ATOM     10  C   UNL     1      48.446   5.410  16.827  0.00  0.00    +0.000 A 
ATOM     11  H   UNL     1      49.138   5.793  13.325  0.00  0.00    +0.000 HD
BRANCH   4  13
ATOM     12  N   UNL     1      47.178   5.386  19.493  0.00  0.00    +0.000 N 
ATOM     13  C   UNL     1      48.169   6.252  19.124  0.00  0.00    +0.000 C 
ATOM     14  O   UNL     1      48.868   6.799  19.963  0.00  0.00    +0.000 OA
ATOM     15  H   UNL     1      47.110   5.175  20.481  0.00  0.00    +0.000 HD
ATOM     16  H   UNL     1      46.741   4.747  18.847  0.00  0.00    +0.000 HD
ENDBRANCH   4  13
ENDBRANCH   1   8
BRANCH   1  17
ATOM     17  C   UNL     1      47.254   7.580  12.339  0.00  0.00    +0.000 A 
ATOM     18  C   UNL     1      46.329   8.618  12.525  0.00  0.00    +0.000 A 
ATOM     19  C   UNL     1      45.014   8.504  12.075  0.00  0.00    +0.000 A 
ATOM     20  C   UNL     1      44.604   7.351  11.405  0.00  0.00    +0.000 A 
ATOM     21  C   UNL     1      45.489   6.282  11.190  0.00  0.00    +0.000 A 
ATOM     22  C   UNL     1      46.791   6.407  11.707  0.00  0.00    +0.000 A 
BRANCH  21  23
ATOM     23  C   UNL     1      45.119   5.118  10.360  0.00  0.00    +0.000 A 
ATOM     24  C   UNL     1      45.639   4.945   9.069  0.00  0.00    +0.000 A 
ATOM     25  C   UNL     1      45.343   3.799   8.329  0.00  0.00    +0.000 A 
ATOM     26  C   UNL     1      44.534   2.839   8.907  0.00  0.00    +0.000 A 
ATOM     27  N   UNL     1      44.002   2.955  10.140  0.00  0.00    +0.000 NA
ATOM     28  C   UNL     1      44.302   4.087  10.828  0.00  0.00    +0.000 A 
ENDBRANCH  21  23
ENDBRANCH   1  17
TORSDOF 4
ENDMDL
MODEL 4
REMARK VINA RESULT:    -6.267      3.546      5.936
REMARK INTER + INTRA:          -8.904
REMARK INTER:                  -8.362
REMARK INTRA:                  -0.542
REMARK UNBOUND:                -1.172
REMARK  Name = 
REMARK  4 active torsions:
REMARK  status: ('A' for Active; 'I' for Inactive)
REMARK    1  A    between atoms: C_2  and  C_4
REMARK    2  A    between atoms: N_8  and  C_9
REMARK    3  A    between atoms: C_9  and  C_10
REMARK    4  A    between atoms: C_14  and  C_15
REMARK                            x       y       z     vdW  Elec       q    Type
REMARK                         _______ _______ _______ _____ _____    ______ ____
ROOT
ATOM      1  C   UNL     1      47.436   8.454  13.214  0.00  0.00    +0.000 C 
ATOM      2  C   UNL     1      47.671   9.768  12.478  0.00  0.00    +0.000 C 
ATOM      3  C   UNL     1      48.349   8.525  12.007  0.00  0.00    +0.000 C 
ENDROOT
BRANCH   1   8
ATOM      4  C   UNL     1      44.617   4.409  11.547  0.00  0.00    +0.000 A 
ATOM      5  C   UNL     1      45.653   5.057  10.879  0.00  0.00    +0.000 A 
ATOM      6  C   UNL     1      46.185   6.230  11.420  0.00  0.00    +0.000 A 
ATOM      7  C   UNL     1      45.668   6.733  12.609  0.00  0.00    +0.000 A 
ATOM      8  N   UNL     1      46.044   7.967  13.149  0.00  0.00    +0.000 N 
ATOM      9  N   UNL     1      44.676   6.103  13.273  0.00  0.00    +0.000 NA
ATOM     10  C   UNL     1      44.171   4.965  12.733  0.00  0.00    +0.000 A 
ATOM     11  H   UNL     1      45.540   8.018  14.034  0.00  0.00    +0.000 HD
BRANCH   4  13
ATOM     12  N   UNL     1      43.418   2.327  11.942  0.00  0.00    +0.000 N 
ATOM     13  C   UNL     1      43.943   3.201  11.031  0.00  0.00    +0.000 C 
ATOM     14  O   UNL     1      43.851   2.988   9.831  0.00  0.00    +0.000 OA
ATOM     15  H   UNL     1      42.895   1.546  11.565  0.00  0.00    +0.000 HD
ATOM     16  H   UNL     1      43.266   2.569  12.908  0.00  0.00    +0.000 HD
ENDBRANCH   4  13
ENDBRANCH   1   8
BRANCH   1  17
ATOM     17  C   UNL     1      48.062   8.244  14.589  0.00  0.00    +0.000 A 
ATOM     18  C   UNL     1      48.114   9.265  15.550  0.00  0.00    +0.000 A 
ATOM     19  C   UNL     1      48.524   9.007  16.857  0.00  0.00    +0.000 A 
ATOM     20  C   UNL     1      48.868   7.709  17.237  0.00  0.00    +0.000 A 
ATOM     21  C   UNL     1      48.832   6.650  16.317  0.00  0.00    +0.000 A 
ATOM     22  C   UNL     1      48.469   6.956  14.993  0.00  0.00    +0.000 A 
BRANCH  21  23
ATOM     23  C   UNL     1      49.051   5.249  16.731  0.00  0.00    +0.000 A 
ATOM     24  C   UNL     1      48.031   4.291  16.642  0.00  0.00    +0.000 A 
ATOM     25  C   UNL     1      48.278   2.955  16.961  0.00  0.00    +0.000 A 
ATOM     26  C   UNL     1      49.555   2.603  17.356  0.00  0.00    +0.000 A 
ATOM     27  N   UNL     1      50.571   3.482  17.466  0.00  0.00    +0.000 NA
ATOM     28  C   UNL     1      50.294   4.775  17.158  0.00  0.00    +0.000 A 
ENDBRANCH  21  23
ENDBRANCH   1  17
TORSDOF 4
ENDMDL
MODEL 5
REMARK VINA RESULT:    -6.038      3.719      6.683
REMARK INTER + INTRA:          -8.621
REMARK INTER:                  -7.592
REMARK INTRA:                  -1.030
REMARK UNBOUND:                -1.172
REMARK  Name = 
REMARK  4 active torsions:
REMARK  status: ('A' for Active; 'I' for Inactive)
REMARK    1  A    between atoms: C_2  and  C_4
REMARK    2  A    between atoms: N_8  and  C_9
REMARK    3  A    between atoms: C_9  and  C_10
REMARK    4  A    between atoms: C_14  and  C_15
REMARK                            x       y       z     vdW  Elec       q    Type
REMARK                         _______ _______ _______ _____ _____    ______ ____
ROOT
ATOM      1  C   UNL     1      49.373   8.545  12.698  0.00  0.00    +0.000 C 
ATOM      2  C   UNL     1      50.523   9.351  12.106  0.00  0.00    +0.000 C 
ATOM      3  C   UNL     1      50.483   7.871  11.918  0.00  0.00    +0.000 C 
ENDROOT
BRANCH   1   8
ATOM      4  C   UNL     1      44.684   6.443  11.875  0.00  0.00    +0.000 A 
ATOM      5  C   UNL     1      45.928   5.851  11.674  0.00  0.00    +0.000 A 
ATOM      6  C   UNL     1      47.082   6.630  11.797  0.00  0.00    +0.000 A 
ATOM      7  C   UNL     1      46.968   7.981  12.110  0.00  0.00    +0.000 A 
ATOM      8  N   UNL     1      48.053   8.862  12.119  0.00  0.00    +0.000 N 
ATOM      9  N   UNL     1      45.766   8.558  12.323  0.00  0.00    +0.000 NA
ATOM     10  C   UNL     1      44.657   7.787  12.200  0.00  0.00    +0.000 A 
ATOM     11  H   UNL     1      47.656   9.746  12.437  0.00  0.00    +0.000 HD
BRANCH   4  13
ATOM     12  N   UNL     1      42.630   5.538  12.819  0.00  0.00    +0.000 N 
ATOM     13  C   UNL     1      43.404   5.726  11.707  0.00  0.00    +0.000 C 
ATOM     14  O   UNL     1      43.042   5.317  10.614  0.00  0.00    +0.000 OA
ATOM     15  H   UNL     1      41.724   5.112  12.668  0.00  0.00    +0.000 HD
ATOM     16  H   UNL     1      42.771   6.048  13.677  0.00  0.00    +0.000 HD
ENDBRANCH   4  13
ENDBRANCH   1   8
BRANCH   1  17
ATOM     17  C   UNL     1      49.309   8.330  14.207  0.00  0.00    +0.000 A 
ATOM     18  C   UNL     1      49.222   9.400  15.111  0.00  0.00    +0.000 A 
ATOM     19  C   UNL     1      48.985   9.182  16.468  0.00  0.00    +0.000 A 
ATOM     20  C   UNL     1      48.803   7.883  16.944  0.00  0.00    +0.000 A 
ATOM     21  C   UNL     1      48.878   6.777  16.084  0.00  0.00    +0.000 A 
ATOM     22  C   UNL     1      49.176   7.028  14.732  0.00  0.00    +0.000 A 
BRANCH  21  23
ATOM     23  C   UNL     1      48.548   5.411  16.539  0.00  0.00    +0.000 A 
ATOM     24  C   UNL     1      49.224   4.814  17.613  0.00  0.00    +0.000 A 
ATOM     25  C   UNL     1      48.845   3.555  18.082  0.00  0.00    +0.000 A 
ATOM     26  C   UNL     1      47.783   2.922  17.467  0.00  0.00    +0.000 A 
ATOM     27  N   UNL     1      47.102   3.444  16.428  0.00  0.00    +0.000 NA
ATOM     28  C   UNL     1      47.502   4.665  15.990  0.00  0.00    +0.000 A 
ENDBRANCH  21  23
ENDBRANCH   1  17
TORSDOF 4
ENDMDL
