MODEL 1
REMARK VINA RESULT:    -9.468      0.000      0.000
REMARK INTER + INTRA:         -12.099
REMARK INTER:                 -11.682
REMARK INTRA:                  -0.418
REMARK UNBOUND:                -0.418
REMARK  Name = 
REMARK  5 active torsions:
REMARK  status: ('A' for Active; 'I' for Inactive)
REMARK    1  A    between atoms: C_1  and  C_2
REMARK    2  A    between atoms: C_4  and  C_5
REMARK    3  A    between atoms: N_10  and  C_11
REMARK    4  A    between atoms: C_11  and  C_12
REMARK    5  A    between atoms: C_16  and  C_17
REMARK                            x       y       z     vdW  Elec       q    Type
REMARK                         _______ _______ _______ _____ _____    ______ ____
ROOT
ATOM      1  C   UNL     1      44.041   6.624  11.759  0.00  0.00    +0.000 C 
ENDROOT
BRANCH   1   8
ATOM      2  C   UNL     1      49.236   8.620  13.892  0.00  0.00    +0.000 C 
ATOM      3  C   UNL     1      48.186   7.564  13.718  0.00  0.00    +0.000 A 
ATOM      4  C   UNL     1      48.226   6.403  14.446  0.00  0.00    +0.000 A 
ATOM      5  C   UNL     1      47.208   5.515  14.187  0.00  0.00    +0.000 A 
ATOM      6  N   UNL     1      46.216   5.717  13.283  0.00  0.00    +0.000 NA
ATOM      7  C   UNL     1      46.279   6.867  12.605  0.00  0.00    +0.000 A 
ATOM      8  N   UNL     1      45.375   7.148  11.593  0.00  0.00    +0.000 N 
ATOM      9  N   UNL     1      47.218   7.804  12.806  0.00  0.00    +0.000 NA
ATOM     10  H   UNL     1      45.444   8.140  11.399  0.00  0.00    +0.000 HD
BRANCH   5  11
ATOM     11  C   UNL     1      47.184   4.219  14.938  0.00  0.00    +0.000 C 
ATOM     12  N   UNL     1      46.881   4.307  16.269  0.00  0.00    +0.000 N 
ATOM     13  O   UNL     1      47.418   3.144  14.403  0.00  0.00    +0.000 OA
ATOM     14  H   UNL     1      46.654   5.204  16.680  0.00  0.00    +0.000 HD
ATOM     15  H   UNL     1      46.818   3.461  16.817  0.00  0.00    +0.000 HD
ENDBRANCH   5  11
ENDBRANCH   1   8
BRANCH   1  16
ATOM     16  C   UNL     1      43.998   5.191  11.277  0.00  0.00    +0.000 A 
ATOM     17  C   UNL     1      43.195   4.235  11.901  0.00  0.00    +0.000 A 
ATOM     18  C   UNL     1      43.205   2.942  11.404  0.00  0.00    +0.000 A 
ATOM     19  N   UNL     1      43.949   2.540  10.350  0.00  0.00    +0.000 NA
ATOM     20  C   UNL     1      44.733   3.463   9.742  0.00  0.00    +0.000 A 
ATOM     21  C   UNL     1      44.759   4.792  10.170  0.00  0.00    +0.000 A 
BRANCH  20  22
ATOM     22  C   UNL     1      45.571   2.969   8.629  0.00  0.00    +0.000 A 
ATOM     23  C   UNL     1      46.045   3.840   7.625  0.00  0.00    +0.000 A 
ATOM     24  C   UNL     1      46.835   3.375   6.566  0.00  0.00    +0.000 A 
ATOM     25  C   UNL     1      47.158   2.027   6.494  0.00  0.00    +0.000 A 
ATOM     26  F   UNL     1      47.914   1.580   5.482  0.00  0.00    +0.000 F 
ATOM     27  C   UNL     1      46.696   1.149   7.462  0.00  0.00    +0.000 A 
ATOM     28  F   UNL     1      46.998  -0.155   7.394  0.00  0.00    +0.000 F 
ATOM     29  C   UNL     1      45.911   1.607   8.517  0.00  0.00    +0.000 A 
ENDBRANCH  20  22
ENDBRANCH   1  16
TORSDOF 4
ENDMDL
MODEL 2
REMARK VINA RESULT:    -9.093      1.441      1.697
REMARK INTER + INTRA:         -11.636
REMARK INTER:                 -10.942
REMARK INTRA:                  -0.694
REMARK UNBOUND:                -0.418
REMARK  Name = 
REMARK  5 active torsions:
REMARK  status: ('A' for Active; 'I' for Inactive)
REMARK    1  A    between atoms: C_1  and  C_2
REMARK    2  A    between atoms: C_4  and  C_5
REMARK    3  A    between atoms: N_10  and  C_11
REMARK    4  A    between atoms: C_11  and  C_12
REMARK    5  A    between atoms: C_16  and  C_17
REMARK                            x       y       z     vdW  Elec       q    Type
REMARK                         _______ _______ _______ _____ _____    ______ ____
ROOT
ATOM      1  C   UNL     1      44.982   5.461  13.232  0.00  0.00    +0.000 C 
ENDROOT
BRANCH   1   8
ATOM      2  C   UNL     1      50.267   7.202  15.368  0.00  0.00    +0.000 C 
ATOM      3  C   UNL     1      49.074   6.294  15.346  0.00  0.00    +0.000 A 
ATOM      4  C   UNL     1      48.870   5.372  16.339  0.00  0.00    +0.000 A 
ATOM      5  C   UNL     1      47.741   4.599  16.198  0.00  0.00    +0.000 A 
ATOM      6  N   UNL     1      46.864   4.693  15.167  0.00  0.00    +0.000 NA
ATOM      7  C   UNL     1      47.163   5.602  14.236  0.00  0.00    +0.000 A 
ATOM      8  N   UNL     1      46.393   5.731  13.091  0.00  0.00    +0.000 N 
ATOM      9  N   UNL     1      48.226   6.419  14.300  0.00  0.00    +0.000 NA
ATOM     10  H   UNL     1      46.637   6.617  12.666  0.00  0.00    +0.000 HD
BRANCH   5  11
ATOM     11  C   UNL     1      47.452   3.563  17.240  0.00  0.00    +0.000 C 
ATOM     12  N   UNL     1      48.500   3.226  18.052  0.00  0.00    +0.000 N 
ATOM     13  O   UNL     1      46.350   3.045  17.366  0.00  0.00    +0.000 OA
ATOM     14  H   UNL     1      49.391   3.695  17.952  0.00  0.00    +0.000 HD
ATOM     15  H   UNL     1      48.353   2.556  18.794  0.00  0.00    +0.000 HD
ENDBRANCH   5  11
ENDBRANCH   1   8
BRANCH   1  16
ATOM     16  C   UNL     1      44.576   4.376  12.260  0.00  0.00    +0.000 A 
ATOM     17  C   UNL     1      43.522   3.504  12.537  0.00  0.00    +0.000 A 
ATOM     18  C   UNL     1      43.205   2.535  11.599  0.00  0.00    +0.000 A 
ATOM     19  N   UNL     1      43.856   2.375  10.426  0.00  0.00    +0.000 NA
ATOM     20  C   UNL     1      44.882   3.217  10.151  0.00  0.00    +0.000 A 
ATOM     21  C   UNL     1      45.246   4.234  11.037  0.00  0.00    +0.000 A 
BRANCH  20  22
ATOM     22  C   UNL     1      45.600   2.971   8.883  0.00  0.00    +0.000 A 
ATOM     23  C   UNL     1      45.907   4.026   7.997  0.00  0.00    +0.000 A 
ATOM     24  C   UNL     1      46.583   3.798   6.792  0.00  0.00    +0.000 A 
ATOM     25  C   UNL     1      46.957   2.505   6.453  0.00  0.00    +0.000 A 
ATOM     26  F   UNL     1      47.604   2.283   5.300  0.00  0.00    +0.000 F 
ATOM     27  C   UNL     1      46.657   1.450   7.300  0.00  0.00    +0.000 A 
ATOM     28  F   UNL     1      47.010   0.198   6.974  0.00  0.00    +0.000 F 
ATOM     29  C   UNL     1      45.987   1.672   8.500  0.00  0.00    +0.000 A 
ENDBRANCH  20  22
ENDBRANCH   1  16
TORSDOF 4
ENDMDL
MODEL 3
REMARK VINA RESULT:    -8.619      2.312      3.444
REMARK INTER + INTRA:         -11.051
REMARK INTER:                 -10.485
REMARK INTRA:                  -0.567
REMARK UNBOUND:                -0.418
REMARK  Name = 
REMARK  5 active torsions:
REMARK  status: ('A' for Active; 'I' for Inactive)
REMARK    1  A    between atoms: C_1  and  C_2
REMARK    2  A    between atoms: C_4  and  C_5
REMARK    3  A    between atoms: N_10  and  C_11
REMARK    4  A    between atoms: C_11  and  C_12
REMARK    5  A    between atoms: C_16  and  C_17
REMARK                            x       y       z     vdW  Elec       q    Type
REMARK                         _______ _______ _______ _____ _____    ______ ____
ROOT
ATOM      1  C   UNL     1      45.992   5.087  14.024  0.00  0.00    +0.000 C 
ENDROOT
BRANCH   1   8
ATOM      2  C   UNL     1      50.056   1.652  16.707  0.00  0.00    +0.000 C 
ATOM      3  C   UNL     1      49.008   2.724  16.711  0.00  0.00    +0.000 A 
ATOM      4  C   UNL     1      48.813   3.517  17.813  0.00  0.00    +0.000 A 
ATOM      5  C   UNL     1      47.818   4.458  17.688  0.00  0.00    +0.000 A 
ATOM      6  N   UNL     1      47.048   4.628  16.583  0.00  0.00    +0.000 NA
ATOM      7  C   UNL     1      47.296   3.790  15.572  0.00  0.00    +0.000 A 
ATOM      8  N   UNL     1      46.519   3.806  14.425  0.00  0.00    +0.000 N 
ATOM      9  N   UNL     1      48.262   2.859  15.592  0.00  0.00    +0.000 NA
ATOM     10  H   UNL     1      47.024   3.289  13.716  0.00  0.00    +0.000 HD
BRANCH   5  11
ATOM     11  C   UNL     1      47.538   5.359  18.851  0.00  0.00    +0.000 C 
ATOM     12  N   UNL     1      46.266   5.855  18.928  0.00  0.00    +0.000 N 
ATOM     13  O   UNL     1      48.388   5.639  19.686  0.00  0.00    +0.000 OA
ATOM     14  H   UNL     1      45.571   5.579  18.246  0.00  0.00    +0.000 HD
ATOM     15  H   UNL     1      46.012   6.441  19.711  0.00  0.00    +0.000 HD
ENDBRANCH   5  11
ENDBRANCH   1   8
BRANCH   1  16
ATOM     16  C   UNL     1      45.172   4.924  12.763  0.00  0.00    +0.000 A 
ATOM     17  C   UNL     1      43.845   5.352  12.694  0.00  0.00    +0.000 A 
ATOM     18  C   UNL     1      43.157   5.171  11.506  0.00  0.00    +0.000 A 
ATOM     19  N   UNL     1      43.687   4.600  10.402  0.00  0.00    +0.000 NA
ATOM     20  C   UNL     1      44.974   4.180  10.463  0.00  0.00    +0.000 A 
ATOM     21  C   UNL     1      45.741   4.349  11.619  0.00  0.00    +0.000 A 
BRANCH  20  22
ATOM     22  C   UNL     1      45.496   3.513   9.252  0.00  0.00    +0.000 A 
ATOM     23  C   UNL     1      45.893   4.255   8.119  0.00  0.00    +0.000 A 
ATOM     24  C   UNL     1      46.384   3.627   6.968  0.00  0.00    +0.000 A 
ATOM     25  C   UNL     1      46.478   2.242   6.931  0.00  0.00    +0.000 A 
ATOM     26  F   UNL     1      46.947   1.639   5.831  0.00  0.00    +0.000 F 
ATOM     27  C   UNL     1      46.084   1.490   8.027  0.00  0.00    +0.000 A 
ATOM     28  F   UNL     1      46.167   0.152   7.995  0.00  0.00    +0.000 F 
ATOM     29  C   UNL     1      45.597   2.110   9.174  0.00  0.00    +0.000 A 
ENDBRANCH  20  22
ENDBRANCH   1  16
TORSDOF 4
ENDMDL
MODEL 4
REMARK VINA RESULT:    -8.531      2.219      3.094
REMARK INTER + INTRA:         -10.943
REMARK INTER:                 -10.234
REMARK INTRA:                  -0.709
REMARK UNBOUND:                -0.418
REMARK  Name = 
REMARK  5 active torsions:
REMARK  status: ('A' for Active; 'I' for Inactive)
REMARK    1  A    between atoms: C_1  and  C_2
REMARK    2  A    between atoms: C_4  and  C_5
REMARK    3  A    between atoms: N_10  and  C_11
REMARK    4  A    between atoms: C_11  and  C_12
REMARK    5  A    between atoms: C_16  and  C_17
REMARK                            x       y       z     vdW  Elec       q    Type
REMARK                         _______ _______ _______ _____ _____    ______ ____
ROOT
ATOM      1  C   UNL     1      44.080   6.449  12.116  0.00  0.00    +0.000 C 
ENDROOT
BRANCH   1   8
ATOM      2  C   UNL     1      49.627   7.481  14.036  0.00  0.00    +0.000 C 
ATOM      3  C   UNL     1      48.329   7.913  13.423  0.00  0.00    +0.000 A 
ATOM      4  C   UNL     1      48.198   9.149  12.845  0.00  0.00    +0.000 A 
ATOM      5  C   UNL     1      46.955   9.423  12.324  0.00  0.00    +0.000 A 
ATOM      6  N   UNL     1      45.898   8.574  12.360  0.00  0.00    +0.000 NA
ATOM      7  C   UNL     1      46.117   7.404  12.968  0.00  0.00    +0.000 A 
ATOM      8  N   UNL     1      45.091   6.490  13.146  0.00  0.00    +0.000 N 
ATOM      9  N   UNL     1      47.300   7.038  13.482  0.00  0.00    +0.000 NA
ATOM     10  H   UNL     1      45.519   5.604  13.386  0.00  0.00    +0.000 HD
BRANCH   5  11
ATOM     11  C   UNL     1      46.730  10.757  11.681  0.00  0.00    +0.000 C 
ATOM     12  N   UNL     1      45.426  11.082  11.425  0.00  0.00    +0.000 N 
ATOM     13  O   UNL     1      47.648  11.515  11.399  0.00  0.00    +0.000 OA
ATOM     14  H   UNL     1      44.682  10.454  11.701  0.00  0.00    +0.000 HD
ATOM     15  H   UNL     1      45.213  11.984  11.022  0.00  0.00    +0.000 HD
ENDBRANCH   5  11
ENDBRANCH   1   8
BRANCH   1  16
ATOM     16  C   UNL     1      44.009   5.055  11.533  0.00  0.00    +0.000 A 
ATOM     17  C   UNL     1      43.183   4.074  12.085  0.00  0.00    +0.000 A 
ATOM     18  C   UNL     1      43.169   2.820  11.497  0.00  0.00    +0.000 A 
ATOM     19  N   UNL     1      43.910   2.479  10.420  0.00  0.00    +0.000 NA
ATOM     20  C   UNL     1      44.715   3.426   9.881  0.00  0.00    +0.000 A 
ATOM     21  C   UNL     1      44.767   4.721  10.404  0.00  0.00    +0.000 A 
BRANCH  20  22
ATOM     22  C   UNL     1      45.548   2.995   8.738  0.00  0.00    +0.000 A 
ATOM     23  C   UNL     1      46.007   3.918   7.775  0.00  0.00    +0.000 A 
ATOM     24  C   UNL     1      46.792   3.514   6.689  0.00  0.00    +0.000 A 
ATOM     25  C   UNL     1      47.124   2.173   6.547  0.00  0.00    +0.000 A 
ATOM     26  F   UNL     1      47.875   1.783   5.507  0.00  0.00    +0.000 F 
ATOM     27  C   UNL     1      46.677   1.245   7.473  0.00  0.00    +0.000 A 
ATOM     28  F   UNL     1      46.988  -0.052   7.337  0.00  0.00    +0.000 F 
ATOM     29  C   UNL     1      45.897   1.643   8.556  0.00  0.00    +0.000 A 
ENDBRANCH  20  22
ENDBRANCH   1  16
TORSDOF 4
ENDMDL
MODEL 5
REMARK VINA RESULT:    -8.048      3.811      7.363
REMARK INTER + INTRA:         -10.348
REMARK INTER:                  -9.573
REMARK INTRA:                  -0.775
REMARK UNBOUND:                -0.418
REMARK  Name = 
REMARK  5 active torsions:
REMARK  status: ('A' for Active; 'I' for Inactive)
REMARK    1  A    between atoms: C_1  and  C_2
REMARK    2  A    between atoms: C_4  and  C_5
REMARK    3  A    between atoms: N_10  and  C_11
REMARK    4  A    between atoms: C_11  and  C_12
REMARK    5  A    between atoms: C_16  and  C_17
REMARK                            x       y       z     vdW  Elec       q    Type
REMARK                         _______ _______ _______ _____ _____    ______ ____
ROOT
ATOM      1  C   UNL     1      45.259   7.513  11.847  0.00  0.00    +0.000 C 
ENDROOT
BRANCH   1   8
ATOM      2  C   UNL     1      46.058   3.375   7.632  0.00  0.00    +0.000 C 
ATOM      3  C   UNL     1      45.453   3.874   8.910  0.00  0.00    +0.000 A 
ATOM      4  C   UNL     1      44.763   3.030   9.742  0.00  0.00    +0.000 A 
ATOM      5  C   UNL     1      44.254   3.613  10.878  0.00  0.00    +0.000 A 
ATOM      6  N   UNL     1      44.387   4.925  11.199  0.00  0.00    +0.000 NA
ATOM      7  C   UNL     1      45.052   5.672  10.313  0.00  0.00    +0.000 A 
ATOM      8  N   UNL     1      45.177   7.041  10.486  0.00  0.00    +0.000 N 
ATOM      9  N   UNL     1      45.606   5.187   9.192  0.00  0.00    +0.000 NA
ATOM     10  H   UNL     1      45.909   7.355   9.860  0.00  0.00    +0.000 HD
BRANCH   5  11
ATOM     11  C   UNL     1      43.482   2.758  11.834  0.00  0.00    +0.000 C 
ATOM     12  N   UNL     1      43.500   3.160  13.142  0.00  0.00    +0.000 N 
ATOM     13  O   UNL     1      42.868   1.761  11.479  0.00  0.00    +0.000 OA
ATOM     14  H   UNL     1      43.985   4.009  13.405  0.00  0.00    +0.000 HD
ATOM     15  H   UNL     1      42.969   2.639  13.825  0.00  0.00    +0.000 HD
ENDBRANCH   5  11
ENDBRANCH   1   8
BRANCH   1  16
ATOM     16  C   UNL     1      46.619   7.175  12.418  0.00  0.00    +0.000 A 
ATOM     17  C   UNL     1      47.793   7.435  11.709  0.00  0.00    +0.000 A 
ATOM     18  C   UNL     1      49.002   7.100  12.296  0.00  0.00    +0.000 A 
ATOM     19  N   UNL     1      49.121   6.530  13.515  0.00  0.00    +0.000 NA
ATOM     20  C   UNL     1      47.985   6.273  14.207  0.00  0.00    +0.000 A 
ATOM     21  C   UNL     1      46.729   6.603  13.692  0.00  0.00    +0.000 A 
BRANCH  20  22
ATOM     22  C   UNL     1      48.159   5.600  15.511  0.00  0.00    +0.000 A 
ATOM     23  C   UNL     1      49.109   6.054  16.450  0.00  0.00    +0.000 A 
ATOM     24  C   UNL     1      49.281   5.417  17.685  0.00  0.00    +0.000 A 
ATOM     25  C   UNL     1      48.506   4.309  17.996  0.00  0.00    +0.000 A 
ATOM     26  F   UNL     1      48.668   3.697  19.178  0.00  0.00    +0.000 F 
ATOM     27  C   UNL     1      47.573   3.836  17.087  0.00  0.00    +0.000 A 
ATOM     28  F   UNL     1      46.825   2.762  17.380  0.00  0.00    +0.000 F 
ATOM     29  C   UNL     1      47.397   4.467  15.859  0.00  0.00    +0.000 A 
ENDBRANCH  20  22
ENDBRANCH   1  16
TORSDOF 4
ENDMDL
MODEL 6
REMARK VINA RESULT:    -7.801      3.040      5.440
REMARK INTER + INTRA:         -10.043
REMARK INTER:                  -9.197
REMARK INTRA:                  -0.845
REMARK UNBOUND:                -0.418
REMARK  Name = 
REMARK  5 active torsions:
REMARK  status: ('A' for Active; 'I' for Inactive)
REMARK    1  A    between atoms: C_1  and  C_2
REMARK    2  A    between atoms: C_4  and  C_5
REMARK    3  A    between atoms: N_10  and  C_11
REMARK    4  A    between atoms: C_11  and  C_12
REMARK    5  A    between atoms: C_16  and  C_17
REMARK                            x       y       z     vdW  Elec       q    Type
REMARK                         _______ _______ _______ _____ _____    ______ ____
ROOT
ATOM      1  C   UNL     1      49.807   7.025  14.845  0.00  0.00    +0.000 C 
ENDROOT
BRANCH   1   8
ATOM      2  C   UNL     1      47.390   5.540  20.086  0.00  0.00    +0.000 C 
ATOM      3  C   UNL     1      48.198   5.238  18.860  0.00  0.00    +0.000 A 
ATOM      4  C   UNL     1      48.591   3.957  18.571  0.00  0.00    +0.000 A 
ATOM      5  C   UNL     1      49.330   3.816  17.420  0.00  0.00    +0.000 A 
ATOM      6  N   UNL     1      49.683   4.837  16.598  0.00  0.00    +0.000 NA
ATOM      7  C   UNL     1      49.276   6.052  16.979  0.00  0.00    +0.000 A 
ATOM      8  N   UNL     1      49.648   7.183  16.270  0.00  0.00    +0.000 N 
ATOM      9  N   UNL     1      48.529   6.283  18.069  0.00  0.00    +0.000 NA
ATOM     10  H   UNL     1      49.040   7.936  16.571  0.00  0.00    +0.000 HD
BRANCH   5  11
ATOM     11  C   UNL     1      49.803   2.448  17.038  0.00  0.00    +0.000 C 
ATOM     12  N   UNL     1      50.848   1.953  17.770  0.00  0.00    +0.000 N 
ATOM     13  O   UNL     1      49.292   1.803  16.132  0.00  0.00    +0.000 OA
ATOM     14  H   UNL     1      51.229   2.490  18.538  0.00  0.00    +0.000 HD
ATOM     15  H   UNL     1      51.186   1.020  17.578  0.00  0.00    +0.000 HD
ENDBRANCH   5  11
ENDBRANCH   1   8
BRANCH   1  16
ATOM     16  C   UNL     1      48.485   7.281  14.157  0.00  0.00    +0.000 A 
ATOM     17  C   UNL     1      47.871   8.534  14.197  0.00  0.00    +0.000 A 
ATOM     18  C   UNL     1      46.661   8.694  13.542  0.00  0.00    +0.000 A 
ATOM     19  N   UNL     1      46.028   7.710  12.867  0.00  0.00    +0.000 NA
ATOM     20  C   UNL     1      46.617   6.491  12.827  0.00  0.00    +0.000 A 
ATOM     21  C   UNL     1      47.849   6.257  13.442  0.00  0.00    +0.000 A 
BRANCH  20  22
ATOM     22  C   UNL     1      45.864   5.430  12.123  0.00  0.00    +0.000 A 
ATOM     23  C   UNL     1      45.438   4.265  12.795  0.00  0.00    +0.000 A 
ATOM     24  C   UNL     1      44.729   3.255  12.133  0.00  0.00    +0.000 A 
ATOM     25  C   UNL     1      44.441   3.396  10.782  0.00  0.00    +0.000 A 
ATOM     26  F   UNL     1      43.762   2.432  10.145  0.00  0.00    +0.000 F 
ATOM     27  C   UNL     1      44.858   4.526  10.097  0.00  0.00    +0.000 A 
ATOM     28  F   UNL     1      44.589   4.664   8.790  0.00  0.00    +0.000 F 
ATOM     29  C   UNL     1      45.562   5.533  10.752  0.00  0.00    +0.000 A 
ENDBRANCH  20  22
ENDBRANCH   1  16
TORSDOF 4
ENDMDL
MODEL 7
REMARK VINA RESULT:    -7.492      2.882      4.630
REMARK INTER + INTRA:          -9.661
REMARK INTER:                  -8.941
REMARK INTRA:                  -0.719
REMARK UNBOUND:                -0.418
REMARK  Name = 
REMARK  5 active torsions:
REMARK  status: ('A' for Active; 'I' for Inactive)
REMARK    1  A    between atoms: C_1  and  C_2
REMARK    2  A    between atoms: C_4  and  C_5
REMARK    3  A    between atoms: N_10  and  C_11
REMARK    4  A    between atoms: C_11  and  C_12
REMARK    5  A    between atoms: C_16  and  C_17
REMARK                            x       y       z     vdW  Elec       q    Type
REMARK                         _______ _______ _______ _____ _____    ______ ____
ROOT
ATOM      1  C   UNL     1      49.384   7.376  13.837  0.00  0.00    +0.000 C 
ENDROOT
BRANCH   1   8
ATOM      2  C   UNL     1      47.578   7.767  19.503  0.00  0.00    +0.000 C 
ATOM      3  C   UNL     1      48.219   7.044  18.357  0.00  0.00    +0.000 A 
ATOM      4  C   UNL     1      48.533   5.712  18.450  0.00  0.00    +0.000 A 
ATOM      5  C   UNL     1      49.122   5.169  17.332  0.00  0.00    +0.000 A 
ATOM      6  N   UNL     1      49.404   5.857  16.196  0.00  0.00    +0.000 NA
ATOM      7  C   UNL     1      49.085   7.155  16.212  0.00  0.00    +0.000 A 
ATOM      8  N   UNL     1      49.404   7.980  15.146  0.00  0.00    +0.000 N 
ATOM      9  N   UNL     1      48.486   7.765  17.245  0.00  0.00    +0.000 NA
ATOM     10  H   UNL     1      48.862   8.830  15.255  0.00  0.00    +0.000 HD
BRANCH   5  11
ATOM     11  C   UNL     1      49.500   3.721  17.357  0.00  0.00    +0.000 C 
ATOM     12  N   UNL     1      50.415   3.361  18.308  0.00  0.00    +0.000 N 
ATOM     13  O   UNL     1      49.026   2.903  16.580  0.00  0.00    +0.000 OA
ATOM     14  H   UNL     1      50.765   4.049  18.962  0.00  0.00    +0.000 HD
ATOM     15  H   UNL     1      50.682   2.390  18.392  0.00  0.00    +0.000 HD
ENDBRANCH   5  11
ENDBRANCH   1   8
BRANCH   1  16
ATOM     16  C   UNL     1      47.984   7.450  13.268  0.00  0.00    +0.000 A 
ATOM     17  C   UNL     1      47.131   8.515  13.562  0.00  0.00    +0.000 A 
ATOM     18  C   UNL     1      45.863   8.516  13.004  0.00  0.00    +0.000 A 
ATOM     19  N   UNL     1      45.392   7.545  12.191  0.00  0.00    +0.000 NA
ATOM     20  C   UNL     1      46.214   6.507  11.903  0.00  0.00    +0.000 A 
ATOM     21  C   UNL     1      47.515   6.447  12.409  0.00  0.00    +0.000 A 
BRANCH  20  22
ATOM     22  C   UNL     1      45.640   5.441  11.055  0.00  0.00    +0.000 A 
ATOM     23  C   UNL     1      45.845   5.424   9.659  0.00  0.00    +0.000 A 
ATOM     24  C   UNL     1      45.299   4.420   8.851  0.00  0.00    +0.000 A 
ATOM     25  C   UNL     1      44.532   3.418   9.429  0.00  0.00    +0.000 A 
ATOM     26  F   UNL     1      44.008   2.455   8.658  0.00  0.00    +0.000 F 
ATOM     27  C   UNL     1      44.306   3.418  10.797  0.00  0.00    +0.000 A 
ATOM     28  F   UNL     1      43.560   2.457  11.360  0.00  0.00    +0.000 F 
ATOM     29  C   UNL     1      44.848   4.414  11.605  0.00  0.00    +0.000 A 
ENDBRANCH  20  22
ENDBRANCH   1  16
TORSDOF 4
ENDMDL
MODEL 8
REMARK VINA RESULT:    -7.407      4.131      6.424
REMARK INTER + INTRA:          -9.556
REMARK INTER:                  -8.836
REMARK INTRA:                  -0.720
REMARK UNBOUND:                -0.418
REMARK  Name = 
REMARK  5 active torsions:
REMARK  status: ('A' for Active; 'I' for Inactive)
REMARK    1  A    between atoms: C_1  and  C_2
REMARK    2  A    between atoms: C_4  and  C_5
REMARK    3  A    between atoms: N_10  and  C_11
REMARK    4  A    between atoms: C_11  and  C_12
REMARK    5  A    between atoms: C_16  and  C_17
REMARK                            x       y       z     vdW  Elec       q    Type
REMARK                         _______ _______ _______ _____ _____    ______ ____
ROOT
ATOM      1  C   UNL     1      49.271   6.625  16.704  0.00  0.00    +0.000 C 
ENDROOT
BRANCH   1   8
ATOM      2  C   UNL     1      53.990   4.576  19.712  0.00  0.00    +0.000 C 
ATOM      3  C   UNL     1      52.822   4.401  18.788  0.00  0.00    +0.000 A 
ATOM      4  C   UNL     1      52.403   3.152  18.407  0.00  0.00    +0.000 A 
ATOM      5  C   UNL     1      51.325   3.131  17.554  0.00  0.00    +0.000 A 
ATOM      6  N   UNL     1      50.689   4.234  17.084  0.00  0.00    +0.000 NA
ATOM      7  C   UNL     1      51.188   5.405  17.490  0.00  0.00    +0.000 A 
ATOM      8  N   UNL     1      50.681   6.601  17.009  0.00  0.00    +0.000 N 
ATOM      9  N   UNL     1      52.218   5.525  18.341  0.00  0.00    +0.000 NA
ATOM     10  H   UNL     1      51.017   7.335  17.621  0.00  0.00    +0.000 HD
BRANCH   5  11
ATOM     11  C   UNL     1      50.812   1.804  17.087  0.00  0.00    +0.000 C 
ATOM     12  N   UNL     1      51.304   0.710  17.744  0.00  0.00    +0.000 N 
ATOM     13  O   UNL     1      50.001   1.695  16.177  0.00  0.00    +0.000 OA
ATOM     14  H   UNL     1      51.945   0.829  18.518  0.00  0.00    +0.000 HD
ATOM     15  H   UNL     1      50.967  -0.209  17.493  0.00  0.00    +0.000 HD
ENDBRANCH   5  11
ENDBRANCH   1   8
BRANCH   1  16
ATOM     16  C   UNL     1      49.080   6.798  15.213  0.00  0.00    +0.000 A 
ATOM     17  C   UNL     1      49.933   7.601  14.455  0.00  0.00    +0.000 A 
ATOM     18  C   UNL     1      49.697   7.711  13.094  0.00  0.00    +0.000 A 
ATOM     19  N   UNL     1      48.686   7.090  12.448  0.00  0.00    +0.000 NA
ATOM     20  C   UNL     1      47.852   6.311  13.179  0.00  0.00    +0.000 A 
ATOM     21  C   UNL     1      48.039   6.132  14.551  0.00  0.00    +0.000 A 
BRANCH  20  22
ATOM     22  C   UNL     1      46.728   5.695  12.441  0.00  0.00    +0.000 A 
ATOM     23  C   UNL     1      46.249   6.253  11.237  0.00  0.00    +0.000 A 
ATOM     24  C   UNL     1      45.182   5.676  10.537  0.00  0.00    +0.000 A 
ATOM     25  C   UNL     1      44.573   4.533  11.038  0.00  0.00    +0.000 A 
ATOM     26  F   UNL     1      43.552   3.979  10.370  0.00  0.00    +0.000 F 
ATOM     27  C   UNL     1      45.018   3.973  12.225  0.00  0.00    +0.000 A 
ATOM     28  F   UNL     1      44.430   2.873  12.717  0.00  0.00    +0.000 F 
ATOM     29  C   UNL     1      46.080   4.542  12.923  0.00  0.00    +0.000 A 
ENDBRANCH  20  22
ENDBRANCH   1  16
TORSDOF 4
ENDMDL
MODEL 9
REMARK VINA RESULT:    -7.134      3.370      4.949
REMARK INTER + INTRA:          -9.220
REMARK INTER:                  -8.645
REMARK INTRA:                  -0.575
REMARK UNBOUND:                -0.418
REMARK  Name = 
REMARK  5 active torsions:
REMARK  status: ('A' for Active; 'I' for Inactive)
REMARK    1  A    between atoms: C_1  and  C_2
REMARK    2  A    between atoms: C_4  and  C_5
REMARK    3  A    between atoms: N_10  and  C_11
REMARK    4  A    between atoms: C_11  and  C_12
REMARK    5  A    between atoms: C_16  and  C_17
REMARK                            x       y       z     vdW  Elec       q    Type
REMARK                         _______ _______ _______ _____ _____    ______ ____
ROOT
ATOM      1  C   UNL     1      48.026   7.585  14.324  0.00  0.00    +0.000 C 
ENDROOT
BRANCH   1   8
ATOM      2  C   UNL     1      50.501   3.392  17.760  0.00  0.00    +0.000 C 
ATOM      3  C   UNL     1      49.965   4.772  17.522  0.00  0.00    +0.000 A 
ATOM      4  C   UNL     1      50.144   5.769  18.446  0.00  0.00    +0.000 A 
ATOM      5  C   UNL     1      49.599   6.985  18.108  0.00  0.00    +0.000 A 
ATOM      6  N   UNL     1      48.916   7.235  16.962  0.00  0.00    +0.000 NA
ATOM      7  C   UNL     1      48.771   6.193  16.138  0.00  0.00    +0.000 A 
ATOM      8  N   UNL     1      48.018   6.300  14.980  0.00  0.00    +0.000 N 
ATOM      9  N   UNL     1      49.288   4.978  16.370  0.00  0.00    +0.000 NA
ATOM     10  H   UNL     1      48.248   5.502  14.400  0.00  0.00    +0.000 HD
BRANCH   5  11
ATOM     11  C   UNL     1      49.747   8.124  19.069  0.00  0.00    +0.000 C 
ATOM     12  N   UNL     1      50.214   9.295  18.537  0.00  0.00    +0.000 N 
ATOM     13  O   UNL     1      49.469   8.025  20.256  0.00  0.00    +0.000 OA
ATOM     14  H   UNL     1      50.402   9.363  17.545  0.00  0.00    +0.000 HD
ATOM     15  H   UNL     1      50.302  10.106  19.133  0.00  0.00    +0.000 HD
ENDBRANCH   5  11
ENDBRANCH   1   8
BRANCH   1  16
ATOM     16  C   UNL     1      46.939   7.623  13.273  0.00  0.00    +0.000 A 
ATOM     17  C   UNL     1      46.195   8.779  13.033  0.00  0.00    +0.000 A 
ATOM     18  C   UNL     1      45.216   8.740  12.054  0.00  0.00    +0.000 A 
ATOM     19  N   UNL     1      44.929   7.648  11.312  0.00  0.00    +0.000 NA
ATOM     20  C   UNL     1      45.646   6.521  11.542  0.00  0.00    +0.000 A 
ATOM     21  C   UNL     1      46.665   6.489  12.496  0.00  0.00    +0.000 A 
BRANCH  20  22
ATOM     22  C   UNL     1      45.262   5.335  10.746  0.00  0.00    +0.000 A 
ATOM     23  C   UNL     1      45.640   5.206   9.393  0.00  0.00    +0.000 A 
ATOM     24  C   UNL     1      45.275   4.087   8.634  0.00  0.00    +0.000 A 
ATOM     25  C   UNL     1      44.518   3.082   9.220  0.00  0.00    +0.000 A 
ATOM     26  F   UNL     1      44.167   2.010   8.496  0.00  0.00    +0.000 F 
ATOM     27  C   UNL     1      44.124   3.190  10.544  0.00  0.00    +0.000 A 
ATOM     28  F   UNL     1      43.387   2.225  11.113  0.00  0.00    +0.000 F 
ATOM     29  C   UNL     1      44.486   4.300  11.303  0.00  0.00    +0.000 A 
ENDBRANCH  20  22
ENDBRANCH   1  16
TORSDOF 4
ENDMDL
