MODEL 1
REMARK VINA RESULT:    -7.285      0.000      0.000
REMARK INTER + INTRA:         -11.190
REMARK INTER:                 -10.267
REMARK INTRA:                  -0.923
REMARK UNBOUND:                -0.923
REMARK  Name = 
REMARK  11 active torsions:
REMARK  status: ('A' for Active; 'I' for Inactive)
REMARK    1  A    between atoms: C_1  and  N_2
REMARK    2  A    between atoms: N_2  and  C_3
REMARK    3  A    between atoms: N_2  and  C_4
REMARK    4  A    between atoms: C_4  and  C_5
REMARK    5  A    between atoms: C_9  and  C_10
REMARK    6  A    between atoms: C_10  and  C_11
REMARK    7  A    between atoms: C_10  and  C_12
REMARK    8  A    between atoms: C_10  and  C_13
REMARK    9  A    between atoms: C_13  and  N_14
REMARK   10  A    between atoms: N_14  and  C_15
REMARK   11  A    between atoms: C_18  and  C_19
REMARK                            x       y       z     vdW  Elec       q    Type
REMARK                         _______ _______ _______ _____ _____    ______ ____
ROOT
ATOM      1  C   UNL     1      43.861   3.533  11.290  0.00  0.00    +0.000 C 
ENDROOT
BRANCH   1   2
ATOM      2  C   UNL     1      43.777   4.783  12.213  0.00  0.00    +0.000 C 
ATOM      3  C   UNL     1      43.157   4.349  13.562  0.00  0.00    +0.000 C 
ATOM      4  C   UNL     1      42.886   5.856  11.548  0.00  0.00    +0.000 C 
BRANCH   2   9
ATOM      5  C   UNL     1      47.131   5.619  13.955  0.00  0.00    +0.000 A 
ATOM      6  C   UNL     1      47.754   6.420  12.986  0.00  0.00    +0.000 A 
ATOM      7  C   UNL     1      47.145   6.637  11.753  0.00  0.00    +0.000 A 
ATOM      8  C   UNL     1      45.880   6.114  11.495  0.00  0.00    +0.000 A 
ATOM      9  C   UNL     1      45.178   5.386  12.475  0.00  0.00    +0.000 A 
ATOM     10  C   UNL     1      45.823   5.174  13.711  0.00  0.00    +0.000 A 
BRANCH   5  11
ATOM     11  C   UNL     1      47.881   5.170  15.206  0.00  0.00    +0.000 C 
BRANCH  11  13
ATOM     12  C   UNL     1      47.921   2.840  15.880  0.00  0.00    +0.000 C 
ATOM     13  N   UNL     1      47.193   4.109  15.981  0.00  0.00    +0.000 NA
ATOM     14  C   UNL     1      47.069   4.452  17.406  0.00  0.00    +0.000 C 
ENDBRANCH  11  13
ENDBRANCH   5  11
ENDBRANCH   2   9
ENDBRANCH   1   2
BRANCH   1  15
ATOM     15  N   UNL     1      43.579   3.814   9.876  0.00  0.00    +0.000 N 
ATOM     16  H   UNL     1      43.282   4.774   9.715  0.00  0.00    +0.000 HD
BRANCH  15  17
ATOM     17  C   UNL     1      44.597   3.446   8.986  0.00  0.00    +0.000 A 
ATOM     18  C   UNL     1      45.320   4.337   8.202  0.00  0.00    +0.000 A 
ATOM     19  N   UNL     1      46.330   4.000   7.375  0.00  0.00    +0.000 NA
ATOM     20  C   UNL     1      46.653   2.687   7.375  0.00  0.00    +0.000 A 
ATOM     21  N   UNL     1      46.052   1.724   8.098  0.00  0.00    +0.000 NA
ATOM     22  C   UNL     1      45.051   2.139   8.899  0.00  0.00    +0.000 A 
BRANCH  20  23
ATOM     23  C   UNL     1      47.824   2.278   6.509  0.00  0.00    +0.000 C 
ATOM     24  N   UNL     1      47.929   2.954   5.308  0.00  0.00    +0.000 N 
ATOM     25  O   UNL     1      48.638   1.430   6.815  0.00  0.00    +0.000 OA
ATOM     26  H   UNL     1      47.271   3.685   5.075  0.00  0.00    +0.000 HD
ATOM     27  H   UNL     1      48.721   2.757   4.712  0.00  0.00    +0.000 HD
ENDBRANCH  20  23
ENDBRANCH  15  17
ENDBRANCH   1  15
TORSDOF 7
ENDMDL
MODEL 2
REMARK VINA RESULT:    -7.056      1.690      2.909
REMARK INTER + INTRA:         -10.867
REMARK INTER:                  -9.947
REMARK INTRA:                  -0.919
REMARK UNBOUND:                -0.923
REMARK  Name = 
REMARK  11 active torsions:
REMARK  status: ('A' for Active; 'I' for Inactive)
REMARK    1  A    between atoms: C_1  and  N_2
REMARK    2  A    between atoms: N_2  and  C_3
REMARK    3  A    between atoms: N_2  and  C_4
REMARK    4  A    between atoms: C_4  and  C_5
REMARK    5  A    between atoms: C_9  and  C_10
REMARK    6  A    between atoms: C_10  and  C_11
REMARK    7  A    between atoms: C_10  and  C_12
REMARK    8  A    between atoms: C_10  and  C_13
REMARK    9  A    between atoms: C_13  and  N_14
REMARK   10  A    between atoms: N_14  and  C_15
REMARK   11  A    between atoms: C_18  and  C_19
REMARK                            x       y       z     vdW  Elec       q    Type
REMARK                         _______ _______ _______ _____ _____    ______ ____
ROOT
ATOM      1  C   UNL     1      43.888   3.722  11.359  0.00  0.00    +0.000 C 
ENDROOT
BRANCH   1   2
ATOM      2  C   UNL     1      43.922   5.022  12.214  0.00  0.00    +0.000 C 
ATOM      3  C   UNL     1      43.045   4.800  13.469  0.00  0.00    +0.000 C 
ATOM      4  C   UNL     1      43.362   6.199  11.386  0.00  0.00    +0.000 C 
BRANCH   2   9
ATOM      5  C   UNL     1      47.420   6.675  12.328  0.00  0.00    +0.000 A 
ATOM      6  C   UNL     1      47.978   6.066  13.462  0.00  0.00    +0.000 A 
ATOM      7  C   UNL     1      47.223   5.185  14.232  0.00  0.00    +0.000 A 
ATOM      8  C   UNL     1      45.927   4.851  13.846  0.00  0.00    +0.000 A 
ATOM      9  C   UNL     1      45.363   5.365  12.662  0.00  0.00    +0.000 A 
ATOM     10  C   UNL     1      46.147   6.262  11.907  0.00  0.00    +0.000 A 
BRANCH   5  11
ATOM     11  C   UNL     1      48.137   7.819  11.615  0.00  0.00    +0.000 C 
BRANCH  11  13
ATOM     12  C   UNL     1      49.795   9.339  12.525  0.00  0.00    +0.000 C 
ATOM     13  N   UNL     1      48.366   9.016  12.460  0.00  0.00    +0.000 NA
ATOM     14  C   UNL     1      47.654  10.199  11.953  0.00  0.00    +0.000 C 
ENDBRANCH  11  13
ENDBRANCH   5  11
ENDBRANCH   2   9
ENDBRANCH   1   2
BRANCH   1  15
ATOM     15  N   UNL     1      43.582   3.948   9.940  0.00  0.00    +0.000 N 
ATOM     16  H   UNL     1      43.292   4.904   9.746  0.00  0.00    +0.000 HD
BRANCH  15  17
ATOM     17  C   UNL     1      44.578   3.533   9.047  0.00  0.00    +0.000 A 
ATOM     18  C   UNL     1      45.304   4.383   8.222  0.00  0.00    +0.000 A 
ATOM     19  N   UNL     1      46.294   4.001   7.391  0.00  0.00    +0.000 NA
ATOM     20  C   UNL     1      46.593   2.683   7.430  0.00  0.00    +0.000 A 
ATOM     21  N   UNL     1      45.987   1.755   8.194  0.00  0.00    +0.000 NA
ATOM     22  C   UNL     1      45.007   2.216   8.997  0.00  0.00    +0.000 A 
BRANCH  20  23
ATOM     23  C   UNL     1      47.742   2.223   6.559  0.00  0.00    +0.000 C 
ATOM     24  N   UNL     1      47.973   2.997   5.437  0.00  0.00    +0.000 N 
ATOM     25  O   UNL     1      48.440   1.258   6.800  0.00  0.00    +0.000 OA
ATOM     26  H   UNL     1      47.414   3.821   5.261  0.00  0.00    +0.000 HD
ATOM     27  H   UNL     1      48.759   2.766   4.846  0.00  0.00    +0.000 HD
ENDBRANCH  20  23
ENDBRANCH  15  17
ENDBRANCH   1  15
TORSDOF 7
ENDMDL
MODEL 3
REMARK VINA RESULT:    -6.699      2.620      7.670
REMARK INTER + INTRA:         -10.363
REMARK INTER:                  -9.769
REMARK INTRA:                  -0.594
REMARK UNBOUND:                -0.923
REMARK  Name = 
REMARK  11 active torsions:
REMARK  status: ('A' for Active; 'I' for Inactive)
REMARK    1  A    between atoms: C_1  and  N_2
REMARK    2  A    between atoms: N_2  and  C_3
REMARK    3  A    between atoms: N_2  and  C_4
REMARK    4  A    between atoms: C_4  and  C_5
REMARK    5  A    between atoms: C_9  and  C_10
REMARK    6  A    between atoms: C_10  and  C_11
REMARK    7  A    between atoms: C_10  and  C_12
REMARK    8  A    between atoms: C_10  and  C_13
REMARK    9  A    between atoms: C_13  and  N_14
REMARK   10  A    between atoms: N_14  and  C_15
REMARK   11  A    between atoms: C_18  and  C_19
REMARK                            x       y       z     vdW  Elec       q    Type
REMARK                         _______ _______ _______ _____ _____    ______ ____
ROOT
ATOM      1  C   UNL     1      46.584   5.735  12.452  0.00  0.00    +0.000 C 
ENDROOT
BRANCH   1   2
ATOM      2  C   UNL     1      45.163   5.764  11.820  0.00  0.00    +0.000 C 
ATOM      3  C   UNL     1      44.951   7.150  11.166  0.00  0.00    +0.000 C 
ATOM      4  C   UNL     1      44.103   5.538  12.921  0.00  0.00    +0.000 C 
BRANCH   2   9
ATOM      5  C   UNL     1      45.594   3.802   8.510  0.00  0.00    +0.000 A 
ATOM      6  C   UNL     1      44.790   2.677   8.749  0.00  0.00    +0.000 A 
ATOM      7  C   UNL     1      44.169   2.503   9.982  0.00  0.00    +0.000 A 
ATOM      8  C   UNL     1      44.287   3.479  10.969  0.00  0.00    +0.000 A 
ATOM      9  C   UNL     1      45.004   4.669  10.738  0.00  0.00    +0.000 A 
ATOM     10  C   UNL     1      45.631   4.813   9.483  0.00  0.00    +0.000 A 
BRANCH   5  11
ATOM     11  C   UNL     1      46.474   3.893   7.267  0.00  0.00    +0.000 C 
BRANCH  11  13
ATOM     12  C   UNL     1      46.964   2.857   5.128  0.00  0.00    +0.000 C 
ATOM     13  N   UNL     1      46.628   2.612   6.534  0.00  0.00    +0.000 NA
ATOM     14  C   UNL     1      47.680   1.763   7.114  0.00  0.00    +0.000 C 
ENDBRANCH  11  13
ENDBRANCH   5  11
ENDBRANCH   2   9
ENDBRANCH   1   2
BRANCH   1  15
ATOM     15  N   UNL     1      46.636   6.245  13.829  0.00  0.00    +0.000 N 
ATOM     16  H   UNL     1      45.731   6.562  14.168  0.00  0.00    +0.000 HD
BRANCH  15  17
ATOM     17  C   UNL     1      47.248   5.389  14.754  0.00  0.00    +0.000 A 
ATOM     18  C   UNL     1      46.993   4.027  14.858  0.00  0.00    +0.000 A 
ATOM     19  N   UNL     1      47.607   3.185  15.713  0.00  0.00    +0.000 NA
ATOM     20  C   UNL     1      48.566   3.751  16.479  0.00  0.00    +0.000 A 
ATOM     21  N   UNL     1      48.929   5.047  16.466  0.00  0.00    +0.000 NA
ATOM     22  C   UNL     1      48.268   5.825  15.585  0.00  0.00    +0.000 A 
BRANCH  20  23
ATOM     23  C   UNL     1      49.324   2.827  17.408  0.00  0.00    +0.000 C 
ATOM     24  N   UNL     1      49.190   3.110  18.755  0.00  0.00    +0.000 N 
ATOM     25  O   UNL     1      50.002   1.890  17.037  0.00  0.00    +0.000 OA
ATOM     26  H   UNL     1      48.594   3.868  19.060  0.00  0.00    +0.000 HD
ATOM     27  H   UNL     1      49.633   2.495  19.422  0.00  0.00    +0.000 HD
ENDBRANCH  20  23
ENDBRANCH  15  17
ENDBRANCH   1  15
TORSDOF 7
ENDMDL
MODEL 4
REMARK VINA RESULT:    -6.240      2.892      7.458
REMARK INTER + INTRA:          -9.717
REMARK INTER:                  -8.848
REMARK INTRA:                  -0.869
REMARK UNBOUND:                -0.923
REMARK  Name = 
REMARK  11 active torsions:
REMARK  status: ('A' for Active; 'I' for Inactive)
REMARK    1  A    between atoms: C_1  and  N_2
REMARK    2  A    between atoms: N_2  and  C_3
REMARK    3  A    between atoms: N_2  and  C_4
REMARK    4  A    between atoms: C_4  and  C_5
REMARK    5  A    between atoms: C_9  and  C_10
REMARK    6  A    between atoms: C_10  and  C_11
REMARK    7  A    between atoms: C_10  and  C_12
REMARK    8  A    between atoms: C_10  and  C_13
REMARK    9  A    between atoms: C_13  and  N_14
REMARK   10  A    between atoms: N_14  and  C_15
REMARK   11  A    between atoms: C_18  and  C_19
REMARK                            x       y       z     vdW  Elec       q    Type
REMARK                         _______ _______ _______ _____ _____    ______ ____
ROOT
ATOM      1  C   UNL     1      45.859   6.744  13.324  0.00  0.00    +0.000 C 
ENDROOT
BRANCH   1   2
ATOM      2  C   UNL     1      45.524   6.572  11.814  0.00  0.00    +0.000 C 
ATOM      3  C   UNL     1      46.845   6.640  11.013  0.00  0.00    +0.000 C 
ATOM      4  C   UNL     1      44.580   7.708  11.363  0.00  0.00    +0.000 C 
BRANCH   2   9
ATOM      5  C   UNL     1      44.341   3.378   9.974  0.00  0.00    +0.000 A 
ATOM      6  C   UNL     1      43.649   2.711  10.995  0.00  0.00    +0.000 A 
ATOM      7  C   UNL     1      43.616   3.235  12.284  0.00  0.00    +0.000 A 
ATOM      8  C   UNL     1      44.217   4.462  12.556  0.00  0.00    +0.000 A 
ATOM      9  C   UNL     1      44.839   5.212  11.540  0.00  0.00    +0.000 A 
ATOM     10  C   UNL     1      44.864   4.652  10.245  0.00  0.00    +0.000 A 
BRANCH   5  11
ATOM     11  C   UNL     1      44.596   2.709   8.626  0.00  0.00    +0.000 C 
BRANCH  11  13
ATOM     12  C   UNL     1      46.413   1.243   7.964  0.00  0.00    +0.000 C 
ATOM     13  N   UNL     1      46.027   2.630   8.245  0.00  0.00    +0.000 NA
ATOM     14  C   UNL     1      46.331   3.439   7.054  0.00  0.00    +0.000 C 
ENDBRANCH  11  13
ENDBRANCH   5  11
ENDBRANCH   2   9
ENDBRANCH   1   2
BRANCH   1  15
ATOM     15  N   UNL     1      47.298   6.766  13.618  0.00  0.00    +0.000 N 
ATOM     16  H   UNL     1      47.649   7.703  13.807  0.00  0.00    +0.000 HD
BRANCH  15  17
ATOM     17  C   UNL     1      47.714   5.864  14.607  0.00  0.00    +0.000 A 
ATOM     18  C   UNL     1      48.630   6.159  15.609  0.00  0.00    +0.000 A 
ATOM     19  N   UNL     1      49.005   5.314  16.591  0.00  0.00    +0.000 NA
ATOM     20  C   UNL     1      48.381   4.115  16.579  0.00  0.00    +0.000 A 
ATOM     21  N   UNL     1      47.462   3.709  15.684  0.00  0.00    +0.000 NA
ATOM     22  C   UNL     1      47.141   4.609  14.733  0.00  0.00    +0.000 A 
BRANCH  20  23
ATOM     23  C   UNL     1      48.726   3.162  17.703  0.00  0.00    +0.000 C 
ATOM     24  N   UNL     1      50.052   2.773  17.756  0.00  0.00    +0.000 N 
ATOM     25  O   UNL     1      47.928   2.753  18.523  0.00  0.00    +0.000 OA
ATOM     26  H   UNL     1      50.719   3.146  17.094  0.00  0.00    +0.000 HD
ATOM     27  H   UNL     1      50.349   2.178  18.515  0.00  0.00    +0.000 HD
ENDBRANCH  20  23
ENDBRANCH  15  17
ENDBRANCH   1  15
TORSDOF 7
ENDMDL
MODEL 5
REMARK VINA RESULT:    -6.108      1.912      2.789
REMARK INTER + INTRA:          -9.530
REMARK INTER:                  -9.119
REMARK INTRA:                  -0.412
REMARK UNBOUND:                -0.923
REMARK  Name = 
REMARK  11 active torsions:
REMARK  status: ('A' for Active; 'I' for Inactive)
REMARK    1  A    between atoms: C_1  and  N_2
REMARK    2  A    between atoms: N_2  and  C_3
REMARK    3  A    between atoms: N_2  and  C_4
REMARK    4  A    between atoms: C_4  and  C_5
REMARK    5  A    between atoms: C_9  and  C_10
REMARK    6  A    between atoms: C_10  and  C_11
REMARK    7  A    between atoms: C_10  and  C_12
REMARK    8  A    between atoms: C_10  and  C_13
REMARK    9  A    between atoms: C_13  and  N_14
REMARK   10  A    between atoms: N_14  and  C_15
REMARK   11  A    between atoms: C_18  and  C_19
REMARK                            x       y       z     vdW  Elec       q    Type
REMARK                         _______ _______ _______ _____ _____    ______ ____
ROOT
ATOM      1  C   UNL     1      45.329   4.215  11.889  0.00  0.00    +0.000 C 
ENDROOT
BRANCH   1   2
ATOM      2  C   UNL     1      45.763   5.607  12.433  0.00  0.00    +0.000 C 
ATOM      3  C   UNL     1      44.491   6.393  12.829  0.00  0.00    +0.000 C 
ATOM      4  C   UNL     1      46.531   6.374  11.333  0.00  0.00    +0.000 C 
BRANCH   2   9
ATOM      5  C   UNL     1      48.442   6.404  15.112  0.00  0.00    +0.000 A 
ATOM      6  C   UNL     1      48.330   5.288  15.956  0.00  0.00    +0.000 A 
ATOM      7  C   UNL     1      47.359   4.319  15.718  0.00  0.00    +0.000 A 
ATOM      8  C   UNL     1      46.532   4.415  14.601  0.00  0.00    +0.000 A 
ATOM      9  C   UNL     1      46.675   5.467  13.676  0.00  0.00    +0.000 A 
ATOM     10  C   UNL     1      47.661   6.439  13.947  0.00  0.00    +0.000 A 
BRANCH   5  11
ATOM     11  C   UNL     1      49.325   7.590  15.488  0.00  0.00    +0.000 C 
BRANCH  11  13
ATOM     12  C   UNL     1      50.146   8.659  17.506  0.00  0.00    +0.000 C 
ATOM     13  N   UNL     1      48.950   8.251  16.762  0.00  0.00    +0.000 NA
ATOM     14  C   UNL     1      48.118   9.445  16.545  0.00  0.00    +0.000 C 
ENDBRANCH  11  13
ENDBRANCH   5  11
ENDBRANCH   2   9
ENDBRANCH   1   2
BRANCH   1  15
ATOM     15  N   UNL     1      44.546   4.277  10.648  0.00  0.00    +0.000 N 
ATOM     16  H   UNL     1      44.134   5.193  10.484  0.00  0.00    +0.000 HD
BRANCH  15  17
ATOM     17  C   UNL     1      45.211   3.813   9.505  0.00  0.00    +0.000 A 
ATOM     18  C   UNL     1      45.854   4.628   8.581  0.00  0.00    +0.000 A 
ATOM     19  N   UNL     1      46.535   4.191   7.503  0.00  0.00    +0.000 NA
ATOM     20  C   UNL     1      46.602   2.847   7.378  0.00  0.00    +0.000 A 
ATOM     21  N   UNL     1      46.047   1.945   8.208  0.00  0.00    +0.000 NA
ATOM     22  C   UNL     1      45.382   2.459   9.262  0.00  0.00    +0.000 A 
BRANCH  20  23
ATOM     23  C   UNL     1      47.412   2.314   6.215  0.00  0.00    +0.000 C 
ATOM     24  N   UNL     1      47.177   2.936   5.003  0.00  0.00    +0.000 N 
ATOM     25  O   UNL     1      48.226   1.417   6.303  0.00  0.00    +0.000 OA
ATOM     26  H   UNL     1      46.526   3.708   4.944  0.00  0.00    +0.000 HD
ATOM     27  H   UNL     1      47.726   2.656   4.204  0.00  0.00    +0.000 HD
ENDBRANCH  20  23
ENDBRANCH  15  17
ENDBRANCH   1  15
TORSDOF 7
ENDMDL
MODEL 6
REMARK VINA RESULT:    -5.921      3.253      5.694
REMARK INTER + INTRA:          -9.266
REMARK INTER:                  -8.503
REMARK INTRA:                  -0.763
REMARK UNBOUND:                -0.923
REMARK  Name = 
REMARK  11 active torsions:
REMARK  status: ('A' for Active; 'I' for Inactive)
REMARK    1  A    between atoms: C_1  and  N_2
REMARK    2  A    between atoms: N_2  and  C_3
REMARK    3  A    between atoms: N_2  and  C_4
REMARK    4  A    between atoms: C_4  and  C_5
REMARK    5  A    between atoms: C_9  and  C_10
REMARK    6  A    between atoms: C_10  and  C_11
REMARK    7  A    between atoms: C_10  and  C_12
REMARK    8  A    between atoms: C_10  and  C_13
REMARK    9  A    between atoms: C_13  and  N_14
REMARK   10  A    between atoms: N_14  and  C_15
REMARK   11  A    between atoms: C_18  and  C_19
REMARK                            x       y       z     vdW  Elec       q    Type
REMARK                         _______ _______ _______ _____ _____    ______ ____
ROOT
ATOM      1  C   UNL     1      48.573   7.009  13.539  0.00  0.00    +0.000 C 
ENDROOT
BRANCH   1   2
ATOM      2  C   UNL     1      49.322   8.016  14.460  0.00  0.00    +0.000 C 
ATOM      3  C   UNL     1      48.274   8.762  15.318  0.00  0.00    +0.000 C 
ATOM      4  C   UNL     1      50.104   9.026  13.592  0.00  0.00    +0.000 C 
BRANCH   2   9
ATOM      5  C   UNL     1      50.733   5.536  17.077  0.00  0.00    +0.000 A 
ATOM      6  C   UNL     1      52.089   5.896  17.097  0.00  0.00    +0.000 A 
ATOM      7  C   UNL     1      52.572   6.874  16.232  0.00  0.00    +0.000 A 
ATOM      8  C   UNL     1      51.698   7.550  15.383  0.00  0.00    +0.000 A 
ATOM      9  C   UNL     1      50.315   7.289  15.400  0.00  0.00    +0.000 A 
ATOM     10  C   UNL     1      49.855   6.287  16.280  0.00  0.00    +0.000 A 
BRANCH   5  11
ATOM     11  C   UNL     1      50.232   4.309  17.835  0.00  0.00    +0.000 C 
BRANCH  11  13
ATOM     12  C   UNL     1      50.578   1.994  17.196  0.00  0.00    +0.000 C 
ATOM     13  N   UNL     1      49.775   3.199  16.964  0.00  0.00    +0.000 NA
ATOM     14  C   UNL     1      48.363   2.858  17.193  0.00  0.00    +0.000 C 
ENDBRANCH  11  13
ENDBRANCH   5  11
ENDBRANCH   2   9
ENDBRANCH   1   2
BRANCH   1  15
ATOM     15  N   UNL     1      47.110   7.075  13.647  0.00  0.00    +0.000 N 
ATOM     16  H   UNL     1      46.733   7.980  13.371  0.00  0.00    +0.000 HD
BRANCH  15  17
ATOM     17  C   UNL     1      46.422   6.029  13.018  0.00  0.00    +0.000 A 
ATOM     18  C   UNL     1      45.946   4.896  13.665  0.00  0.00    +0.000 A 
ATOM     19  N   UNL     1      45.246   3.904  13.079  0.00  0.00    +0.000 NA
ATOM     20  C   UNL     1      44.977   4.094  11.768  0.00  0.00    +0.000 A 
ATOM     21  N   UNL     1      45.357   5.151  11.027  0.00  0.00    +0.000 NA
ATOM     22  C   UNL     1      46.054   6.100  11.684  0.00  0.00    +0.000 A 
BRANCH  20  23
ATOM     23  C   UNL     1      44.137   3.034  11.089  0.00  0.00    +0.000 C 
ATOM     24  N   UNL     1      44.771   2.349  10.069  0.00  0.00    +0.000 N 
ATOM     25  O   UNL     1      42.992   2.769  11.394  0.00  0.00    +0.000 OA
ATOM     26  H   UNL     1      45.737   2.548   9.844  0.00  0.00    +0.000 HD
ATOM     27  H   UNL     1      44.275   1.596   9.614  0.00  0.00    +0.000 HD
ENDBRANCH  20  23
ENDBRANCH  15  17
ENDBRANCH   1  15
TORSDOF 7
ENDMDL
MODEL 7
REMARK VINA RESULT:    -5.917      3.084      5.187
REMARK INTER + INTRA:          -9.261
REMARK INTER:                  -8.357
REMARK INTRA:                  -0.904
REMARK UNBOUND:                -0.923
REMARK  Name = 
REMARK  11 active torsions:
REMARK  status: ('A' for Active; 'I' for Inactive)
REMARK    1  A    between atoms: C_1  and  N_2
REMARK    2  A    between atoms: N_2  and  C_3
REMARK    3  A    between atoms: N_2  and  C_4
REMARK    4  A    between atoms: C_4  and  C_5
REMARK    5  A    between atoms: C_9  and  C_10
REMARK    6  A    between atoms: C_10  and  C_11
REMARK    7  A    between atoms: C_10  and  C_12
REMARK    8  A    between atoms: C_10  and  C_13
REMARK    9  A    between atoms: C_13  and  N_14
REMARK   10  A    between atoms: N_14  and  C_15
REMARK   11  A    between atoms: C_18  and  C_19
REMARK                            x       y       z     vdW  Elec       q    Type
REMARK                         _______ _______ _______ _____ _____    ______ ____
ROOT
ATOM      1  C   UNL     1      47.030   8.471  12.527  0.00  0.00    +0.000 C 
ENDROOT
BRANCH   1   2
ATOM      2  C   UNL     1      48.486   8.298  13.049  0.00  0.00    +0.000 C 
ATOM      3  C   UNL     1      49.288   9.567  12.677  0.00  0.00    +0.000 C 
ATOM      4  C   UNL     1      49.128   7.060  12.385  0.00  0.00    +0.000 C 
BRANCH   2   9
ATOM      5  C   UNL     1      48.958   6.670  16.529  0.00  0.00    +0.000 A 
ATOM      6  C   UNL     1      48.638   7.739  17.380  0.00  0.00    +0.000 A 
ATOM      7  C   UNL     1      48.342   8.994  16.856  0.00  0.00    +0.000 A 
ATOM      8  C   UNL     1      48.298   9.183  15.476  0.00  0.00    +0.000 A 
ATOM      9  C   UNL     1      48.517   8.116  14.585  0.00  0.00    +0.000 A 
ATOM     10  C   UNL     1      48.823   6.857  15.145  0.00  0.00    +0.000 A 
BRANCH   5  11
ATOM     11  C   UNL     1      49.519   5.363  17.082  0.00  0.00    +0.000 C 
BRANCH  11  13
ATOM     12  C   UNL     1      49.346   2.950  17.276  0.00  0.00    +0.000 C 
ATOM     13  N   UNL     1      48.726   4.160  16.726  0.00  0.00    +0.000 NA
ATOM     14  C   UNL     1      47.346   4.235  17.228  0.00  0.00    +0.000 C 
ENDBRANCH  11  13
ENDBRANCH   5  11
ENDBRANCH   2   9
ENDBRANCH   1   2
BRANCH   1  15
ATOM     15  N   UNL     1      46.022   7.753  13.320  0.00  0.00    +0.000 N 
ATOM     16  H   UNL     1      45.238   8.343  13.591  0.00  0.00    +0.000 HD
BRANCH  15  17
ATOM     17  C   UNL     1      45.577   6.549  12.760  0.00  0.00    +0.000 A 
ATOM     18  C   UNL     1      45.891   5.287  13.250  0.00  0.00    +0.000 A 
ATOM     19  N   UNL     1      45.432   4.123  12.746  0.00  0.00    +0.000 NA
ATOM     20  C   UNL     1      44.572   4.250  11.711  0.00  0.00    +0.000 A 
ATOM     21  N   UNL     1      44.168   5.406  11.154  0.00  0.00    +0.000 NA
ATOM     22  C   UNL     1      44.670   6.525  11.712  0.00  0.00    +0.000 A 
BRANCH  20  23
ATOM     23  C   UNL     1      43.985   2.969  11.158  0.00  0.00    +0.000 C 
ATOM     24  N   UNL     1      44.713   2.382  10.140  0.00  0.00    +0.000 N 
ATOM     25  O   UNL     1      42.959   2.458  11.560  0.00  0.00    +0.000 OA
ATOM     26  H   UNL     1      45.586   2.791   9.836  0.00  0.00    +0.000 HD
ATOM     27  H   UNL     1      44.395   1.499   9.768  0.00  0.00    +0.000 HD
ENDBRANCH  20  23
ENDBRANCH  15  17
ENDBRANCH   1  15
TORSDOF 7
ENDMDL
MODEL 8
REMARK VINA RESULT:    -5.726      3.361      7.819
REMARK INTER + INTRA:          -8.993
REMARK INTER:                  -8.036
REMARK INTRA:                  -0.957
REMARK UNBOUND:                -0.923
REMARK  Name = 
REMARK  11 active torsions:
REMARK  status: ('A' for Active; 'I' for Inactive)
REMARK    1  A    between atoms: C_1  and  N_2
REMARK    2  A    between atoms: N_2  and  C_3
REMARK    3  A    between atoms: N_2  and  C_4
REMARK    4  A    between atoms: C_4  and  C_5
REMARK    5  A    between atoms: C_9  and  C_10
REMARK    6  A    between atoms: C_10  and  C_11
REMARK    7  A    between atoms: C_10  and  C_12
REMARK    8  A    between atoms: C_10  and  C_13
REMARK    9  A    between atoms: C_13  and  N_14
REMARK   10  A    between atoms: N_14  and  C_15
REMARK   11  A    between atoms: C_18  and  C_19
REMARK                            x       y       z     vdW  Elec       q    Type
REMARK                         _______ _______ _______ _____ _____    ______ ____
ROOT
ATOM      1  C   UNL     1      49.574   7.605  13.240  0.00  0.00    +0.000 C 
ENDROOT
BRANCH   1   2
ATOM      2  C   UNL     1      48.777   8.803  12.647  0.00  0.00    +0.000 C 
ATOM      3  C   UNL     1      49.549   9.339  11.419  0.00  0.00    +0.000 C 
ATOM      4  C   UNL     1      48.651   9.916  13.712  0.00  0.00    +0.000 C 
BRANCH   2   9
ATOM      5  C   UNL     1      45.810   6.577  11.541  0.00  0.00    +0.000 A 
ATOM      6  C   UNL     1      44.779   7.523  11.432  0.00  0.00    +0.000 A 
ATOM      7  C   UNL     1      45.004   8.853  11.778  0.00  0.00    +0.000 A 
ATOM      8  C   UNL     1      46.273   9.269  12.172  0.00  0.00    +0.000 A 
ATOM      9  C   UNL     1      47.359   8.373  12.202  0.00  0.00    +0.000 A 
ATOM     10  C   UNL     1      47.100   7.030  11.856  0.00  0.00    +0.000 A 
BRANCH   5  11
ATOM     11  C   UNL     1      45.526   5.084  11.404  0.00  0.00    +0.000 C 
BRANCH  11  13
ATOM     12  C   UNL     1      44.605   4.242   9.323  0.00  0.00    +0.000 C 
ATOM     13  N   UNL     1      44.285   4.765  10.656  0.00  0.00    +0.000 NA
ATOM     14  C   UNL     1      43.457   3.768  11.351  0.00  0.00    +0.000 C 
ENDBRANCH  11  13
ENDBRANCH   5  11
ENDBRANCH   2   9
ENDBRANCH   1   2
BRANCH   1  15
ATOM     15  N   UNL     1      49.809   7.701  14.687  0.00  0.00    +0.000 N 
ATOM     16  H   UNL     1      49.498   8.586  15.081  0.00  0.00    +0.000 HD
BRANCH  15  17
ATOM     17  C   UNL     1      49.329   6.620  15.437  0.00  0.00    +0.000 A 
ATOM     18  C   UNL     1      49.828   6.235  16.676  0.00  0.00    +0.000 A 
ATOM     19  N   UNL     1      49.346   5.225  17.427  0.00  0.00    +0.000 NA
ATOM     20  C   UNL     1      48.269   4.594  16.909  0.00  0.00    +0.000 A 
ATOM     21  N   UNL     1      47.673   4.876  15.736  0.00  0.00    +0.000 NA
ATOM     22  C   UNL     1      48.213   5.898  15.043  0.00  0.00    +0.000 A 
BRANCH  20  23
ATOM     23  C   UNL     1      47.658   3.495  17.752  0.00  0.00    +0.000 C 
ATOM     24  N   UNL     1      48.308   3.241  18.945  0.00  0.00    +0.000 N 
ATOM     25  O   UNL     1      46.664   2.868  17.442  0.00  0.00    +0.000 OA
ATOM     26  H   UNL     1      49.112   3.792  19.215  0.00  0.00    +0.000 HD
ATOM     27  H   UNL     1      47.915   2.552  19.571  0.00  0.00    +0.000 HD
ENDBRANCH  20  23
ENDBRANCH  15  17
ENDBRANCH   1  15
TORSDOF 7
ENDMDL
MODEL 9
REMARK VINA RESULT:    -5.615      3.297      5.740
REMARK INTER + INTRA:          -8.836
REMARK INTER:                  -7.932
REMARK INTRA:                  -0.904
REMARK UNBOUND:                -0.923
REMARK  Name = 
REMARK  11 active torsions:
REMARK  status: ('A' for Active; 'I' for Inactive)
REMARK    1  A    between atoms: C_1  and  N_2
REMARK    2  A    between atoms: N_2  and  C_3
REMARK    3  A    between atoms: N_2  and  C_4
REMARK    4  A    between atoms: C_4  and  C_5
REMARK    5  A    between atoms: C_9  and  C_10
REMARK    6  A    between atoms: C_10  and  C_11
REMARK    7  A    between atoms: C_10  and  C_12
REMARK    8  A    between atoms: C_10  and  C_13
REMARK    9  A    between atoms: C_13  and  N_14
REMARK   10  A    between atoms: N_14  and  C_15
REMARK   11  A    between atoms: C_18  and  C_19
REMARK                            x       y       z     vdW  Elec       q    Type
REMARK                         _______ _______ _______ _____ _____    ______ ____
ROOT
ATOM      1  C   UNL     1      48.753   6.990  13.513  0.00  0.00    +0.000 C 
ENDROOT
BRANCH   1   2
ATOM      2  C   UNL     1      49.189   7.917  14.684  0.00  0.00    +0.000 C 
ATOM      3  C   UNL     1      48.418   9.252  14.560  0.00  0.00    +0.000 C 
ATOM      4  C   UNL     1      50.709   8.180  14.595  0.00  0.00    +0.000 C 
BRANCH   2   9
ATOM      5  C   UNL     1      48.732   5.264  17.466  0.00  0.00    +0.000 A 
ATOM      6  C   UNL     1      48.350   6.065  18.553  0.00  0.00    +0.000 A 
ATOM      7  C   UNL     1      48.306   7.451  18.426  0.00  0.00    +0.000 A 
ATOM      8  C   UNL     1      48.579   8.050  17.199  0.00  0.00    +0.000 A 
ATOM      9  C   UNL     1      48.871   7.279  16.058  0.00  0.00    +0.000 A 
ATOM     10  C   UNL     1      48.917   5.878  16.218  0.00  0.00    +0.000 A 
BRANCH   5  11
ATOM     11  C   UNL     1      49.021   3.776  17.647  0.00  0.00    +0.000 C 
BRANCH  11  13
ATOM     12  C   UNL     1      51.429   3.904  17.918  0.00  0.00    +0.000 C 
ATOM     13  N   UNL     1      50.337   3.342  17.117  0.00  0.00    +0.000 NA
ATOM     14  C   UNL     1      50.479   1.878  17.114  0.00  0.00    +0.000 C 
ENDBRANCH  11  13
ENDBRANCH   5  11
ENDBRANCH   2   9
ENDBRANCH   1   2
BRANCH   1  15
ATOM     15  N   UNL     1      47.561   7.458  12.792  0.00  0.00    +0.000 N 
ATOM     16  H   UNL     1      47.789   8.027  11.980  0.00  0.00    +0.000 HD
BRANCH  15  17
ATOM     17  C   UNL     1      46.638   6.456  12.463  0.00  0.00    +0.000 A 
ATOM     18  C   UNL     1      46.194   6.185  11.175  0.00  0.00    +0.000 A 
ATOM     19  N   UNL     1      45.341   5.196  10.840  0.00  0.00    +0.000 NA
ATOM     20  C   UNL     1      44.948   4.411  11.867  0.00  0.00    +0.000 A 
ATOM     21  N   UNL     1      45.316   4.548  13.155  0.00  0.00    +0.000 NA
ATOM     22  C   UNL     1      46.169   5.559  13.410  0.00  0.00    +0.000 A 
BRANCH  20  23
ATOM     23  C   UNL     1      44.040   3.250  11.523  0.00  0.00    +0.000 C 
ATOM     24  N   UNL     1      43.841   2.339  12.544  0.00  0.00    +0.000 N 
ATOM     25  O   UNL     1      43.499   3.101  10.446  0.00  0.00    +0.000 OA
ATOM     26  H   UNL     1      44.263   2.488  13.450  0.00  0.00    +0.000 HD
ATOM     27  H   UNL     1      43.204   1.571  12.386  0.00  0.00    +0.000 HD
ENDBRANCH  20  23
ENDBRANCH  15  17
ENDBRANCH   1  15
TORSDOF 7
ENDMDL
