MODEL 1
REMARK VINA RESULT:    -7.731      0.000      0.000
REMARK INTER + INTRA:          -9.614
REMARK INTER:                  -9.087
REMARK INTRA:                  -0.527
REMARK UNBOUND:                -0.527
REMARK  Name = 
REMARK  4 active torsions:
REMARK  status: ('A' for Active; 'I' for Inactive)
REMARK    1  A    between atoms: C_1  and  O_2
REMARK    2  A    between atoms: O_2  and  C_3
REMARK    3  A    between atoms: N_9  and  C_10
REMARK    4  A    between atoms: C_10  and  C_11
REMARK                            x       y       z     vdW  Elec       q    Type
REMARK                         _______ _______ _______ _____ _____    ______ ____
ROOT
ATOM      1  C   UNL     1      46.779   6.330  11.968  0.00  0.00    +0.000 A 
ATOM      2  C   UNL     1      46.566   5.868  13.265  0.00  0.00    +0.000 A 
ATOM      3  C   UNL     1      45.640   4.848  13.516  0.00  0.00    +0.000 A 
ATOM      4  C   UNL     1      44.925   4.272  12.450  0.00  0.00    +0.000 A 
ATOM      5  C   UNL     1      43.943   3.252  12.373  0.00  0.00    +0.000 A 
ATOM      6  C   UNL     1      43.616   3.085  11.048  0.00  0.00    +0.000 A 
ATOM      7  N   UNL     1      44.362   3.973  10.309  0.00  0.00    +0.000 N 
ATOM      8  C   UNL     1      45.159   4.728  11.149  0.00  0.00    +0.000 A 
ATOM      9  C   UNL     1      46.070   5.771  10.895  0.00  0.00    +0.000 A 
ENDROOT
BRANCH   1  11
ATOM     10  C   UNL     1      48.829   7.453  12.406  0.00  0.00    +0.000 C 
ATOM     11  O   UNL     1      47.655   7.323  11.613  0.00  0.00    +0.000 OA
ENDBRANCH   1  11
BRANCH   7  12
ATOM     12  C   UNL     1      44.365   4.011   8.848  0.00  0.00    +0.000 C 
BRANCH  12  13
ATOM     13  C   UNL     1      45.473   3.169   8.270  0.00  0.00    +0.000 A 
ATOM     14  C   UNL     1      46.435   3.742   7.428  0.00  0.00    +0.000 A 
ATOM     15  C   UNL     1      47.422   2.951   6.837  0.00  0.00    +0.000 A 
ATOM     16  C   UNL     1      47.460   1.581   7.084  0.00  0.00    +0.000 A 
ATOM     17  C   UNL     1      46.523   1.002   7.938  0.00  0.00    +0.000 A 
ATOM     18  C   UNL     1      45.537   1.790   8.531  0.00  0.00    +0.000 A 
ENDBRANCH  12  13
ENDBRANCH   7  12
TORSDOF 3
ENDMDL
MODEL 2
REMARK VINA RESULT:    -7.491      1.839      2.522
REMARK INTER + INTRA:          -9.331
REMARK INTER:                  -9.025
REMARK INTRA:                  -0.306
REMARK UNBOUND:                -0.527
REMARK  Name = 
REMARK  4 active torsions:
REMARK  status: ('A' for Active; 'I' for Inactive)
REMARK    1  A    between atoms: C_1  and  O_2
REMARK    2  A    between atoms: O_2  and  C_3
REMARK    3  A    between atoms: N_9  and  C_10
REMARK    4  A    between atoms: C_10  and  C_11
REMARK                            x       y       z     vdW  Elec       q    Type
REMARK                         _______ _______ _______ _____ _____    ______ ____
ROOT
ATOM      1  C   UNL     1      46.560   3.872  13.595  0.00  0.00    +0.000 A 
ATOM      2  C   UNL     1      46.162   5.149  13.985  0.00  0.00    +0.000 A 
ATOM      3  C   UNL     1      45.262   5.886  13.204  0.00  0.00    +0.000 A 
ATOM      4  C   UNL     1      44.741   5.328  12.022  0.00  0.00    +0.000 A 
ATOM      5  C   UNL     1      43.838   5.802  11.037  0.00  0.00    +0.000 A 
ATOM      6  C   UNL     1      43.673   4.804  10.107  0.00  0.00    +0.000 A 
ATOM      7  N   UNL     1      44.448   3.733  10.486  0.00  0.00    +0.000 N 
ATOM      8  C   UNL     1      45.130   4.039  11.648  0.00  0.00    +0.000 A 
ATOM      9  C   UNL     1      46.055   3.305  12.416  0.00  0.00    +0.000 A 
ENDROOT
BRANCH   1  11
ATOM     10  C   UNL     1      47.653   3.385  15.651  0.00  0.00    +0.000 C 
ATOM     11  O   UNL     1      47.436   3.070  14.281  0.00  0.00    +0.000 OA
ENDBRANCH   1  11
BRANCH   7  12
ATOM     12  C   UNL     1      44.444   2.444   9.797  0.00  0.00    +0.000 C 
BRANCH  12  13
ATOM     13  C   UNL     1      45.420   2.422   8.648  0.00  0.00    +0.000 A 
ATOM     14  C   UNL     1      46.099   1.243   8.315  0.00  0.00    +0.000 A 
ATOM     15  C   UNL     1      47.052   1.237   7.296  0.00  0.00    +0.000 A 
ATOM     16  C   UNL     1      47.335   2.409   6.598  0.00  0.00    +0.000 A 
ATOM     17  C   UNL     1      46.651   3.583   6.903  0.00  0.00    +0.000 A 
ATOM     18  C   UNL     1      45.696   3.591   7.920  0.00  0.00    +0.000 A 
ENDBRANCH  12  13
ENDBRANCH   7  12
TORSDOF 3
ENDMDL
MODEL 3
REMARK VINA RESULT:    -6.728      1.915      5.457
REMARK INTER + INTRA:          -8.435
REMARK INTER:                  -8.047
REMARK INTRA:                  -0.388
REMARK UNBOUND:                -0.527
REMARK  Name = 
REMARK  4 active torsions:
REMARK  status: ('A' for Active; 'I' for Inactive)
REMARK    1  A    between atoms: C_1  and  O_2
REMARK    2  A    between atoms: O_2  and  C_3
REMARK    3  A    between atoms: N_9  and  C_10
REMARK    4  A    between atoms: C_10  and  C_11
REMARK                            x       y       z     vdW  Elec       q    Type
REMARK                         _______ _______ _______ _____ _____    ______ ____
ROOT
ATOM      1  C   UNL     1      45.651   3.775   8.224  0.00  0.00    +0.000 A 
ATOM      2  C   UNL     1      45.201   2.465   8.376  0.00  0.00    +0.000 A 
ATOM      3  C   UNL     1      44.453   2.094   9.501  0.00  0.00    +0.000 A 
ATOM      4  C   UNL     1      44.140   3.053  10.482  0.00  0.00    +0.000 A 
ATOM      5  C   UNL     1      43.422   2.999  11.703  0.00  0.00    +0.000 A 
ATOM      6  C   UNL     1      43.413   4.265  12.239  0.00  0.00    +0.000 A 
ATOM      7  N   UNL     1      44.105   5.094  11.388  0.00  0.00    +0.000 N 
ATOM      8  C   UNL     1      44.579   4.370  10.312  0.00  0.00    +0.000 A 
ATOM      9  C   UNL     1      45.353   4.741   9.195  0.00  0.00    +0.000 A 
ENDROOT
BRANCH   1  11
ATOM     10  C   UNL     1      46.768   3.290   6.180  0.00  0.00    +0.000 C 
ATOM     11  O   UNL     1      46.392   4.242   7.168  0.00  0.00    +0.000 OA
ENDBRANCH   1  11
BRANCH   7  12
ATOM     12  C   UNL     1      44.210   6.540  11.573  0.00  0.00    +0.000 C 
BRANCH  12  13
ATOM     13  C   UNL     1      45.451   6.915  12.343  0.00  0.00    +0.000 A 
ATOM     14  C   UNL     1      45.626   8.222  12.816  0.00  0.00    +0.000 A 
ATOM     15  C   UNL     1      46.804   8.588  13.469  0.00  0.00    +0.000 A 
ATOM     16  C   UNL     1      47.818   7.652  13.659  0.00  0.00    +0.000 A 
ATOM     17  C   UNL     1      47.648   6.342  13.214  0.00  0.00    +0.000 A 
ATOM     18  C   UNL     1      46.470   5.973  12.562  0.00  0.00    +0.000 A 
ENDBRANCH  12  13
ENDBRANCH   7  12
TORSDOF 3
ENDMDL
MODEL 4
REMARK VINA RESULT:    -6.262      2.145      3.632
REMARK INTER + INTRA:          -7.887
REMARK INTER:                  -7.528
REMARK INTRA:                  -0.359
REMARK UNBOUND:                -0.527
REMARK  Name = 
REMARK  4 active torsions:
REMARK  status: ('A' for Active; 'I' for Inactive)
REMARK    1  A    between atoms: C_1  and  O_2
REMARK    2  A    between atoms: O_2  and  C_3
REMARK    3  A    between atoms: N_9  and  C_10
REMARK    4  A    between atoms: C_10  and  C_11
REMARK                            x       y       z     vdW  Elec       q    Type
REMARK                         _______ _______ _______ _____ _____    ______ ____
ROOT
ATOM      1  C   UNL     1      47.163   4.457  14.832  0.00  0.00    +0.000 A 
ATOM      2  C   UNL     1      47.962   5.572  15.074  0.00  0.00    +0.000 A 
ATOM      3  C   UNL     1      47.892   6.695  14.240  0.00  0.00    +0.000 A 
ATOM      4  C   UNL     1      46.996   6.707  13.155  0.00  0.00    +0.000 A 
ATOM      5  C   UNL     1      46.695   7.662  12.151  0.00  0.00    +0.000 A 
ATOM      6  C   UNL     1      45.703   7.135  11.358  0.00  0.00    +0.000 A 
ATOM      7  N   UNL     1      45.388   5.886  11.841  0.00  0.00    +0.000 N 
ATOM      8  C   UNL     1      46.183   5.592  12.931  0.00  0.00    +0.000 A 
ATOM      9  C   UNL     1      46.269   4.450  13.752  0.00  0.00    +0.000 A 
ENDROOT
BRANCH   1  11
ATOM     10  C   UNL     1      47.520   3.435  16.951  0.00  0.00    +0.000 C 
ATOM     11  O   UNL     1      47.155   3.308  15.581  0.00  0.00    +0.000 OA
ENDBRANCH   1  11
BRANCH   7  12
ATOM     12  C   UNL     1      44.296   5.067  11.318  0.00  0.00    +0.000 C 
BRANCH  12  13
ATOM     13  C   UNL     1      44.743   4.219  10.154  0.00  0.00    +0.000 A 
ATOM     14  C   UNL     1      44.513   2.837  10.152  0.00  0.00    +0.000 A 
ATOM     15  C   UNL     1      44.986   2.041   9.108  0.00  0.00    +0.000 A 
ATOM     16  C   UNL     1      45.691   2.617   8.054  0.00  0.00    +0.000 A 
ATOM     17  C   UNL     1      45.907   3.993   8.032  0.00  0.00    +0.000 A 
ATOM     18  C   UNL     1      45.434   4.792   9.074  0.00  0.00    +0.000 A 
ENDBRANCH  12  13
ENDBRANCH   7  12
TORSDOF 3
ENDMDL
MODEL 5
REMARK VINA RESULT:    -5.667      2.785      5.960
REMARK INTER + INTRA:          -7.187
REMARK INTER:                  -6.804
REMARK INTRA:                  -0.383
REMARK UNBOUND:                -0.527
REMARK  Name = 
REMARK  4 active torsions:
REMARK  status: ('A' for Active; 'I' for Inactive)
REMARK    1  A    between atoms: C_1  and  O_2
REMARK    2  A    between atoms: O_2  and  C_3
REMARK    3  A    between atoms: N_9  and  C_10
REMARK    4  A    between atoms: C_10  and  C_11
REMARK                            x       y       z     vdW  Elec       q    Type
REMARK                         _______ _______ _______ _____ _____    ______ ____
ROOT
ATOM      1  C   UNL     1      45.148   4.103   8.855  0.00  0.00    +0.000 A 
ATOM      2  C   UNL     1      44.269   3.170   9.402  0.00  0.00    +0.000 A 
ATOM      3  C   UNL     1      43.975   3.185  10.771  0.00  0.00    +0.000 A 
ATOM      4  C   UNL     1      44.559   4.158  11.604  0.00  0.00    +0.000 A 
ATOM      5  C   UNL     1      44.470   4.433  12.992  0.00  0.00    +0.000 A 
ATOM      6  C   UNL     1      45.248   5.536  13.250  0.00  0.00    +0.000 A 
ATOM      7  N   UNL     1      45.815   5.946  12.065  0.00  0.00    +0.000 N 
ATOM      8  C   UNL     1      45.424   5.102  11.043  0.00  0.00    +0.000 A 
ATOM      9  C   UNL     1      45.743   5.076   9.672  0.00  0.00    +0.000 A 
ENDROOT
BRANCH   1  11
ATOM     10  C   UNL     1      46.732   3.549   7.169  0.00  0.00    +0.000 C 
ATOM     11  O   UNL     1      45.508   4.176   7.534  0.00  0.00    +0.000 OA
ENDBRANCH   1  11
BRANCH   7  12
ATOM     12  C   UNL     1      46.620   7.158  11.928  0.00  0.00    +0.000 C 
BRANCH  12  13
ATOM     13  C   UNL     1      45.758   8.384  11.766  0.00  0.00    +0.000 A 
ATOM     14  C   UNL     1      44.471   8.281  11.225  0.00  0.00    +0.000 A 
ATOM     15  C   UNL     1      43.698   9.424  11.011  0.00  0.00    +0.000 A 
ATOM     16  C   UNL     1      44.202  10.680  11.339  0.00  0.00    +0.000 A 
ATOM     17  C   UNL     1      45.472  10.795  11.899  0.00  0.00    +0.000 A 
ATOM     18  C   UNL     1      46.247   9.654  12.116  0.00  0.00    +0.000 A 
ENDBRANCH  12  13
ENDBRANCH   7  12
TORSDOF 3
ENDMDL
MODEL 6
REMARK VINA RESULT:    -5.561      3.512      5.974
REMARK INTER + INTRA:          -7.063
REMARK INTER:                  -6.480
REMARK INTRA:                  -0.584
REMARK UNBOUND:                -0.527
REMARK  Name = 
REMARK  4 active torsions:
REMARK  status: ('A' for Active; 'I' for Inactive)
REMARK    1  A    between atoms: C_1  and  O_2
REMARK    2  A    between atoms: O_2  and  C_3
REMARK    3  A    between atoms: N_9  and  C_10
REMARK    4  A    between atoms: C_10  and  C_11
REMARK                            x       y       z     vdW  Elec       q    Type
REMARK                         _______ _______ _______ _____ _____    ______ ____
ROOT
ATOM      1  C   UNL     1      46.789   3.827  13.780  0.00  0.00    +0.000 A 
ATOM      2  C   UNL     1      45.920   3.252  12.856  0.00  0.00    +0.000 A 
ATOM      3  C   UNL     1      45.172   4.053  11.984  0.00  0.00    +0.000 A 
ATOM      4  C   UNL     1      45.307   5.453  12.030  0.00  0.00    +0.000 A 
ATOM      5  C   UNL     1      44.707   6.513  11.305  0.00  0.00    +0.000 A 
ATOM      6  C   UNL     1      45.247   7.691  11.764  0.00  0.00    +0.000 A 
ATOM      7  N   UNL     1      46.157   7.389  12.751  0.00  0.00    +0.000 N 
ATOM      8  C   UNL     1      46.196   6.022  12.947  0.00  0.00    +0.000 A 
ATOM      9  C   UNL     1      46.931   5.221  13.843  0.00  0.00    +0.000 A 
ENDROOT
BRANCH   1  11
ATOM     10  C   UNL     1      47.577   3.626  16.016  0.00  0.00    +0.000 C 
ATOM     11  O   UNL     1      47.563   3.138  14.679  0.00  0.00    +0.000 OA
ENDBRANCH   1  11
BRANCH   7  12
ATOM     12  C   UNL     1      47.012   8.382  13.397  0.00  0.00    +0.000 C 
BRANCH  12  13
ATOM     13  C   UNL     1      48.206   8.729  12.546  0.00  0.00    +0.000 A 
ATOM     14  C   UNL     1      49.244   7.806  12.367  0.00  0.00    +0.000 A 
ATOM     15  C   UNL     1      50.382   8.150  11.635  0.00  0.00    +0.000 A 
ATOM     16  C   UNL     1      50.492   9.419  11.072  0.00  0.00    +0.000 A 
ATOM     17  C   UNL     1      49.457  10.340  11.222  0.00  0.00    +0.000 A 
ATOM     18  C   UNL     1      48.318   9.997  11.952  0.00  0.00    +0.000 A 
ENDBRANCH  12  13
ENDBRANCH   7  12
TORSDOF 3
ENDMDL
MODEL 7
REMARK VINA RESULT:    -5.361      2.283      5.778
REMARK INTER + INTRA:          -6.828
REMARK INTER:                  -6.554
REMARK INTRA:                  -0.274
REMARK UNBOUND:                -0.527
REMARK  Name = 
REMARK  4 active torsions:
REMARK  status: ('A' for Active; 'I' for Inactive)
REMARK    1  A    between atoms: C_1  and  O_2
REMARK    2  A    between atoms: O_2  and  C_3
REMARK    3  A    between atoms: N_9  and  C_10
REMARK    4  A    between atoms: C_10  and  C_11
REMARK                            x       y       z     vdW  Elec       q    Type
REMARK                         _______ _______ _______ _____ _____    ______ ____
ROOT
ATOM      1  C   UNL     1      44.798   4.341  10.404  0.00  0.00    +0.000 A 
ATOM      2  C   UNL     1      44.822   3.227  11.240  0.00  0.00    +0.000 A 
ATOM      3  C   UNL     1      45.461   3.282  12.485  0.00  0.00    +0.000 A 
ATOM      4  C   UNL     1      46.074   4.477  12.906  0.00  0.00    +0.000 A 
ATOM      5  C   UNL     1      46.784   4.849  14.075  0.00  0.00    +0.000 A 
ATOM      6  C   UNL     1      47.134   6.172  13.948  0.00  0.00    +0.000 A 
ATOM      7  N   UNL     1      46.665   6.625  12.737  0.00  0.00    +0.000 N 
ATOM      8  C   UNL     1      46.028   5.597  12.069  0.00  0.00    +0.000 A 
ATOM      9  C   UNL     1      45.410   5.538  10.805  0.00  0.00    +0.000 A 
ENDROOT
BRANCH   1  11
ATOM     10  C   UNL     1      44.829   3.644   8.129  0.00  0.00    +0.000 C 
ATOM     11  O   UNL     1      44.207   4.393   9.167  0.00  0.00    +0.000 OA
ENDBRANCH   1  11
BRANCH   7  12
ATOM     12  C   UNL     1      46.752   8.017  12.303  0.00  0.00    +0.000 C 
BRANCH  12  13
ATOM     13  C   UNL     1      48.165   8.404  11.950  0.00  0.00    +0.000 A 
ATOM     14  C   UNL     1      48.513   9.751  11.783  0.00  0.00    +0.000 A 
ATOM     15  C   UNL     1      49.804  10.107  11.389  0.00  0.00    +0.000 A 
ATOM     16  C   UNL     1      50.761   9.122  11.161  0.00  0.00    +0.000 A 
ATOM     17  C   UNL     1      50.436   7.780  11.346  0.00  0.00    +0.000 A 
ATOM     18  C   UNL     1      49.146   7.421  11.741  0.00  0.00    +0.000 A 
ENDBRANCH  12  13
ENDBRANCH   7  12
TORSDOF 3
ENDMDL
MODEL 8
REMARK VINA RESULT:    -5.226      2.935      6.493
REMARK INTER + INTRA:          -6.669
REMARK INTER:                  -6.103
REMARK INTRA:                  -0.566
REMARK UNBOUND:                -0.527
REMARK  Name = 
REMARK  4 active torsions:
REMARK  status: ('A' for Active; 'I' for Inactive)
REMARK    1  A    between atoms: C_1  and  O_2
REMARK    2  A    between atoms: O_2  and  C_3
REMARK    3  A    between atoms: N_9  and  C_10
REMARK    4  A    between atoms: C_10  and  C_11
REMARK                            x       y       z     vdW  Elec       q    Type
REMARK                         _______ _______ _______ _____ _____    ______ ____
ROOT
ATOM      1  C   UNL     1      44.256   4.228  11.142  0.00  0.00    +0.000 A 
ATOM      2  C   UNL     1      43.320   5.206  10.814  0.00  0.00    +0.000 A 
ATOM      3  C   UNL     1      43.508   6.536  11.210  0.00  0.00    +0.000 A 
ATOM      4  C   UNL     1      44.660   6.895  11.935  0.00  0.00    +0.000 A 
ATOM      5  C   UNL     1      45.132   8.119  12.470  0.00  0.00    +0.000 A 
ATOM      6  C   UNL     1      46.347   7.875  13.065  0.00  0.00    +0.000 A 
ATOM      7  N   UNL     1      46.635   6.538  12.916  0.00  0.00    +0.000 N 
ATOM      8  C   UNL     1      45.604   5.910  12.243  0.00  0.00    +0.000 A 
ATOM      9  C   UNL     1      45.406   4.567  11.869  0.00  0.00    +0.000 A 
ENDROOT
BRANCH   1  11
ATOM     10  C   UNL     1      44.751   2.512   9.570  0.00  0.00    +0.000 C 
ATOM     11  O   UNL     1      44.168   2.900  10.809  0.00  0.00    +0.000 OA
ENDBRANCH   1  11
BRANCH   7  12
ATOM     12  C   UNL     1      47.899   5.931  13.326  0.00  0.00    +0.000 C 
BRANCH  12  13
ATOM     13  C   UNL     1      47.898   5.577  14.792  0.00  0.00    +0.000 A 
ATOM     14  C   UNL     1      48.639   6.337  15.706  0.00  0.00    +0.000 A 
ATOM     15  C   UNL     1      48.694   5.970  17.052  0.00  0.00    +0.000 A 
ATOM     16  C   UNL     1      48.008   4.843  17.498  0.00  0.00    +0.000 A 
ATOM     17  C   UNL     1      47.249   4.092  16.604  0.00  0.00    +0.000 A 
ATOM     18  C   UNL     1      47.191   4.457  15.258  0.00  0.00    +0.000 A 
ENDBRANCH  12  13
ENDBRANCH   7  12
TORSDOF 3
ENDMDL
MODEL 9
REMARK VINA RESULT:    -5.025      3.723      7.332
REMARK INTER + INTRA:          -6.433
REMARK INTER:                  -6.278
REMARK INTRA:                  -0.155
REMARK UNBOUND:                -0.527
REMARK  Name = 
REMARK  4 active torsions:
REMARK  status: ('A' for Active; 'I' for Inactive)
REMARK    1  A    between atoms: C_1  and  O_2
REMARK    2  A    between atoms: O_2  and  C_3
REMARK    3  A    between atoms: N_9  and  C_10
REMARK    4  A    between atoms: C_10  and  C_11
REMARK                            x       y       z     vdW  Elec       q    Type
REMARK                         _______ _______ _______ _____ _____    ______ ____
ROOT
ATOM      1  C   UNL     1      45.042   4.284  11.455  0.00  0.00    +0.000 A 
ATOM      2  C   UNL     1      45.417   5.470  10.827  0.00  0.00    +0.000 A 
ATOM      3  C   UNL     1      46.321   6.346  11.440  0.00  0.00    +0.000 A 
ATOM      4  C   UNL     1      46.869   6.024  12.695  0.00  0.00    +0.000 A 
ATOM      5  C   UNL     1      47.782   6.681  13.558  0.00  0.00    +0.000 A 
ATOM      6  C   UNL     1      47.976   5.875  14.654  0.00  0.00    +0.000 A 
ATOM      7  N   UNL     1      47.208   4.745  14.495  0.00  0.00    +0.000 N 
ATOM      8  C   UNL     1      46.502   4.822  13.310  0.00  0.00    +0.000 A 
ATOM      9  C   UNL     1      45.574   3.950  12.709  0.00  0.00    +0.000 A 
ENDROOT
BRANCH   1  11
ATOM     10  C   UNL     1      44.407   2.910   9.620  0.00  0.00    +0.000 C 
ATOM     11  O   UNL     1      44.164   3.360  10.948  0.00  0.00    +0.000 OA
ENDBRANCH   1  11
BRANCH   7  12
ATOM     12  C   UNL     1      47.241   3.607  15.411  0.00  0.00    +0.000 C 
BRANCH  12  13
ATOM     13  C   UNL     1      47.893   3.964  16.722  0.00  0.00    +0.000 A 
ATOM     14  C   UNL     1      47.222   4.766  17.655  0.00  0.00    +0.000 A 
ATOM     15  C   UNL     1      47.850   5.154  18.839  0.00  0.00    +0.000 A 
ATOM     16  C   UNL     1      49.154   4.743  19.105  0.00  0.00    +0.000 A 
ATOM     17  C   UNL     1      49.825   3.926  18.197  0.00  0.00    +0.000 A 
ATOM     18  C   UNL     1      49.198   3.536  17.013  0.00  0.00    +0.000 A 
ENDBRANCH  12  13
ENDBRANCH   7  12
TORSDOF 3
ENDMDL
