MODEL 1
REMARK VINA RESULT:    -7.640      0.000      0.000
REMARK INTER + INTRA:         -10.921
REMARK INTER:                 -10.319
REMARK INTRA:                  -0.601
REMARK UNBOUND:                -0.601
REMARK  Name = 
REMARK  7 active torsions:
REMARK  status: ('A' for Active; 'I' for Inactive)
REMARK    1  A    between atoms: N_1  and  C_2
REMARK    2  A    between atoms: C_2  and  C_3
REMARK    3  A    between atoms: C_3  and  C_4
REMARK    4  A    between atoms: C_7  and  C_8
REMARK    5  A    between atoms: C_8  and  N_9
REMARK    6  A    between atoms: C_14  and  C_15
REMARK    7  A    between atoms: C_15  and  O_17
REMARK                            x       y       z     vdW  Elec       q    Type
REMARK                         _______ _______ _______ _____ _____    ______ ____
ROOT
ATOM      1  N   UNL     1      45.136   4.281  12.387  0.00  0.00    +0.000 N 
ATOM      2  N   UNL     1      45.838   3.263  12.938  0.00  0.00    +0.000 NA
ATOM      3  C   UNL     1      46.797   3.878  13.634  0.00  0.00    +0.000 A 
ATOM      4  C   UNL     1      46.723   5.284  13.541  0.00  0.00    +0.000 A 
ATOM      5  C   UNL     1      47.483   6.367  14.017  0.00  0.00    +0.000 A 
ATOM      6  C   UNL     1      47.106   7.676  13.677  0.00  0.00    +0.000 A 
ATOM      7  C   UNL     1      45.977   7.900  12.876  0.00  0.00    +0.000 A 
ATOM      8  C   UNL     1      45.202   6.829  12.405  0.00  0.00    +0.000 A 
ATOM      9  C   UNL     1      45.609   5.529  12.740  0.00  0.00    +0.000 A 
ENDROOT
BRANCH   6  10
ATOM     10  C   UNL     1      48.003   8.777  14.125  0.00  0.00    +0.000 C 
ATOM     11  O   UNL     1      48.927   9.180  13.435  0.00  0.00    +0.000 OA
BRANCH  10  12
ATOM     12  O   UNL     1      47.740   9.272  15.348  0.00  0.00    +0.000 OA
ATOM     13  H   UNL     1      46.840   9.127  15.689  0.00  0.00    +0.000 HD
ENDBRANCH  10  12
ENDBRANCH   6  10
BRANCH   1  14
ATOM     14  C   UNL     1      44.140   3.978  11.364  0.00  0.00    +0.000 C 
BRANCH  14  18
ATOM     15  C   UNL     1      45.924   3.337   7.547  0.00  0.00    +0.000 A 
ATOM     16  C   UNL     1      45.454   2.229   8.247  0.00  0.00    +0.000 A 
ATOM     17  C   UNL     1      44.852   2.420   9.489  0.00  0.00    +0.000 A 
ATOM     18  C   UNL     1      44.754   3.707  10.022  0.00  0.00    +0.000 A 
ATOM     19  C   UNL     1      45.258   4.751   9.253  0.00  0.00    +0.000 A 
ATOM     20  N   UNL     1      45.830   4.595   8.037  0.00  0.00    +0.000 NA
BRANCH  15  21
ATOM     21  C   UNL     1      46.583   3.165   6.201  0.00  0.00    +0.000 C 
BRANCH  21  22
ATOM     22  C   UNL     1      47.195   1.771   6.056  0.00  0.00    +0.000 C 
BRANCH  22  23
ATOM     23  N   UNL     1      48.612   1.848   5.690  0.00  0.00    +0.000 NA
ATOM     24  H   UNL     1      49.165   1.989   6.535  0.00  0.00    +0.000 HD
ATOM     25  H   UNL     1      48.763   2.681   5.119  0.00  0.00    +0.000 HD
ENDBRANCH  22  23
ENDBRANCH  21  22
ENDBRANCH  15  21
ENDBRANCH  14  18
ENDBRANCH   1  14
TORSDOF 7
ENDMDL
MODEL 2
REMARK VINA RESULT:    -7.559      3.969      6.989
REMARK INTER + INTRA:         -10.812
REMARK INTER:                  -9.961
REMARK INTRA:                  -0.851
REMARK UNBOUND:                -0.601
REMARK  Name = 
REMARK  7 active torsions:
REMARK  status: ('A' for Active; 'I' for Inactive)
REMARK    1  A    between atoms: N_1  and  C_2
REMARK    2  A    between atoms: C_2  and  C_3
REMARK    3  A    between atoms: C_3  and  C_4
REMARK    4  A    between atoms: C_7  and  C_8
REMARK    5  A    between atoms: C_8  and  N_9
REMARK    6  A    between atoms: C_14  and  C_15
REMARK    7  A    between atoms: C_15  and  O_17
REMARK                            x       y       z     vdW  Elec       q    Type
REMARK                         _______ _______ _______ _____ _____    ______ ____
ROOT
ATOM      1  N   UNL     1      44.153   4.033  10.355  0.00  0.00    +0.000 N 
ATOM      2  N   UNL     1      43.601   2.866  10.759  0.00  0.00    +0.000 NA
ATOM      3  C   UNL     1      44.174   1.953   9.972  0.00  0.00    +0.000 A 
ATOM      4  C   UNL     1      45.094   2.516   9.064  0.00  0.00    +0.000 A 
ATOM      5  C   UNL     1      45.906   2.034   8.021  0.00  0.00    +0.000 A 
ATOM      6  C   UNL     1      46.694   2.935   7.287  0.00  0.00    +0.000 A 
ATOM      7  C   UNL     1      46.677   4.302   7.597  0.00  0.00    +0.000 A 
ATOM      8  C   UNL     1      45.881   4.795   8.643  0.00  0.00    +0.000 A 
ATOM      9  C   UNL     1      45.087   3.880   9.349  0.00  0.00    +0.000 A 
ENDROOT
BRANCH   6  10
ATOM     10  C   UNL     1      47.455   2.384   6.132  0.00  0.00    +0.000 C 
ATOM     11  O   UNL     1      48.160   1.392   6.235  0.00  0.00    +0.000 OA
BRANCH  10  12
ATOM     12  O   UNL     1      47.332   3.070   4.982  0.00  0.00    +0.000 OA
ATOM     13  H   UNL     1      46.488   3.536   4.843  0.00  0.00    +0.000 HD
ENDBRANCH  10  12
ENDBRANCH   6  10
BRANCH   1  14
ATOM     14  C   UNL     1      43.589   5.287  10.843  0.00  0.00    +0.000 C 
BRANCH  14  18
ATOM     15  C   UNL     1      46.478   7.533  13.028  0.00  0.00    +0.000 A 
ATOM     16  C   UNL     1      45.688   8.206  12.100  0.00  0.00    +0.000 A 
ATOM     17  C   UNL     1      44.725   7.492  11.388  0.00  0.00    +0.000 A 
ATOM     18  C   UNL     1      44.588   6.118  11.595  0.00  0.00    +0.000 A 
ATOM     19  C   UNL     1      45.426   5.531  12.536  0.00  0.00    +0.000 A 
ATOM     20  N   UNL     1      46.356   6.204  13.253  0.00  0.00    +0.000 NA
BRANCH  15  21
ATOM     21  C   UNL     1      47.530   8.275  13.813  0.00  0.00    +0.000 C 
BRANCH  21  22
ATOM     22  C   UNL     1      48.645   7.337  14.276  0.00  0.00    +0.000 C 
BRANCH  22  23
ATOM     23  N   UNL     1      49.372   6.771  13.137  0.00  0.00    +0.000 NA
ATOM     24  H   UNL     1      49.985   6.027  13.470  0.00  0.00    +0.000 HD
ATOM     25  H   UNL     1      49.991   7.486  12.750  0.00  0.00    +0.000 HD
ENDBRANCH  22  23
ENDBRANCH  21  22
ENDBRANCH  15  21
ENDBRANCH  14  18
ENDBRANCH   1  14
TORSDOF 7
ENDMDL
MODEL 3
REMARK VINA RESULT:    -7.235      2.040      2.982
REMARK INTER + INTRA:         -10.374
REMARK INTER:                  -9.897
REMARK INTRA:                  -0.477
REMARK UNBOUND:                -0.601
REMARK  Name = 
REMARK  7 active torsions:
REMARK  status: ('A' for Active; 'I' for Inactive)
REMARK    1  A    between atoms: N_1  and  C_2
REMARK    2  A    between atoms: C_2  and  C_3
REMARK    3  A    between atoms: C_3  and  C_4
REMARK    4  A    between atoms: C_7  and  C_8
REMARK    5  A    between atoms: C_8  and  N_9
REMARK    6  A    between atoms: C_14  and  C_15
REMARK    7  A    between atoms: C_15  and  O_17
REMARK                            x       y       z     vdW  Elec       q    Type
REMARK                         _______ _______ _______ _____ _____    ______ ____
ROOT
ATOM      1  N   UNL     1      44.531   5.342  11.301  0.00  0.00    +0.000 N 
ATOM      2  N   UNL     1      44.253   6.660  11.435  0.00  0.00    +0.000 NA
ATOM      3  C   UNL     1      44.924   7.017  12.532  0.00  0.00    +0.000 A 
ATOM      4  C   UNL     1      45.636   5.945  13.109  0.00  0.00    +0.000 A 
ATOM      5  C   UNL     1      46.435   5.764  14.253  0.00  0.00    +0.000 A 
ATOM      6  C   UNL     1      46.966   4.495  14.530  0.00  0.00    +0.000 A 
ATOM      7  C   UNL     1      46.709   3.419  13.669  0.00  0.00    +0.000 A 
ATOM      8  C   UNL     1      45.925   3.588  12.517  0.00  0.00    +0.000 A 
ATOM      9  C   UNL     1      45.388   4.860  12.271  0.00  0.00    +0.000 A 
ENDROOT
BRANCH   6  10
ATOM     10  C   UNL     1      47.719   4.339  15.805  0.00  0.00    +0.000 C 
ATOM     11  O   UNL     1      48.243   3.283  16.122  0.00  0.00    +0.000 OA
BRANCH  10  12
ATOM     12  O   UNL     1      47.755   5.431  16.590  0.00  0.00    +0.000 OA
ATOM     13  H   UNL     1      48.230   5.342  17.435  0.00  0.00    +0.000 HD
ENDBRANCH  10  12
ENDBRANCH   6  10
BRANCH   1  14
ATOM     14  C   UNL     1      43.776   4.557  10.330  0.00  0.00    +0.000 C 
BRANCH  14  18
ATOM     15  C   UNL     1      46.228   2.221   7.742  0.00  0.00    +0.000 A 
ATOM     16  C   UNL     1      46.305   3.608   7.645  0.00  0.00    +0.000 A 
ATOM     17  C   UNL     1      45.524   4.389   8.495  0.00  0.00    +0.000 A 
ATOM     18  C   UNL     1      44.662   3.774   9.405  0.00  0.00    +0.000 A 
ATOM     19  C   UNL     1      44.648   2.384   9.424  0.00  0.00    +0.000 A 
ATOM     20  N   UNL     1      45.409   1.603   8.623  0.00  0.00    +0.000 NA
BRANCH  15  21
ATOM     21  C   UNL     1      47.058   1.347   6.835  0.00  0.00    +0.000 C 
BRANCH  21  22
ATOM     22  C   UNL     1      48.341   2.056   6.400  0.00  0.00    +0.000 C 
BRANCH  22  23
ATOM     23  N   UNL     1      48.270   2.470   4.996  0.00  0.00    +0.000 NA
ATOM     24  H   UNL     1      48.508   3.459   4.930  0.00  0.00    +0.000 HD
ATOM     25  H   UNL     1      47.303   2.397   4.677  0.00  0.00    +0.000 HD
ENDBRANCH  22  23
ENDBRANCH  21  22
ENDBRANCH  15  21
ENDBRANCH  14  18
ENDBRANCH   1  14
TORSDOF 7
ENDMDL
MODEL 4
REMARK VINA RESULT:    -6.230      4.631      7.787
REMARK INTER + INTRA:          -9.017
REMARK INTER:                  -8.638
REMARK INTRA:                  -0.379
REMARK UNBOUND:                -0.601
REMARK  Name = 
REMARK  7 active torsions:
REMARK  status: ('A' for Active; 'I' for Inactive)
REMARK    1  A    between atoms: N_1  and  C_2
REMARK    2  A    between atoms: C_2  and  C_3
REMARK    3  A    between atoms: C_3  and  C_4
REMARK    4  A    between atoms: C_7  and  C_8
REMARK    5  A    between atoms: C_8  and  N_9
REMARK    6  A    between atoms: C_14  and  C_15
REMARK    7  A    between atoms: C_15  and  O_17
REMARK                            x       y       z     vdW  Elec       q    Type
REMARK                         _______ _______ _______ _____ _____    ______ ____
ROOT
ATOM      1  N   UNL     1      47.161   4.869  15.066  0.00  0.00    +0.000 N 
ATOM      2  N   UNL     1      48.108   5.837  15.059  0.00  0.00    +0.000 NA
ATOM      3  C   UNL     1      48.024   6.356  13.833  0.00  0.00    +0.000 A 
ATOM      4  C   UNL     1      47.031   5.737  13.045  0.00  0.00    +0.000 A 
ATOM      5  C   UNL     1      46.575   5.858  11.719  0.00  0.00    +0.000 A 
ATOM      6  C   UNL     1      45.552   5.013  11.263  0.00  0.00    +0.000 A 
ATOM      7  C   UNL     1      44.983   4.063  12.124  0.00  0.00    +0.000 A 
ATOM      8  C   UNL     1      45.419   3.941  13.453  0.00  0.00    +0.000 A 
ATOM      9  C   UNL     1      46.457   4.782  13.881  0.00  0.00    +0.000 A 
ENDROOT
BRANCH   6  10
ATOM     10  C   UNL     1      45.179   5.115   9.825  0.00  0.00    +0.000 C 
ATOM     11  O   UNL     1      45.972   5.491   8.976  0.00  0.00    +0.000 OA
BRANCH  10  12
ATOM     12  O   UNL     1      43.905   4.793   9.536  0.00  0.00    +0.000 OA
ATOM     13  H   UNL     1      43.246   5.504   9.631  0.00  0.00    +0.000 HD
ENDBRANCH  10  12
ENDBRANCH   6  10
BRANCH   1  14
ATOM     14  C   UNL     1      47.123   3.927  16.179  0.00  0.00    +0.000 C 
BRANCH  14  18
ATOM     15  C   UNL     1      51.007   2.718  17.449  0.00  0.00    +0.000 A 
ATOM     16  C   UNL     1      50.535   3.957  17.872  0.00  0.00    +0.000 A 
ATOM     17  C   UNL     1      49.260   4.363  17.481  0.00  0.00    +0.000 A 
ATOM     18  C   UNL     1      48.492   3.539  16.656  0.00  0.00    +0.000 A 
ATOM     19  C   UNL     1      49.051   2.322  16.279  0.00  0.00    +0.000 A 
ATOM     20  N   UNL     1      50.278   1.897  16.659  0.00  0.00    +0.000 NA
BRANCH  15  21
ATOM     21  C   UNL     1      52.384   2.250  17.852  0.00  0.00    +0.000 C 
BRANCH  21  22
ATOM     22  C   UNL     1      52.590   0.772  17.517  0.00  0.00    +0.000 C 
BRANCH  22  23
ATOM     23  N   UNL     1      51.679  -0.080  18.286  0.00  0.00    +0.000 NA
ATOM     24  H   UNL     1      51.332  -0.824  17.682  0.00  0.00    +0.000 HD
ATOM     25  H   UNL     1      50.858   0.466  18.551  0.00  0.00    +0.000 HD
ENDBRANCH  22  23
ENDBRANCH  21  22
ENDBRANCH  15  21
ENDBRANCH  14  18
ENDBRANCH   1  14
TORSDOF 7
ENDMDL
MODEL 5
REMARK VINA RESULT:    -5.976      4.431      8.505
REMARK INTER + INTRA:          -8.674
REMARK INTER:                  -7.886
REMARK INTRA:                  -0.788
REMARK UNBOUND:                -0.601
REMARK  Name = 
REMARK  7 active torsions:
REMARK  status: ('A' for Active; 'I' for Inactive)
REMARK    1  A    between atoms: N_1  and  C_2
REMARK    2  A    between atoms: C_2  and  C_3
REMARK    3  A    between atoms: C_3  and  C_4
REMARK    4  A    between atoms: C_7  and  C_8
REMARK    5  A    between atoms: C_8  and  N_9
REMARK    6  A    between atoms: C_14  and  C_15
REMARK    7  A    between atoms: C_15  and  O_17
REMARK                            x       y       z     vdW  Elec       q    Type
REMARK                         _______ _______ _______ _____ _____    ______ ____
ROOT
ATOM      1  N   UNL     1      47.475   7.093  13.742  0.00  0.00    +0.000 N 
ATOM      2  N   UNL     1      47.159   8.376  13.451  0.00  0.00    +0.000 NA
ATOM      3  C   UNL     1      46.082   8.270  12.670  0.00  0.00    +0.000 A 
ATOM      4  C   UNL     1      45.696   6.931  12.453  0.00  0.00    +0.000 A 
ATOM      5  C   UNL     1      44.702   6.278  11.701  0.00  0.00    +0.000 A 
ATOM      6  C   UNL     1      44.646   4.875  11.704  0.00  0.00    +0.000 A 
ATOM      7  C   UNL     1      45.568   4.133  12.457  0.00  0.00    +0.000 A 
ATOM      8  C   UNL     1      46.556   4.773  13.221  0.00  0.00    +0.000 A 
ATOM      9  C   UNL     1      46.606   6.174  13.187  0.00  0.00    +0.000 A 
ENDROOT
BRANCH   6  10
ATOM     10  C   UNL     1      43.639   4.235  10.813  0.00  0.00    +0.000 C 
ATOM     11  O   UNL     1      43.043   3.220  11.135  0.00  0.00    +0.000 OA
BRANCH  10  12
ATOM     12  O   UNL     1      43.457   4.839   9.624  0.00  0.00    +0.000 OA
ATOM     13  H   UNL     1      44.262   5.111   9.149  0.00  0.00    +0.000 HD
ENDBRANCH  10  12
ENDBRANCH   6  10
BRANCH   1  14
ATOM     14  C   UNL     1      48.749   6.811  14.395  0.00  0.00    +0.000 C 
BRANCH  14  18
ATOM     15  C   UNL     1      48.360   6.235  18.600  0.00  0.00    +0.000 A 
ATOM     16  C   UNL     1      48.679   7.509  18.138  0.00  0.00    +0.000 A 
ATOM     17  C   UNL     1      48.794   7.721  16.765  0.00  0.00    +0.000 A 
ATOM     18  C   UNL     1      48.614   6.655  15.882  0.00  0.00    +0.000 A 
ATOM     19  C   UNL     1      48.305   5.417  16.436  0.00  0.00    +0.000 A 
ATOM     20  N   UNL     1      48.170   5.189  17.763  0.00  0.00    +0.000 NA
BRANCH  15  21
ATOM     21  C   UNL     1      48.230   5.971  20.079  0.00  0.00    +0.000 C 
BRANCH  21  22
ATOM     22  C   UNL     1      49.111   4.799  20.515  0.00  0.00    +0.000 C 
BRANCH  22  23
ATOM     23  N   UNL     1      48.395   3.525  20.401  0.00  0.00    +0.000 NA
ATOM     24  H   UNL     1      47.447   3.706  20.071  0.00  0.00    +0.000 HD
ATOM     25  H   UNL     1      48.290   3.118  21.331  0.00  0.00    +0.000 HD
ENDBRANCH  22  23
ENDBRANCH  21  22
ENDBRANCH  15  21
ENDBRANCH  14  18
ENDBRANCH   1  14
TORSDOF 7
ENDMDL
MODEL 6
REMARK VINA RESULT:    -5.966      4.624      6.956
REMARK INTER + INTRA:          -8.660
REMARK INTER:                  -7.815
REMARK INTRA:                  -0.845
REMARK UNBOUND:                -0.601
REMARK  Name = 
REMARK  7 active torsions:
REMARK  status: ('A' for Active; 'I' for Inactive)
REMARK    1  A    between atoms: N_1  and  C_2
REMARK    2  A    between atoms: C_2  and  C_3
REMARK    3  A    between atoms: C_3  and  C_4
REMARK    4  A    between atoms: C_7  and  C_8
REMARK    5  A    between atoms: C_8  and  N_9
REMARK    6  A    between atoms: C_14  and  C_15
REMARK    7  A    between atoms: C_15  and  O_17
REMARK                            x       y       z     vdW  Elec       q    Type
REMARK                         _______ _______ _______ _____ _____    ______ ____
ROOT
ATOM      1  N   UNL     1      47.535   6.223  13.714  0.00  0.00    +0.000 N 
ATOM      2  N   UNL     1      47.811   5.406  14.757  0.00  0.00    +0.000 NA
ATOM      3  C   UNL     1      47.107   4.304  14.494  0.00  0.00    +0.000 A 
ATOM      4  C   UNL     1      46.378   4.397  13.289  0.00  0.00    +0.000 A 
ATOM      5  C   UNL     1      45.472   3.576  12.593  0.00  0.00    +0.000 A 
ATOM      6  C   UNL     1      44.902   4.038  11.397  0.00  0.00    +0.000 A 
ATOM      7  C   UNL     1      45.240   5.304  10.896  0.00  0.00    +0.000 A 
ATOM      8  C   UNL     1      46.152   6.128  11.574  0.00  0.00    +0.000 A 
ATOM      9  C   UNL     1      46.694   5.654  12.778  0.00  0.00    +0.000 A 
ENDROOT
BRANCH   6  10
ATOM     10  C   UNL     1      43.875   3.171  10.756  0.00  0.00    +0.000 C 
ATOM     11  O   UNL     1      44.043   2.678   9.652  0.00  0.00    +0.000 OA
BRANCH  10  12
ATOM     12  O   UNL     1      42.747   2.995  11.467  0.00  0.00    +0.000 OA
ATOM     13  H   UNL     1      42.807   3.162  12.424  0.00  0.00    +0.000 HD
ENDBRANCH  10  12
ENDBRANCH   6  10
BRANCH   1  14
ATOM     14  C   UNL     1      47.955   7.619  13.780  0.00  0.00    +0.000 C 
BRANCH  14  18
ATOM     15  C   UNL     1      51.789   8.302  12.050  0.00  0.00    +0.000 A 
ATOM     16  C   UNL     1      50.756   7.889  11.214  0.00  0.00    +0.000 A 
ATOM     17  C   UNL     1      49.490   7.676  11.759  0.00  0.00    +0.000 A 
ATOM     18  C   UNL     1      49.286   7.855  13.128  0.00  0.00    +0.000 A 
ATOM     19  C   UNL     1      50.379   8.263  13.884  0.00  0.00    +0.000 A 
ATOM     20  N   UNL     1      51.613   8.493  13.378  0.00  0.00    +0.000 NA
BRANCH  15  21
ATOM     21  C   UNL     1      53.171   8.538  11.493  0.00  0.00    +0.000 C 
BRANCH  21  22
ATOM     22  C   UNL     1      54.245   8.335  12.563  0.00  0.00    +0.000 C 
BRANCH  22  23
ATOM     23  N   UNL     1      54.270   6.948  13.034  0.00  0.00    +0.000 NA
ATOM     24  H   UNL     1      54.606   6.931  13.997  0.00  0.00    +0.000 HD
ATOM     25  H   UNL     1      54.959   6.425  12.492  0.00  0.00    +0.000 HD
ENDBRANCH  22  23
ENDBRANCH  21  22
ENDBRANCH  15  21
ENDBRANCH  14  18
ENDBRANCH   1  14
TORSDOF 7
ENDMDL
MODEL 7
REMARK VINA RESULT:    -5.528      2.193      3.161
REMARK INTER + INTRA:          -8.069
REMARK INTER:                  -7.262
REMARK INTRA:                  -0.807
REMARK UNBOUND:                -0.601
REMARK  Name = 
REMARK  7 active torsions:
REMARK  status: ('A' for Active; 'I' for Inactive)
REMARK    1  A    between atoms: N_1  and  C_2
REMARK    2  A    between atoms: C_2  and  C_3
REMARK    3  A    between atoms: C_3  and  C_4
REMARK    4  A    between atoms: C_7  and  C_8
REMARK    5  A    between atoms: C_8  and  N_9
REMARK    6  A    between atoms: C_14  and  C_15
REMARK    7  A    between atoms: C_15  and  O_17
REMARK                            x       y       z     vdW  Elec       q    Type
REMARK                         _______ _______ _______ _____ _____    ______ ____
ROOT
ATOM      1  N   UNL     1      46.268   6.771  13.030  0.00  0.00    +0.000 N 
ATOM      2  N   UNL     1      47.183   5.865  13.447  0.00  0.00    +0.000 NA
ATOM      3  C   UNL     1      48.351   6.484  13.264  0.00  0.00    +0.000 A 
ATOM      4  C   UNL     1      48.202   7.784  12.735  0.00  0.00    +0.000 A 
ATOM      5  C   UNL     1      49.072   8.810  12.322  0.00  0.00    +0.000 A 
ATOM      6  C   UNL     1      48.537   9.996  11.795  0.00  0.00    +0.000 A 
ATOM      7  C   UNL     1      47.148  10.159  11.690  0.00  0.00    +0.000 A 
ATOM      8  C   UNL     1      46.269   9.148  12.110  0.00  0.00    +0.000 A 
ATOM      9  C   UNL     1      46.826   7.964  12.614  0.00  0.00    +0.000 A 
ENDROOT
BRANCH   6  10
ATOM     10  C   UNL     1      49.504  11.005  11.282  0.00  0.00    +0.000 C 
ATOM     11  O   UNL     1      50.472  11.364  11.934  0.00  0.00    +0.000 OA
BRANCH  10  12
ATOM     12  O   UNL     1      49.219  11.509  10.067  0.00  0.00    +0.000 OA
ATOM     13  H   UNL     1      49.979  11.716   9.495  0.00  0.00    +0.000 HD
ENDBRANCH  10  12
ENDBRANCH   6  10
BRANCH   1  14
ATOM     14  C   UNL     1      44.880   6.350  12.869  0.00  0.00    +0.000 C 
BRANCH  14  18
ATOM     15  C   UNL     1      44.529   3.192  10.028  0.00  0.00    +0.000 A 
ATOM     16  C   UNL     1      44.068   2.965  11.322  0.00  0.00    +0.000 A 
ATOM     17  C   UNL     1      44.159   3.992  12.261  0.00  0.00    +0.000 A 
ATOM     18  C   UNL     1      44.730   5.213  11.900  0.00  0.00    +0.000 A 
ATOM     19  C   UNL     1      45.169   5.344  10.587  0.00  0.00    +0.000 A 
ATOM     20  N   UNL     1      45.076   4.370   9.651  0.00  0.00    +0.000 NA
BRANCH  15  21
ATOM     21  C   UNL     1      44.447   2.101   8.990  0.00  0.00    +0.000 C 
BRANCH  21  22
ATOM     22  C   UNL     1      45.833   1.738   8.454  0.00  0.00    +0.000 C 
BRANCH  22  23
ATOM     23  N   UNL     1      46.291   2.713   7.461  0.00  0.00    +0.000 NA
ATOM     24  H   UNL     1      47.302   2.627   7.355  0.00  0.00    +0.000 HD
ATOM     25  H   UNL     1      46.131   3.655   7.821  0.00  0.00    +0.000 HD
ENDBRANCH  22  23
ENDBRANCH  21  22
ENDBRANCH  15  21
ENDBRANCH  14  18
ENDBRANCH   1  14
TORSDOF 7
ENDMDL
MODEL 8
REMARK VINA RESULT:    -5.479      4.394      6.678
REMARK INTER + INTRA:          -8.003
REMARK INTER:                  -7.247
REMARK INTRA:                  -0.756
REMARK UNBOUND:                -0.601
REMARK  Name = 
REMARK  7 active torsions:
REMARK  status: ('A' for Active; 'I' for Inactive)
REMARK    1  A    between atoms: N_1  and  C_2
REMARK    2  A    between atoms: C_2  and  C_3
REMARK    3  A    between atoms: C_3  and  C_4
REMARK    4  A    between atoms: C_7  and  C_8
REMARK    5  A    between atoms: C_8  and  N_9
REMARK    6  A    between atoms: C_14  and  C_15
REMARK    7  A    between atoms: C_15  and  O_17
REMARK                            x       y       z     vdW  Elec       q    Type
REMARK                         _______ _______ _______ _____ _____    ______ ____
ROOT
ATOM      1  N   UNL     1      47.105   7.585  13.616  0.00  0.00    +0.000 N 
ATOM      2  N   UNL     1      46.647   8.820  13.305  0.00  0.00    +0.000 NA
ATOM      3  C   UNL     1      45.598   8.581  12.515  0.00  0.00    +0.000 A 
ATOM      4  C   UNL     1      45.371   7.203  12.312  0.00  0.00    +0.000 A 
ATOM      5  C   UNL     1      44.468   6.431  11.559  0.00  0.00    +0.000 A 
ATOM      6  C   UNL     1      44.575   5.031  11.579  0.00  0.00    +0.000 A 
ATOM      7  C   UNL     1      45.567   4.410  12.351  0.00  0.00    +0.000 A 
ATOM      8  C   UNL     1      46.466   5.168  13.117  0.00  0.00    +0.000 A 
ATOM      9  C   UNL     1      46.354   6.566  13.065  0.00  0.00    +0.000 A 
ENDROOT
BRANCH   6  10
ATOM     10  C   UNL     1      43.659   4.269  10.687  0.00  0.00    +0.000 C 
ATOM     11  O   UNL     1      43.056   3.279  11.071  0.00  0.00    +0.000 OA
BRANCH  10  12
ATOM     12  O   UNL     1      43.567   4.731   9.427  0.00  0.00    +0.000 OA
ATOM     13  H   UNL     1      43.202   5.627   9.319  0.00  0.00    +0.000 HD
ENDBRANCH  10  12
ENDBRANCH   6  10
BRANCH   1  14
ATOM     14  C   UNL     1      48.395   7.460  14.287  0.00  0.00    +0.000 C 
BRANCH  14  18
ATOM     15  C   UNL     1      51.604   8.270  11.602  0.00  0.00    +0.000 A 
ATOM     16  C   UNL     1      51.710   8.732  12.910  0.00  0.00    +0.000 A 
ATOM     17  C   UNL     1      50.678   8.462  13.808  0.00  0.00    +0.000 A 
ATOM     18  C   UNL     1      49.551   7.761  13.378  0.00  0.00    +0.000 A 
ATOM     19  C   UNL     1      49.531   7.345  12.051  0.00  0.00    +0.000 A 
ATOM     20  N   UNL     1      50.527   7.578  11.164  0.00  0.00    +0.000 NA
BRANCH  15  21
ATOM     21  C   UNL     1      52.702   8.547  10.605  0.00  0.00    +0.000 C 
BRANCH  21  22
ATOM     22  C   UNL     1      52.860   7.392   9.615  0.00  0.00    +0.000 C 
BRANCH  22  23
ATOM     23  N   UNL     1      53.089   6.123  10.311  0.00  0.00    +0.000 NA
ATOM     24  H   UNL     1      52.247   5.552  10.246  0.00  0.00    +0.000 HD
ATOM     25  H   UNL     1      53.220   6.309  11.307  0.00  0.00    +0.000 HD
ENDBRANCH  22  23
ENDBRANCH  21  22
ENDBRANCH  15  21
ENDBRANCH  14  18
ENDBRANCH   1  14
TORSDOF 7
ENDMDL
MODEL 9
REMARK VINA RESULT:    -5.276      4.211      6.175
REMARK INTER + INTRA:          -7.728
REMARK INTER:                  -7.209
REMARK INTRA:                  -0.519
REMARK UNBOUND:                -0.601
REMARK  Name = 
REMARK  7 active torsions:
REMARK  status: ('A' for Active; 'I' for Inactive)
REMARK    1  A    between atoms: N_1  and  C_2
REMARK    2  A    between atoms: C_2  and  C_3
REMARK    3  A    between atoms: C_3  and  C_4
REMARK    4  A    between atoms: C_7  and  C_8
REMARK    5  A    between atoms: C_8  and  N_9
REMARK    6  A    between atoms: C_14  and  C_15
REMARK    7  A    between atoms: C_15  and  O_17
REMARK                            x       y       z     vdW  Elec       q    Type
REMARK                         _______ _______ _______ _____ _____    ______ ____
ROOT
ATOM      1  N   UNL     1      48.731   7.339  15.104  0.00  0.00    +0.000 N 
ATOM      2  N   UNL     1      48.713   8.673  15.332  0.00  0.00    +0.000 NA
ATOM      3  C   UNL     1      48.656   8.769  16.661  0.00  0.00    +0.000 A 
ATOM      4  C   UNL     1      48.639   7.510  17.299  0.00  0.00    +0.000 A 
ATOM      5  C   UNL     1      48.539   7.054  18.626  0.00  0.00    +0.000 A 
ATOM      6  C   UNL     1      48.519   5.674  18.880  0.00  0.00    +0.000 A 
ATOM      7  C   UNL     1      48.606   4.759  17.820  0.00  0.00    +0.000 A 
ATOM      8  C   UNL     1      48.719   5.201  16.493  0.00  0.00    +0.000 A 
ATOM      9  C   UNL     1      48.716   6.584  16.261  0.00  0.00    +0.000 A 
ENDROOT
BRANCH   6  10
ATOM     10  C   UNL     1      48.312   5.248  20.291  0.00  0.00    +0.000 C 
ATOM     11  O   UNL     1      47.872   6.009  21.139  0.00  0.00    +0.000 OA
BRANCH  10  12
ATOM     12  O   UNL     1      48.667   3.980  20.568  0.00  0.00    +0.000 OA
ATOM     13  H   UNL     1      47.955   3.385  20.862  0.00  0.00    +0.000 HD
ENDBRANCH  10  12
ENDBRANCH   6  10
BRANCH   1  14
ATOM     14  C   UNL     1      48.558   6.853  13.739  0.00  0.00    +0.000 C 
BRANCH  14  18
ATOM     15  C   UNL     1      44.561   5.636  12.898  0.00  0.00    +0.000 A 
ATOM     16  C   UNL     1      45.436   4.694  13.430  0.00  0.00    +0.000 A 
ATOM     17  C   UNL     1      46.743   5.077  13.728  0.00  0.00    +0.000 A 
ATOM     18  C   UNL     1      47.159   6.383  13.465  0.00  0.00    +0.000 A 
ATOM     19  C   UNL     1      46.216   7.253  12.927  0.00  0.00    +0.000 A 
ATOM     20  N   UNL     1      44.937   6.911  12.645  0.00  0.00    +0.000 NA
BRANCH  15  21
ATOM     21  C   UNL     1      43.141   5.253  12.562  0.00  0.00    +0.000 C 
BRANCH  21  22
ATOM     22  C   UNL     1      43.064   4.521  11.221  0.00  0.00    +0.000 C 
BRANCH  22  23
ATOM     23  N   UNL     1      42.986   3.070  11.412  0.00  0.00    +0.000 NA
ATOM     24  H   UNL     1      43.427   2.607  10.617  0.00  0.00    +0.000 HD
ATOM     25  H   UNL     1      42.006   2.785  11.388  0.00  0.00    +0.000 HD
ENDBRANCH  22  23
ENDBRANCH  21  22
ENDBRANCH  15  21
ENDBRANCH  14  18
ENDBRANCH   1  14
TORSDOF 7
ENDMDL
