MODEL 1
REMARK VINA RESULT:    -8.984      0.000      0.000
REMARK INTER + INTRA:         -12.733
REMARK INTER:                 -11.873
REMARK INTRA:                  -0.860
REMARK UNBOUND:                -0.860
REMARK  Name = 
REMARK  6 active torsions:
REMARK  status: ('A' for Active; 'I' for Inactive)
REMARK    1  A    between atoms: C_2  and  C_4
REMARK    2  A    between atoms: C_7  and  N_8
REMARK    3  A    between atoms: N_8  and  C_9
REMARK    4  A    between atoms: C_9  and  C_10
REMARK    5  A    between atoms: C_12  and  N_13
REMARK    6  A    between atoms: C_16  and  O_17
REMARK                            x       y       z     vdW  Elec       q    Type
REMARK                         _______ _______ _______ _____ _____    ______ ____
ROOT
ATOM      1  C   UNL     1      43.633   4.443  11.539  0.00  0.00    +0.000 C 
ENDROOT
BRANCH   1   2
ATOM      2  C   UNL     1      44.892   4.527  12.370  0.00  0.00    +0.000 A 
ATOM      3  C   UNL     1      45.533   5.728  12.556  0.00  0.00    +0.000 A 
ATOM      4  C   UNL     1      46.745   5.700  13.200  0.00  0.00    +0.000 A 
ATOM      5  N   UNL     1      47.205   4.533  13.681  0.00  0.00    +0.000 NA
ATOM      6  N   UNL     1      46.530   3.410  13.507  0.00  0.00    +0.000 NA
ATOM      7  N   UNL     1      45.397   3.376  12.855  0.00  0.00    +0.000 NA
BRANCH   4   8
ATOM      8  N   UNL     1      47.474   6.878  13.367  0.00  0.00    +0.000 N 
ATOM      9  C   UNL     1      48.887   6.891  12.985  0.00  0.00    +0.000 C 
ATOM     10  C   UNL     1      49.138   7.713  11.726  0.00  0.00    +0.000 C 
ATOM     11  C   UNL     1      48.479   9.088  11.796  0.00  0.00    +0.000 C 
ATOM     12  C   UNL     1      46.997   8.968  12.135  0.00  0.00    +0.000 C 
ATOM     13  C   UNL     1      46.760   8.155  13.404  0.00  0.00    +0.000 C 
BRANCH  11  14
ATOM     14  O   UNL     1      49.144   9.933  12.733  0.00  0.00    +0.000 OA
ATOM     15  H   UNL     1      48.619   9.985  13.550  0.00  0.00    +0.000 HD
ENDBRANCH  11  14
ENDBRANCH   4   8
ENDBRANCH   1   2
BRANCH   1  16
ATOM     16  N   UNL     1      43.850   4.796  10.138  0.00  0.00    +0.000 N 
ATOM     17  H   UNL     1      43.008   5.124   9.667  0.00  0.00    +0.000 HD
BRANCH  16  21
ATOM     18  C   UNL     1      46.355   2.315   7.790  0.00  0.00    +0.000 A 
ATOM     19  C   UNL     1      45.446   1.733   8.675  0.00  0.00    +0.000 A 
ATOM     20  C   UNL     1      44.592   2.542   9.438  0.00  0.00    +0.000 A 
ATOM     21  C   UNL     1      44.604   3.939   9.322  0.00  0.00    +0.000 A 
ATOM     22  C   UNL     1      45.522   4.506   8.424  0.00  0.00    +0.000 A 
ATOM     23  C   UNL     1      46.393   3.706   7.670  0.00  0.00    +0.000 A 
BRANCH  18  25
ATOM     24  N   UNL     1      48.469   2.121   6.588  0.00  0.00    +0.000 N 
ATOM     25  C   UNL     1      47.329   1.500   7.019  0.00  0.00    +0.000 C 
ATOM     26  O   UNL     1      47.137   0.312   6.792  0.00  0.00    +0.000 OA
ATOM     27  H   UNL     1      49.160   1.528   6.143  0.00  0.00    +0.000 HD
ATOM     28  H   UNL     1      48.780   3.006   6.958  0.00  0.00    +0.000 HD
ENDBRANCH  18  25
ENDBRANCH  16  21
ENDBRANCH   1  16
TORSDOF 6
ENDMDL
MODEL 2
REMARK VINA RESULT:    -7.703      2.258      3.145
REMARK INTER + INTRA:         -11.039
REMARK INTER:                 -10.456
REMARK INTRA:                  -0.583
REMARK UNBOUND:                -0.860
REMARK  Name = 
REMARK  6 active torsions:
REMARK  status: ('A' for Active; 'I' for Inactive)
REMARK    1  A    between atoms: C_2  and  C_4
REMARK    2  A    between atoms: C_7  and  N_8
REMARK    3  A    between atoms: N_8  and  C_9
REMARK    4  A    between atoms: C_9  and  C_10
REMARK    5  A    between atoms: C_12  and  N_13
REMARK    6  A    between atoms: C_16  and  O_17
REMARK                            x       y       z     vdW  Elec       q    Type
REMARK                         _______ _______ _______ _____ _____    ______ ____
ROOT
ATOM      1  C   UNL     1      43.724   5.510  10.886  0.00  0.00    +0.000 C 
ENDROOT
BRANCH   1   2
ATOM      2  C   UNL     1      44.779   6.226  11.696  0.00  0.00    +0.000 A 
ATOM      3  C   UNL     1      45.757   5.522  12.357  0.00  0.00    +0.000 A 
ATOM      4  C   UNL     1      46.590   6.231  13.186  0.00  0.00    +0.000 A 
ATOM      5  N   UNL     1      46.465   7.566  13.254  0.00  0.00    +0.000 NA
ATOM      6  N   UNL     1      45.529   8.201  12.569  0.00  0.00    +0.000 NA
ATOM      7  N   UNL     1      44.679   7.565  11.806  0.00  0.00    +0.000 NA
BRANCH   4   8
ATOM      8  N   UNL     1      47.565   5.566  13.931  0.00  0.00    +0.000 N 
ATOM      9  C   UNL     1      48.607   6.355  14.589  0.00  0.00    +0.000 C 
ATOM     10  C   UNL     1      48.438   6.386  16.103  0.00  0.00    +0.000 C 
ATOM     11  C   UNL     1      48.221   4.993  16.687  0.00  0.00    +0.000 C 
ATOM     12  C   UNL     1      47.075   4.275  15.983  0.00  0.00    +0.000 C 
ATOM     13  C   UNL     1      47.263   4.238  14.468  0.00  0.00    +0.000 C 
BRANCH  11  14
ATOM     14  O   UNL     1      49.416   4.215  16.627  0.00  0.00    +0.000 OA
ATOM     15  H   UNL     1      49.634   3.892  17.518  0.00  0.00    +0.000 HD
ENDBRANCH  11  14
ENDBRANCH   4   8
ENDBRANCH   1   2
BRANCH   1  16
ATOM     16  N   UNL     1      43.970   4.074  10.772  0.00  0.00    +0.000 N 
ATOM     17  H   UNL     1      44.264   3.642  11.648  0.00  0.00    +0.000 HD
BRANCH  16  21
ATOM     18  C   UNL     1      46.402   2.728   7.576  0.00  0.00    +0.000 A 
ATOM     19  C   UNL     1      45.805   1.795   8.426  0.00  0.00    +0.000 A 
ATOM     20  C   UNL     1      44.977   2.226   9.471  0.00  0.00    +0.000 A 
ATOM     21  C   UNL     1      44.701   3.586   9.679  0.00  0.00    +0.000 A 
ATOM     22  C   UNL     1      45.307   4.508   8.812  0.00  0.00    +0.000 A 
ATOM     23  C   UNL     1      46.152   4.088   7.775  0.00  0.00    +0.000 A 
BRANCH  18  25
ATOM     24  N   UNL     1      47.267   2.982   5.308  0.00  0.00    +0.000 N 
ATOM     25  C   UNL     1      47.346   2.319   6.503  0.00  0.00    +0.000 C 
ATOM     26  O   UNL     1      48.180   1.441   6.681  0.00  0.00    +0.000 OA
ATOM     27  H   UNL     1      47.976   2.751   4.623  0.00  0.00    +0.000 HD
ATOM     28  H   UNL     1      46.781   3.859   5.203  0.00  0.00    +0.000 HD
ENDBRANCH  18  25
ENDBRANCH  16  21
ENDBRANCH   1  16
TORSDOF 6
ENDMDL
MODEL 3
REMARK VINA RESULT:    -7.314      1.814      6.847
REMARK INTER + INTRA:         -10.526
REMARK INTER:                  -9.753
REMARK INTRA:                  -0.773
REMARK UNBOUND:                -0.860
REMARK  Name = 
REMARK  6 active torsions:
REMARK  status: ('A' for Active; 'I' for Inactive)
REMARK    1  A    between atoms: C_2  and  C_4
REMARK    2  A    between atoms: C_7  and  N_8
REMARK    3  A    between atoms: N_8  and  C_9
REMARK    4  A    between atoms: C_9  and  C_10
REMARK    5  A    between atoms: C_12  and  N_13
REMARK    6  A    between atoms: C_16  and  O_17
REMARK                            x       y       z     vdW  Elec       q    Type
REMARK                         _______ _______ _______ _____ _____    ______ ____
ROOT
ATOM      1  C   UNL     1      45.698   4.832  13.395  0.00  0.00    +0.000 C 
ENDROOT
BRANCH   1   2
ATOM      2  C   UNL     1      44.922   3.882  12.513  0.00  0.00    +0.000 A 
ATOM      3  C   UNL     1      45.231   3.750  11.180  0.00  0.00    +0.000 A 
ATOM      4  C   UNL     1      44.393   2.978  10.415  0.00  0.00    +0.000 A 
ATOM      5  N   UNL     1      43.372   2.336  11.006  0.00  0.00    +0.000 NA
ATOM      6  N   UNL     1      43.139   2.468  12.301  0.00  0.00    +0.000 NA
ATOM      7  N   UNL     1      43.878   3.232  13.062  0.00  0.00    +0.000 NA
BRANCH   4   8
ATOM      8  N   UNL     1      44.617   2.853   9.044  0.00  0.00    +0.000 N 
ATOM      9  C   UNL     1      44.893   4.061   8.263  0.00  0.00    +0.000 C 
ATOM     10  C   UNL     1      46.345   4.135   7.807  0.00  0.00    +0.000 C 
ATOM     11  C   UNL     1      46.813   2.832   7.164  0.00  0.00    +0.000 C 
ATOM     12  C   UNL     1      46.544   1.642   8.077  0.00  0.00    +0.000 C 
ATOM     13  C   UNL     1      45.084   1.570   8.516  0.00  0.00    +0.000 C 
BRANCH  11  14
ATOM     14  O   UNL     1      46.205   2.638   5.888  0.00  0.00    +0.000 OA
ATOM     15  H   UNL     1      45.284   2.351   6.011  0.00  0.00    +0.000 HD
ENDBRANCH  11  14
ENDBRANCH   4   8
ENDBRANCH   1   2
BRANCH   1  16
ATOM     16  N   UNL     1      45.260   6.219  13.263  0.00  0.00    +0.000 N 
ATOM     17  H   UNL     1      44.382   6.321  12.754  0.00  0.00    +0.000 HD
BRANCH  16  21
ATOM     18  C   UNL     1      48.050   9.099  11.897  0.00  0.00    +0.000 A 
ATOM     19  C   UNL     1      46.853   9.522  12.476  0.00  0.00    +0.000 A 
ATOM     20  C   UNL     1      45.933   8.580  12.957  0.00  0.00    +0.000 A 
ATOM     21  C   UNL     1      46.191   7.203  12.898  0.00  0.00    +0.000 A 
ATOM     22  C   UNL     1      47.401   6.797  12.315  0.00  0.00    +0.000 A 
ATOM     23  C   UNL     1      48.320   7.731  11.814  0.00  0.00    +0.000 A 
BRANCH  18  25
ATOM     24  N   UNL     1      48.516  11.219  10.783  0.00  0.00    +0.000 N 
ATOM     25  C   UNL     1      49.018  10.060  11.307  0.00  0.00    +0.000 C 
ATOM     26  O   UNL     1      50.223   9.839  11.305  0.00  0.00    +0.000 OA
ATOM     27  H   UNL     1      49.198  11.899  10.469  0.00  0.00    +0.000 HD
ATOM     28  H   UNL     1      47.584  11.549  10.985  0.00  0.00    +0.000 HD
ENDBRANCH  18  25
ENDBRANCH  16  21
ENDBRANCH   1  16
TORSDOF 6
ENDMDL
MODEL 4
REMARK VINA RESULT:    -7.310      3.179      7.707
REMARK INTER + INTRA:         -10.520
REMARK INTER:                  -9.891
REMARK INTRA:                  -0.630
REMARK UNBOUND:                -0.860
REMARK  Name = 
REMARK  6 active torsions:
REMARK  status: ('A' for Active; 'I' for Inactive)
REMARK    1  A    between atoms: C_2  and  C_4
REMARK    2  A    between atoms: C_7  and  N_8
REMARK    3  A    between atoms: N_8  and  C_9
REMARK    4  A    between atoms: C_9  and  C_10
REMARK    5  A    between atoms: C_12  and  N_13
REMARK    6  A    between atoms: C_16  and  O_17
REMARK                            x       y       z     vdW  Elec       q    Type
REMARK                         _______ _______ _______ _____ _____    ______ ____
ROOT
ATOM      1  C   UNL     1      45.439   5.609  13.270  0.00  0.00    +0.000 C 
ENDROOT
BRANCH   1   2
ATOM      2  C   UNL     1      44.818   4.445  12.535  0.00  0.00    +0.000 A 
ATOM      3  C   UNL     1      45.073   4.240  11.200  0.00  0.00    +0.000 A 
ATOM      4  C   UNL     1      44.361   3.250  10.570  0.00  0.00    +0.000 A 
ATOM      5  N   UNL     1      43.521   2.487  11.289  0.00  0.00    +0.000 NA
ATOM      6  N   UNL     1      43.339   2.703  12.581  0.00  0.00    +0.000 NA
ATOM      7  N   UNL     1      43.954   3.666  13.215  0.00  0.00    +0.000 NA
BRANCH   4   8
ATOM      8  N   UNL     1      44.529   3.032   9.202  0.00  0.00    +0.000 N 
ATOM      9  C   UNL     1      44.876   4.169   8.346  0.00  0.00    +0.000 C 
ATOM     10  C   UNL     1      46.314   4.098   7.846  0.00  0.00    +0.000 C 
ATOM     11  C   UNL     1      46.654   2.728   7.265  0.00  0.00    +0.000 C 
ATOM     12  C   UNL     1      46.319   1.615   8.252  0.00  0.00    +0.000 C 
ATOM     13  C   UNL     1      44.873   1.688   8.735  0.00  0.00    +0.000 C 
BRANCH  11  14
ATOM     14  O   UNL     1      45.989   2.515   6.020  0.00  0.00    +0.000 OA
ATOM     15  H   UNL     1      45.028   2.505   6.166  0.00  0.00    +0.000 HD
ENDBRANCH  11  14
ENDBRANCH   4   8
ENDBRANCH   1   2
BRANCH   1  16
ATOM     16  N   UNL     1      46.879   5.457  13.466  0.00  0.00    +0.000 N 
ATOM     17  H   UNL     1      47.321   4.851  12.775  0.00  0.00    +0.000 HD
BRANCH  16  21
ATOM     18  C   UNL     1      48.510   4.531  17.263  0.00  0.00    +0.000 A 
ATOM     19  C   UNL     1      48.876   5.719  16.629  0.00  0.00    +0.000 A 
ATOM     20  C   UNL     1      48.324   6.051  15.385  0.00  0.00    +0.000 A 
ATOM     21  C   UNL     1      47.378   5.227  14.756  0.00  0.00    +0.000 A 
ATOM     22  C   UNL     1      47.019   4.038  15.411  0.00  0.00    +0.000 A 
ATOM     23  C   UNL     1      47.581   3.689  16.647  0.00  0.00    +0.000 A 
BRANCH  18  25
ATOM     24  N   UNL     1      48.419   3.231  19.326  0.00  0.00    +0.000 N 
ATOM     25  C   UNL     1      49.127   4.104  18.546  0.00  0.00    +0.000 C 
ATOM     26  O   UNL     1      50.235   4.496  18.888  0.00  0.00    +0.000 OA
ATOM     27  H   UNL     1      48.895   2.883  20.151  0.00  0.00    +0.000 HD
ATOM     28  H   UNL     1      47.638   2.699  18.976  0.00  0.00    +0.000 HD
ENDBRANCH  18  25
ENDBRANCH  16  21
ENDBRANCH   1  16
TORSDOF 6
ENDMDL
MODEL 5
REMARK VINA RESULT:    -7.181      2.318      7.064
REMARK INTER + INTRA:         -10.349
REMARK INTER:                  -9.806
REMARK INTRA:                  -0.544
REMARK UNBOUND:                -0.860
REMARK  Name = 
REMARK  6 active torsions:
REMARK  status: ('A' for Active; 'I' for Inactive)
REMARK    1  A    between atoms: C_2  and  C_4
REMARK    2  A    between atoms: C_7  and  N_8
REMARK    3  A    between atoms: N_8  and  C_9
REMARK    4  A    between atoms: C_9  and  C_10
REMARK    5  A    between atoms: C_12  and  N_13
REMARK    6  A    between atoms: C_16  and  O_17
REMARK                            x       y       z     vdW  Elec       q    Type
REMARK                         _______ _______ _______ _____ _____    ______ ____
ROOT
ATOM      1  C   UNL     1      45.860   4.548  13.282  0.00  0.00    +0.000 C 
ENDROOT
BRANCH   1   2
ATOM      2  C   UNL     1      45.032   3.673  12.371  0.00  0.00    +0.000 A 
ATOM      3  C   UNL     1      45.363   3.529  11.044  0.00  0.00    +0.000 A 
ATOM      4  C   UNL     1      44.484   2.836  10.249  0.00  0.00    +0.000 A 
ATOM      5  N   UNL     1      43.400   2.273  10.808  0.00  0.00    +0.000 NA
ATOM      6  N   UNL     1      43.146   2.412  12.098  0.00  0.00    +0.000 NA
ATOM      7  N   UNL     1      43.925   3.105  12.886  0.00  0.00    +0.000 NA
BRANCH   4   8
ATOM      8  N   UNL     1      44.732   2.706   8.883  0.00  0.00    +0.000 N 
ATOM      9  C   UNL     1      44.917   3.918   8.083  0.00  0.00    +0.000 C 
ATOM     10  C   UNL     1      46.364   4.102   7.639  0.00  0.00    +0.000 C 
ATOM     11  C   UNL     1      46.943   2.832   7.024  0.00  0.00    +0.000 C 
ATOM     12  C   UNL     1      46.761   1.639   7.956  0.00  0.00    +0.000 C 
ATOM     13  C   UNL     1      45.307   1.457   8.382  0.00  0.00    +0.000 C 
BRANCH  11  14
ATOM     14  O   UNL     1      46.365   2.566   5.746  0.00  0.00    +0.000 OA
ATOM     15  H   UNL     1      45.516   3.033   5.674  0.00  0.00    +0.000 HD
ENDBRANCH  11  14
ENDBRANCH   4   8
ENDBRANCH   1   2
BRANCH   1  16
ATOM     16  N   UNL     1      46.706   5.491  12.555  0.00  0.00    +0.000 N 
ATOM     17  H   UNL     1      47.672   5.505  12.881  0.00  0.00    +0.000 HD
BRANCH  16  21
ATOM     18  C   UNL     1      45.010   9.306  11.841  0.00  0.00    +0.000 A 
ATOM     19  C   UNL     1      46.043   9.176  12.770  0.00  0.00    +0.000 A 
ATOM     20  C   UNL     1      46.631   7.924  12.996  0.00  0.00    +0.000 A 
ATOM     21  C   UNL     1      46.227   6.782  12.289  0.00  0.00    +0.000 A 
ATOM     22  C   UNL     1      45.190   6.934  11.356  0.00  0.00    +0.000 A 
ATOM     23  C   UNL     1      44.582   8.178  11.136  0.00  0.00    +0.000 A 
BRANCH  18  25
ATOM     24  N   UNL     1      43.060  10.736  12.169  0.00  0.00    +0.000 N 
ATOM     25  C   UNL     1      44.307  10.598  11.624  0.00  0.00    +0.000 C 
ATOM     26  O   UNL     1      44.827  11.516  11.003  0.00  0.00    +0.000 OA
ATOM     27  H   UNL     1      42.637  11.653  12.087  0.00  0.00    +0.000 HD
ATOM     28  H   UNL     1      42.707  10.118  12.883  0.00  0.00    +0.000 HD
ENDBRANCH  18  25
ENDBRANCH  16  21
ENDBRANCH   1  16
TORSDOF 6
ENDMDL
MODEL 6
REMARK VINA RESULT:    -7.015      1.727      2.318
REMARK INTER + INTRA:         -10.130
REMARK INTER:                  -9.612
REMARK INTRA:                  -0.518
REMARK UNBOUND:                -0.860
REMARK  Name = 
REMARK  6 active torsions:
REMARK  status: ('A' for Active; 'I' for Inactive)
REMARK    1  A    between atoms: C_2  and  C_4
REMARK    2  A    between atoms: C_7  and  N_8
REMARK    3  A    between atoms: N_8  and  C_9
REMARK    4  A    between atoms: C_9  and  C_10
REMARK    5  A    between atoms: C_12  and  N_13
REMARK    6  A    between atoms: C_16  and  O_17
REMARK                            x       y       z     vdW  Elec       q    Type
REMARK                         _______ _______ _______ _____ _____    ______ ____
ROOT
ATOM      1  C   UNL     1      43.367   5.223  10.880  0.00  0.00    +0.000 C 
ENDROOT
BRANCH   1   2
ATOM      2  C   UNL     1      44.170   6.430  11.300  0.00  0.00    +0.000 A 
ATOM      3  C   UNL     1      45.323   6.287  12.035  0.00  0.00    +0.000 A 
ATOM      4  C   UNL     1      45.918   7.433  12.500  0.00  0.00    +0.000 A 
ATOM      5  N   UNL     1      45.402   8.625  12.158  0.00  0.00    +0.000 NA
ATOM      6  N   UNL     1      44.310   8.709  11.417  0.00  0.00    +0.000 NA
ATOM      7  N   UNL     1      43.678   7.646  10.993  0.00  0.00    +0.000 NA
BRANCH   4   8
ATOM      8  N   UNL     1      47.057   7.352  13.303  0.00  0.00    +0.000 N 
ATOM      9  C   UNL     1      48.093   6.378  12.957  0.00  0.00    +0.000 C 
ATOM     10  C   UNL     1      49.352   7.043  12.411  0.00  0.00    +0.000 C 
ATOM     11  C   UNL     1      49.822   8.196  13.294  0.00  0.00    +0.000 C 
ATOM     12  C   UNL     1      48.694   9.190  13.545  0.00  0.00    +0.000 C 
ATOM     13  C   UNL     1      47.444   8.515  14.103  0.00  0.00    +0.000 C 
BRANCH  11  14
ATOM     14  O   UNL     1      50.357   7.718  14.528  0.00  0.00    +0.000 OA
ATOM     15  H   UNL     1      51.220   7.302  14.365  0.00  0.00    +0.000 HD
ENDBRANCH  11  14
ENDBRANCH   4   8
ENDBRANCH   1   2
BRANCH   1  16
ATOM     16  N   UNL     1      44.133   3.980  10.935  0.00  0.00    +0.000 N 
ATOM     17  H   UNL     1      44.711   3.896  11.771  0.00  0.00    +0.000 HD
BRANCH  16  21
ATOM     18  C   UNL     1      46.401   2.769   7.568  0.00  0.00    +0.000 A 
ATOM     19  C   UNL     1      45.854   1.802   8.413  0.00  0.00    +0.000 A 
ATOM     20  C   UNL     1      45.079   2.188   9.515  0.00  0.00    +0.000 A 
ATOM     21  C   UNL     1      44.808   3.537   9.788  0.00  0.00    +0.000 A 
ATOM     22  C   UNL     1      45.363   4.495   8.925  0.00  0.00    +0.000 A 
ATOM     23  C   UNL     1      46.156   4.120   7.831  0.00  0.00    +0.000 A 
BRANCH  18  25
ATOM     24  N   UNL     1      47.274   3.224   5.336  0.00  0.00    +0.000 N 
ATOM     25  C   UNL     1      47.290   2.408   6.433  0.00  0.00    +0.000 C 
ATOM     26  O   UNL     1      48.027   1.431   6.480  0.00  0.00    +0.000 OA
ATOM     27  H   UNL     1      47.951   3.011   4.613  0.00  0.00    +0.000 HD
ATOM     28  H   UNL     1      46.883   4.153   5.354  0.00  0.00    +0.000 HD
ENDBRANCH  18  25
ENDBRANCH  16  21
ENDBRANCH   1  16
TORSDOF 6
ENDMDL
MODEL 7
REMARK VINA RESULT:    -6.910      1.919      7.048
REMARK INTER + INTRA:          -9.992
REMARK INTER:                  -9.321
REMARK INTRA:                  -0.671
REMARK UNBOUND:                -0.860
REMARK  Name = 
REMARK  6 active torsions:
REMARK  status: ('A' for Active; 'I' for Inactive)
REMARK    1  A    between atoms: C_2  and  C_4
REMARK    2  A    between atoms: C_7  and  N_8
REMARK    3  A    between atoms: N_8  and  C_9
REMARK    4  A    between atoms: C_9  and  C_10
REMARK    5  A    between atoms: C_12  and  N_13
REMARK    6  A    between atoms: C_16  and  O_17
REMARK                            x       y       z     vdW  Elec       q    Type
REMARK                         _______ _______ _______ _____ _____    ______ ____
ROOT
ATOM      1  C   UNL     1      45.451   5.511  13.152  0.00  0.00    +0.000 C 
ENDROOT
BRANCH   1   2
ATOM      2  C   UNL     1      44.846   4.346  12.405  0.00  0.00    +0.000 A 
ATOM      3  C   UNL     1      45.131   4.140  11.076  0.00  0.00    +0.000 A 
ATOM      4  C   UNL     1      44.433   3.149  10.431  0.00  0.00    +0.000 A 
ATOM      5  N   UNL     1      43.578   2.387  11.133  0.00  0.00    +0.000 NA
ATOM      6  N   UNL     1      43.367   2.604  12.420  0.00  0.00    +0.000 NA
ATOM      7  N   UNL     1      43.968   3.568  13.066  0.00  0.00    +0.000 NA
BRANCH   4   8
ATOM      8  N   UNL     1      44.632   2.929   9.068  0.00  0.00    +0.000 N 
ATOM      9  C   UNL     1      44.972   4.069   8.214  0.00  0.00    +0.000 C 
ATOM     10  C   UNL     1      46.420   4.026   7.742  0.00  0.00    +0.000 C 
ATOM     11  C   UNL     1      46.799   2.661   7.173  0.00  0.00    +0.000 C 
ATOM     12  C   UNL     1      46.468   1.545   8.158  0.00  0.00    +0.000 C 
ATOM     13  C   UNL     1      45.012   1.591   8.613  0.00  0.00    +0.000 C 
BRANCH  11  14
ATOM     14  O   UNL     1      46.163   2.430   5.916  0.00  0.00    +0.000 OA
ATOM     15  H   UNL     1      46.489   1.595   5.540  0.00  0.00    +0.000 HD
ENDBRANCH  11  14
ENDBRANCH   4   8
ENDBRANCH   1   2
BRANCH   1  16
ATOM     16  N   UNL     1      46.214   6.409  12.289  0.00  0.00    +0.000 N 
ATOM     17  H   UNL     1      46.168   6.158  11.301  0.00  0.00    +0.000 HD
BRANCH  16  21
ATOM     18  C   UNL     1      50.046   7.841  13.387  0.00  0.00    +0.000 A 
ATOM     19  C   UNL     1      49.264   7.174  14.332  0.00  0.00    +0.000 A 
ATOM     20  C   UNL     1      48.005   6.671  13.974  0.00  0.00    +0.000 A 
ATOM     21  C   UNL     1      47.507   6.795  12.669  0.00  0.00    +0.000 A 
ATOM     22  C   UNL     1      48.309   7.465  11.732  0.00  0.00    +0.000 A 
ATOM     23  C   UNL     1      49.562   7.988  12.085  0.00  0.00    +0.000 A 
BRANCH  18  25
ATOM     24  N   UNL     1      52.447   8.069  13.019  0.00  0.00    +0.000 N 
ATOM     25  C   UNL     1      51.352   8.455  13.742  0.00  0.00    +0.000 C 
ATOM     26  O   UNL     1      51.449   9.290  14.632  0.00  0.00    +0.000 OA
ATOM     27  H   UNL     1      53.308   8.564  13.216  0.00  0.00    +0.000 HD
ATOM     28  H   UNL     1      52.374   7.588  12.135  0.00  0.00    +0.000 HD
ENDBRANCH  18  25
ENDBRANCH  16  21
ENDBRANCH   1  16
TORSDOF 6
ENDMDL
MODEL 8
REMARK VINA RESULT:    -6.828      4.770      7.917
REMARK INTER + INTRA:          -9.884
REMARK INTER:                  -9.249
REMARK INTRA:                  -0.635
REMARK UNBOUND:                -0.860
REMARK  Name = 
REMARK  6 active torsions:
REMARK  status: ('A' for Active; 'I' for Inactive)
REMARK    1  A    between atoms: C_2  and  C_4
REMARK    2  A    between atoms: C_7  and  N_8
REMARK    3  A    between atoms: N_8  and  C_9
REMARK    4  A    between atoms: C_9  and  C_10
REMARK    5  A    between atoms: C_12  and  N_13
REMARK    6  A    between atoms: C_16  and  O_17
REMARK                            x       y       z     vdW  Elec       q    Type
REMARK                         _______ _______ _______ _____ _____    ______ ____
ROOT
ATOM      1  C   UNL     1      47.163   3.967  15.940  0.00  0.00    +0.000 C 
ENDROOT
BRANCH   1   2
ATOM      2  C   UNL     1      47.171   4.828  14.699  0.00  0.00    +0.000 A 
ATOM      3  C   UNL     1      46.157   4.739  13.775  0.00  0.00    +0.000 A 
ATOM      4  C   UNL     1      46.307   5.446  12.608  0.00  0.00    +0.000 A 
ATOM      5  N   UNL     1      47.380   6.240  12.456  0.00  0.00    +0.000 NA
ATOM      6  N   UNL     1      48.310   6.318  13.393  0.00  0.00    +0.000 NA
ATOM      7  N   UNL     1      48.238   5.625  14.499  0.00  0.00    +0.000 NA
BRANCH   4   8
ATOM      8  N   UNL     1      45.342   5.350  11.605  0.00  0.00    +0.000 N 
ATOM      9  C   UNL     1      45.564   6.062  10.345  0.00  0.00    +0.000 C 
ATOM     10  C   UNL     1      45.879   5.114   9.194  0.00  0.00    +0.000 C 
ATOM     11  C   UNL     1      44.886   3.958   9.113  0.00  0.00    +0.000 C 
ATOM     12  C   UNL     1      44.772   3.238  10.452  0.00  0.00    +0.000 C 
ATOM     13  C   UNL     1      44.443   4.196  11.594  0.00  0.00    +0.000 C 
BRANCH  11  14
ATOM     14  O   UNL     1      43.606   4.406   8.670  0.00  0.00    +0.000 OA
ATOM     15  H   UNL     1      43.212   4.977   9.350  0.00  0.00    +0.000 HD
ENDBRANCH  11  14
ENDBRANCH   4   8
ENDBRANCH   1   2
BRANCH   1  16
ATOM     16  N   UNL     1      48.011   4.495  17.006  0.00  0.00    +0.000 N 
ATOM     17  H   UNL     1      48.126   5.507  16.969  0.00  0.00    +0.000 HD
BRANCH  16  21
ATOM     18  C   UNL     1      51.656   2.443  17.671  0.00  0.00    +0.000 A 
ATOM     19  C   UNL     1      51.605   3.827  17.842  0.00  0.00    +0.000 A 
ATOM     20  C   UNL     1      50.399   4.515  17.652  0.00  0.00    +0.000 A 
ATOM     21  C   UNL     1      49.215   3.844  17.314  0.00  0.00    +0.000 A 
ATOM     22  C   UNL     1      49.285   2.452  17.150  0.00  0.00    +0.000 A 
ATOM     23  C   UNL     1      50.491   1.757  17.321  0.00  0.00    +0.000 A 
BRANCH  18  25
ATOM     24  N   UNL     1      52.843   0.326  17.923  0.00  0.00    +0.000 N 
ATOM     25  C   UNL     1      52.929   1.685  17.789  0.00  0.00    +0.000 C 
ATOM     26  O   UNL     1      54.017   2.245  17.747  0.00  0.00    +0.000 OA
ATOM     27  H   UNL     1      53.721  -0.179  17.911  0.00  0.00    +0.000 HD
ATOM     28  H   UNL     1      52.002  -0.189  17.714  0.00  0.00    +0.000 HD
ENDBRANCH  18  25
ENDBRANCH  16  21
ENDBRANCH   1  16
TORSDOF 6
ENDMDL
MODEL 9
REMARK VINA RESULT:    -6.716      4.005      5.942
REMARK INTER + INTRA:          -9.735
REMARK INTER:                  -8.943
REMARK INTRA:                  -0.792
REMARK UNBOUND:                -0.860
REMARK  Name = 
REMARK  6 active torsions:
REMARK  status: ('A' for Active; 'I' for Inactive)
REMARK    1  A    between atoms: C_2  and  C_4
REMARK    2  A    between atoms: C_7  and  N_8
REMARK    3  A    between atoms: N_8  and  C_9
REMARK    4  A    between atoms: C_9  and  C_10
REMARK    5  A    between atoms: C_12  and  N_13
REMARK    6  A    between atoms: C_16  and  O_17
REMARK                            x       y       z     vdW  Elec       q    Type
REMARK                         _______ _______ _______ _____ _____    ______ ____
ROOT
ATOM      1  C   UNL     1      48.083   7.800  13.208  0.00  0.00    +0.000 C 
ENDROOT
BRANCH   1   2
ATOM      2  C   UNL     1      49.098   7.377  14.244  0.00  0.00    +0.000 A 
ATOM      3  C   UNL     1      48.735   6.567  15.294  0.00  0.00    +0.000 A 
ATOM      4  C   UNL     1      49.675   6.344  16.269  0.00  0.00    +0.000 A 
ATOM      5  N   UNL     1      50.908   6.853  16.119  0.00  0.00    +0.000 NA
ATOM      6  N   UNL     1      51.217   7.597  15.071  0.00  0.00    +0.000 NA
ATOM      7  N   UNL     1      50.343   7.880  14.141  0.00  0.00    +0.000 NA
BRANCH   4   8
ATOM      8  N   UNL     1      49.349   5.580  17.390  0.00  0.00    +0.000 N 
ATOM      9  C   UNL     1      47.943   5.476  17.786  0.00  0.00    +0.000 C 
ATOM     10  C   UNL     1      47.368   4.090  17.515  0.00  0.00    +0.000 C 
ATOM     11  C   UNL     1      48.270   2.979  18.046  0.00  0.00    +0.000 C 
ATOM     12  C   UNL     1      49.695   3.135  17.528  0.00  0.00    +0.000 C 
ATOM     13  C   UNL     1      50.265   4.521  17.818  0.00  0.00    +0.000 C 
BRANCH  11  14
ATOM     14  O   UNL     1      48.253   2.936  19.473  0.00  0.00    +0.000 OA
ATOM     15  H   UNL     1      48.984   2.378  19.786  0.00  0.00    +0.000 HD
ENDBRANCH  11  14
ENDBRANCH   4   8
ENDBRANCH   1   2
BRANCH   1  16
ATOM     16  N   UNL     1      46.732   7.336  13.511  0.00  0.00    +0.000 N 
ATOM     17  H   UNL     1      46.545   7.254  14.510  0.00  0.00    +0.000 HD
BRANCH  16  21
ATOM     18  C   UNL     1      44.887   4.099  11.496  0.00  0.00    +0.000 A 
ATOM     19  C   UNL     1      45.213   5.255  10.785  0.00  0.00    +0.000 A 
ATOM     20  C   UNL     1      45.848   6.323  11.434  0.00  0.00    +0.000 A 
ATOM     21  C   UNL     1      46.197   6.258  12.791  0.00  0.00    +0.000 A 
ATOM     22  C   UNL     1      45.864   5.085  13.488  0.00  0.00    +0.000 A 
ATOM     23  C   UNL     1      45.212   4.019  12.852  0.00  0.00    +0.000 A 
BRANCH  18  25
ATOM     24  N   UNL     1      44.769   2.300   9.852  0.00  0.00    +0.000 N 
ATOM     25  C   UNL     1      44.147   2.974  10.866  0.00  0.00    +0.000 C 
ATOM     26  O   UNL     1      43.033   2.643  11.250  0.00  0.00    +0.000 OA
ATOM     27  H   UNL     1      44.287   1.482   9.498  0.00  0.00    +0.000 HD
ATOM     28  H   UNL     1      45.760   2.372   9.678  0.00  0.00    +0.000 HD
ENDBRANCH  18  25
ENDBRANCH  16  21
ENDBRANCH   1  16
TORSDOF 6
ENDMDL
