MODEL 1
REMARK VINA RESULT:    -7.427      0.000      0.000
REMARK INTER + INTRA:         -12.802
REMARK INTER:                 -11.986
REMARK INTRA:                  -0.816
REMARK UNBOUND:                -0.816
REMARK  Name = 
REMARK  11 active torsions:
REMARK  status: ('A' for Active; 'I' for Inactive)
REMARK    1  A    between atoms: N_1  and  C_2
REMARK    2  A    between atoms: C_2  and  C_3
REMARK    3  A    between atoms: C_3  and  N_4
REMARK    4  A    between atoms: N_4  and  C_5
REMARK    5  A    between atoms: C_5  and  C_6
REMARK    6  A    between atoms: C_9  and  C_10
REMARK    7  A    between atoms: C_10  and  C_11
REMARK    8  A    between atoms: C_11  and  C_12
REMARK    9  A    between atoms: C_15  and  C_16
REMARK   10  A    between atoms: C_16  and  N_17
REMARK   11  A    between atoms: C_18  and  C_20
REMARK                            x       y       z     vdW  Elec       q    Type
REMARK                         _______ _______ _______ _____ _____    ______ ____
ROOT
ATOM      1  C   UNL     1      47.506   5.611  14.553  0.00  0.00    +0.000 A 
ATOM      2  C   UNL     1      48.328   6.137  15.547  0.00  0.00    +0.000 A 
ATOM      3  C   UNL     1      48.608   5.366  16.675  0.00  0.00    +0.000 A 
ATOM      4  C   UNL     1      48.058   4.090  16.793  0.00  0.00    +0.000 A 
ATOM      5  C   UNL     1      47.222   3.662  15.768  0.00  0.00    +0.000 A 
ATOM      6  N   UNL     1      46.946   4.383  14.657  0.00  0.00    +0.000 NA
ENDROOT
BRANCH   1   7
ATOM      7  C   UNL     1      47.198   6.406  13.308  0.00  0.00    +0.000 C 
BRANCH   7   8
ATOM      8  C   UNL     1      45.722   6.304  12.914  0.00  0.00    +0.000 C 
BRANCH   8  12
ATOM      9  C   UNL     1      45.151   3.854   9.392  0.00  0.00    +0.000 A 
ATOM     10  C   UNL     1      45.695   5.144   9.284  0.00  0.00    +0.000 A 
ATOM     11  C   UNL     1      45.883   5.936  10.419  0.00  0.00    +0.000 A 
ATOM     12  C   UNL     1      45.519   5.458  11.684  0.00  0.00    +0.000 A 
ATOM     13  C   UNL     1      44.954   4.184  11.791  0.00  0.00    +0.000 A 
ATOM     14  C   UNL     1      44.777   3.386  10.658  0.00  0.00    +0.000 A 
BRANCH   9  15
ATOM     15  C   UNL     1      44.956   2.992   8.166  0.00  0.00    +0.000 C 
BRANCH  15  16
ATOM     16  N   UNL     1      46.241   2.557   7.620  0.00  0.00    +0.000 NA
ATOM     17  H   UNL     1      46.942   2.576   8.356  0.00  0.00    +0.000 HD
BRANCH  16  18
ATOM     18  C   UNL     1      46.671   3.411   6.513  0.00  0.00    +0.000 C 
BRANCH  18  19
ATOM     19  C   UNL     1      47.315   2.553   5.409  0.00  0.00    +0.000 C 
BRANCH  19  20
ATOM     20  N   UNL     1      48.471   1.808   5.903  0.00  0.00    +0.000 NA
ATOM     21  H   UNL     1      48.988   1.436   5.107  0.00  0.00    +0.000 HD
ATOM     22  H   UNL     1      48.157   1.002   6.442  0.00  0.00    +0.000 HD
ENDBRANCH  19  20
ENDBRANCH  18  19
ENDBRANCH  16  18
ENDBRANCH  15  16
ENDBRANCH   9  15
ENDBRANCH   8  12
ENDBRANCH   7   8
ENDBRANCH   1   7
BRANCH   4  23
ATOM     23  C   UNL     1      48.306   3.227  17.993  0.00  0.00    +0.000 C 
BRANCH  23  24
ATOM     24  N   UNL     1      49.711   2.967  18.163  0.00  0.00    +0.000 N 
ATOM     25  C   UNL     1      50.406   2.183  17.278  0.00  0.00    +0.000 C 
ATOM     26  O   UNL     1      49.876   1.696  16.284  0.00  0.00    +0.000 OA
ATOM     27  H   UNL     1      50.107   3.142  19.082  0.00  0.00    +0.000 HD
BRANCH  25  28
ATOM     28  C   UNL     1      51.838   2.009  17.553  0.00  0.00    +0.000 A 
ATOM     29  C   UNL     1      52.373   0.732  17.641  0.00  0.00    +0.000 A 
ATOM     30  S   UNL     1      54.057   0.715  17.917  0.00  0.00    +0.000 S 
ATOM     31  C   UNL     1      54.119   2.413  17.976  0.00  0.00    +0.000 A 
ATOM     32  N   UNL     1      55.290   3.065  18.216  0.00  0.00    +0.000 NA
ATOM     33  C   UNL     1      55.187   4.350  18.262  0.00  0.00    +0.000 A 
ATOM     34  N   UNL     1      54.020   5.048  18.082  0.00  0.00    +0.000 N 
ATOM     35  C   UNL     1      52.821   4.434  17.803  0.00  0.00    +0.000 A 
ATOM     36  O   UNL     1      51.808   5.087  17.591  0.00  0.00    +0.000 OA
ATOM     37  C   UNL     1      52.879   2.987  17.763  0.00  0.00    +0.000 A 
ATOM     38  H   UNL     1      54.007   6.056  18.113  0.00  0.00    +0.000 HD
ENDBRANCH  25  28
ENDBRANCH  23  24
ENDBRANCH   4  23
TORSDOF 11
ENDMDL
MODEL 2
REMARK VINA RESULT:    -7.422      1.747      2.726
REMARK INTER + INTRA:         -12.794
REMARK INTER:                 -11.683
REMARK INTRA:                  -1.112
REMARK UNBOUND:                -0.816
REMARK  Name = 
REMARK  11 active torsions:
REMARK  status: ('A' for Active; 'I' for Inactive)
REMARK    1  A    between atoms: N_1  and  C_2
REMARK    2  A    between atoms: C_2  and  C_3
REMARK    3  A    between atoms: C_3  and  N_4
REMARK    4  A    between atoms: N_4  and  C_5
REMARK    5  A    between atoms: C_5  and  C_6
REMARK    6  A    between atoms: C_9  and  C_10
REMARK    7  A    between atoms: C_10  and  C_11
REMARK    8  A    between atoms: C_11  and  C_12
REMARK    9  A    between atoms: C_15  and  C_16
REMARK   10  A    between atoms: C_16  and  N_17
REMARK   11  A    between atoms: C_18  and  C_20
REMARK                            x       y       z     vdW  Elec       q    Type
REMARK                         _______ _______ _______ _____ _____    ______ ____
ROOT
ATOM      1  C   UNL     1      48.217   6.669  14.474  0.00  0.00    +0.000 A 
ATOM      2  C   UNL     1      48.694   7.815  15.108  0.00  0.00    +0.000 A 
ATOM      3  C   UNL     1      49.079   7.740  16.445  0.00  0.00    +0.000 A 
ATOM      4  C   UNL     1      48.977   6.528  17.127  0.00  0.00    +0.000 A 
ATOM      5  C   UNL     1      48.459   5.446  16.424  0.00  0.00    +0.000 A 
ATOM      6  N   UNL     1      48.091   5.487  15.122  0.00  0.00    +0.000 NA
ENDROOT
BRANCH   1   7
ATOM      7  C   UNL     1      47.811   6.704  13.021  0.00  0.00    +0.000 C 
BRANCH   7   8
ATOM      8  C   UNL     1      46.289   6.706  12.851  0.00  0.00    +0.000 C 
BRANCH   8  12
ATOM      9  C   UNL     1      44.911   3.502  10.289  0.00  0.00    +0.000 A 
ATOM     10  C   UNL     1      45.175   3.267  11.647  0.00  0.00    +0.000 A 
ATOM     11  C   UNL     1      45.618   4.299  12.477  0.00  0.00    +0.000 A 
ATOM     12  C   UNL     1      45.816   5.586  11.962  0.00  0.00    +0.000 A 
ATOM     13  C   UNL     1      45.576   5.817  10.605  0.00  0.00    +0.000 A 
ATOM     14  C   UNL     1      45.123   4.789   9.776  0.00  0.00    +0.000 A 
BRANCH   9  15
ATOM     15  C   UNL     1      44.422   2.388   9.391  0.00  0.00    +0.000 C 
BRANCH  15  16
ATOM     16  N   UNL     1      45.520   1.500   9.011  0.00  0.00    +0.000 NA
ATOM     17  H   UNL     1      46.093   1.305   9.829  0.00  0.00    +0.000 HD
BRANCH  16  18
ATOM     18  C   UNL     1      46.351   2.092   7.962  0.00  0.00    +0.000 C 
BRANCH  18  19
ATOM     19  C   UNL     1      47.194   0.999   7.283  0.00  0.00    +0.000 C 
BRANCH  19  20
ATOM     20  N   UNL     1      46.828  -0.338   7.746  0.00  0.00    +0.000 NA
ATOM     21  H   UNL     1      46.656  -0.304   8.750  0.00  0.00    +0.000 HD
ATOM     22  H   UNL     1      47.611  -0.976   7.611  0.00  0.00    +0.000 HD
ENDBRANCH  19  20
ENDBRANCH  18  19
ENDBRANCH  16  18
ENDBRANCH  15  16
ENDBRANCH   9  15
ENDBRANCH   8  12
ENDBRANCH   7   8
ENDBRANCH   1   7
BRANCH   4  23
ATOM     23  C   UNL     1      49.355   6.395  18.571  0.00  0.00    +0.000 C 
BRANCH  23  24
ATOM     24  N   UNL     1      50.316   5.340  18.760  0.00  0.00    +0.000 N 
ATOM     25  C   UNL     1      51.637   5.508  18.438  0.00  0.00    +0.000 C 
ATOM     26  O   UNL     1      52.072   6.571  18.007  0.00  0.00    +0.000 OA
ATOM     27  H   UNL     1      49.952   4.398  18.874  0.00  0.00    +0.000 HD
BRANCH  25  28
ATOM     28  C   UNL     1      52.518   4.362  18.695  0.00  0.00    +0.000 A 
ATOM     29  C   UNL     1      53.675   4.535  19.443  0.00  0.00    +0.000 A 
ATOM     30  S   UNL     1      54.554   3.091  19.684  0.00  0.00    +0.000 S 
ATOM     31  C   UNL     1      53.444   2.197  18.756  0.00  0.00    +0.000 A 
ATOM     32  N   UNL     1      53.626   0.866  18.534  0.00  0.00    +0.000 NA
ATOM     33  C   UNL     1      52.726   0.320  17.791  0.00  0.00    +0.000 A 
ATOM     34  N   UNL     1      51.650   0.980  17.252  0.00  0.00    +0.000 N 
ATOM     35  C   UNL     1      51.406   2.314  17.478  0.00  0.00    +0.000 A 
ATOM     36  O   UNL     1      50.408   2.861  17.030  0.00  0.00    +0.000 OA
ATOM     37  C   UNL     1      52.405   2.981  18.290  0.00  0.00    +0.000 A 
ATOM     38  H   UNL     1      50.969   0.492  16.692  0.00  0.00    +0.000 HD
ENDBRANCH  25  28
ENDBRANCH  23  24
ENDBRANCH   4  23
TORSDOF 11
ENDMDL
MODEL 3
REMARK VINA RESULT:    -7.187      5.375      7.402
REMARK INTER + INTRA:         -12.414
REMARK INTER:                 -11.273
REMARK INTRA:                  -1.141
REMARK UNBOUND:                -0.816
REMARK  Name = 
REMARK  11 active torsions:
REMARK  status: ('A' for Active; 'I' for Inactive)
REMARK    1  A    between atoms: N_1  and  C_2
REMARK    2  A    between atoms: C_2  and  C_3
REMARK    3  A    between atoms: C_3  and  N_4
REMARK    4  A    between atoms: N_4  and  C_5
REMARK    5  A    between atoms: C_5  and  C_6
REMARK    6  A    between atoms: C_9  and  C_10
REMARK    7  A    between atoms: C_10  and  C_11
REMARK    8  A    between atoms: C_11  and  C_12
REMARK    9  A    between atoms: C_15  and  C_16
REMARK   10  A    between atoms: C_16  and  N_17
REMARK   11  A    between atoms: C_18  and  C_20
REMARK                            x       y       z     vdW  Elec       q    Type
REMARK                         _______ _______ _______ _____ _____    ______ ____
ROOT
ATOM      1  C   UNL     1      47.327   6.701  13.007  0.00  0.00    +0.000 A 
ATOM      2  C   UNL     1      47.404   7.559  11.912  0.00  0.00    +0.000 A 
ATOM      3  C   UNL     1      48.635   8.116  11.571  0.00  0.00    +0.000 A 
ATOM      4  C   UNL     1      49.765   7.812  12.330  0.00  0.00    +0.000 A 
ATOM      5  C   UNL     1      49.587   6.973  13.424  0.00  0.00    +0.000 A 
ATOM      6  N   UNL     1      48.407   6.408  13.769  0.00  0.00    +0.000 NA
ENDROOT
BRANCH   1   7
ATOM      7  C   UNL     1      46.017   6.061  13.395  0.00  0.00    +0.000 C 
BRANCH   7   8
ATOM      8  C   UNL     1      44.938   6.270  12.329  0.00  0.00    +0.000 C 
BRANCH   8  12
ATOM      9  C   UNL     1      45.250   3.423   9.084  0.00  0.00    +0.000 A 
ATOM     10  C   UNL     1      44.781   3.020  10.345  0.00  0.00    +0.000 A 
ATOM     11  C   UNL     1      44.677   3.937  11.393  0.00  0.00    +0.000 A 
ATOM     12  C   UNL     1      45.051   5.274  11.205  0.00  0.00    +0.000 A 
ATOM     13  C   UNL     1      45.540   5.671   9.957  0.00  0.00    +0.000 A 
ATOM     14  C   UNL     1      45.634   4.758   8.905  0.00  0.00    +0.000 A 
BRANCH   9  15
ATOM     15  C   UNL     1      45.353   2.434   7.946  0.00  0.00    +0.000 C 
BRANCH  15  16
ATOM     16  N   UNL     1      46.002   1.198   8.381  0.00  0.00    +0.000 NA
ATOM     17  H   UNL     1      46.299   1.297   9.349  0.00  0.00    +0.000 HD
BRANCH  16  18
ATOM     18  C   UNL     1      47.161   0.877   7.545  0.00  0.00    +0.000 C 
BRANCH  18  19
ATOM     19  C   UNL     1      47.614   2.131   6.777  0.00  0.00    +0.000 C 
BRANCH  19  20
ATOM     20  N   UNL     1      48.482   1.796   5.650  0.00  0.00    +0.000 NA
ATOM     21  H   UNL     1      48.726   0.808   5.704  0.00  0.00    +0.000 HD
ATOM     22  H   UNL     1      49.358   2.311   5.725  0.00  0.00    +0.000 HD
ENDBRANCH  19  20
ENDBRANCH  18  19
ENDBRANCH  16  18
ENDBRANCH  15  16
ENDBRANCH   9  15
ENDBRANCH   8  12
ENDBRANCH   7   8
ENDBRANCH   1   7
BRANCH   4  23
ATOM     23  C   UNL     1      51.109   8.400  12.023  0.00  0.00    +0.000 C 
BRANCH  23  24
ATOM     24  N   UNL     1      51.509   8.101  10.672  0.00  0.00    +0.000 N 
ATOM     25  C   UNL     1      52.577   8.730  10.086  0.00  0.00    +0.000 C 
ATOM     26  O   UNL     1      53.263   9.548  10.691  0.00  0.00    +0.000 OA
ATOM     27  H   UNL     1      50.829   7.630  10.082  0.00  0.00    +0.000 HD
BRANCH  25  28
ATOM     28  C   UNL     1      52.893   8.324   8.711  0.00  0.00    +0.000 A 
ATOM     29  C   UNL     1      52.858   9.262   7.689  0.00  0.00    +0.000 A 
ATOM     30  S   UNL     1      53.299   8.628   6.166  0.00  0.00    +0.000 S 
ATOM     31  C   UNL     1      53.503   7.069   6.813  0.00  0.00    +0.000 A 
ATOM     32  N   UNL     1      53.856   6.021   6.020  0.00  0.00    +0.000 NA
ATOM     33  C   UNL     1      53.947   4.891   6.635  0.00  0.00    +0.000 A 
ATOM     34  N   UNL     1      53.726   4.712   7.977  0.00  0.00    +0.000 N 
ATOM     35  C   UNL     1      53.402   5.747   8.823  0.00  0.00    +0.000 A 
ATOM     36  O   UNL     1      53.266   5.565  10.026  0.00  0.00    +0.000 OA
ATOM     37  C   UNL     1      53.264   7.036   8.175  0.00  0.00    +0.000 A 
ATOM     38  H   UNL     1      53.831   3.804   8.404  0.00  0.00    +0.000 HD
ENDBRANCH  25  28
ENDBRANCH  23  24
ENDBRANCH   4  23
TORSDOF 11
ENDMDL
MODEL 4
REMARK VINA RESULT:    -7.088      3.975     10.190
REMARK INTER + INTRA:         -12.255
REMARK INTER:                 -11.163
REMARK INTRA:                  -1.092
REMARK UNBOUND:                -0.816
REMARK  Name = 
REMARK  11 active torsions:
REMARK  status: ('A' for Active; 'I' for Inactive)
REMARK    1  A    between atoms: N_1  and  C_2
REMARK    2  A    between atoms: C_2  and  C_3
REMARK    3  A    between atoms: C_3  and  N_4
REMARK    4  A    between atoms: N_4  and  C_5
REMARK    5  A    between atoms: C_5  and  C_6
REMARK    6  A    between atoms: C_9  and  C_10
REMARK    7  A    between atoms: C_10  and  C_11
REMARK    8  A    between atoms: C_11  and  C_12
REMARK    9  A    between atoms: C_15  and  C_16
REMARK   10  A    between atoms: C_16  and  N_17
REMARK   11  A    between atoms: C_18  and  C_20
REMARK                            x       y       z     vdW  Elec       q    Type
REMARK                         _______ _______ _______ _____ _____    ______ ____
ROOT
ATOM      1  C   UNL     1      50.111   6.600  15.980  0.00  0.00    +0.000 A 
ATOM      2  C   UNL     1      50.767   7.540  15.190  0.00  0.00    +0.000 A 
ATOM      3  C   UNL     1      50.154   7.994  14.023  0.00  0.00    +0.000 A 
ATOM      4  C   UNL     1      48.902   7.497  13.664  0.00  0.00    +0.000 A 
ATOM      5  C   UNL     1      48.337   6.537  14.495  0.00  0.00    +0.000 A 
ATOM      6  N   UNL     1      48.904   6.089  15.640  0.00  0.00    +0.000 NA
ENDROOT
BRANCH   1   7
ATOM      7  C   UNL     1      50.732   6.100  17.261  0.00  0.00    +0.000 C 
BRANCH   7   8
ATOM      8  C   UNL     1      50.068   4.813  17.757  0.00  0.00    +0.000 C 
BRANCH   8  12
ATOM      9  C   UNL     1      52.773   1.435  17.715  0.00  0.00    +0.000 A 
ATOM     10  C   UNL     1      53.231   2.712  18.075  0.00  0.00    +0.000 A 
ATOM     11  C   UNL     1      52.361   3.804  18.092  0.00  0.00    +0.000 A 
ATOM     12  C   UNL     1      51.015   3.642  17.738  0.00  0.00    +0.000 A 
ATOM     13  C   UNL     1      50.562   2.376  17.355  0.00  0.00    +0.000 A 
ATOM     14  C   UNL     1      51.429   1.281  17.349  0.00  0.00    +0.000 A 
BRANCH   9  15
ATOM     15  C   UNL     1      53.713   0.251  17.705  0.00  0.00    +0.000 C 
BRANCH  15  16
ATOM     16  N   UNL     1      53.190  -0.842  18.524  0.00  0.00    +0.000 NA
ATOM     17  H   UNL     1      52.574  -0.461  19.239  0.00  0.00    +0.000 HD
BRANCH  16  18
ATOM     18  C   UNL     1      54.269  -1.598  19.162  0.00  0.00    +0.000 C 
BRANCH  18  19
ATOM     19  C   UNL     1      54.420  -2.969  18.481  0.00  0.00    +0.000 C 
BRANCH  19  20
ATOM     20  N   UNL     1      53.163  -3.715  18.471  0.00  0.00    +0.000 NA
ATOM     21  H   UNL     1      53.147  -4.345  19.272  0.00  0.00    +0.000 HD
ATOM     22  H   UNL     1      53.118  -4.305  17.642  0.00  0.00    +0.000 HD
ENDBRANCH  19  20
ENDBRANCH  18  19
ENDBRANCH  16  18
ENDBRANCH  15  16
ENDBRANCH   9  15
ENDBRANCH   8  12
ENDBRANCH   7   8
ENDBRANCH   1   7
BRANCH   4  23
ATOM     23  C   UNL     1      48.206   7.932  12.409  0.00  0.00    +0.000 C 
BRANCH  23  24
ATOM     24  N   UNL     1      47.506   6.833  11.798  0.00  0.00    +0.000 N 
ATOM     25  C   UNL     1      46.181   6.926  11.461  0.00  0.00    +0.000 C 
ATOM     26  O   UNL     1      45.536   7.956  11.632  0.00  0.00    +0.000 OA
ATOM     27  H   UNL     1      47.932   5.913  11.874  0.00  0.00    +0.000 HD
BRANCH  25  28
ATOM     28  C   UNL     1      45.588   5.742  10.827  0.00  0.00    +0.000 A 
ATOM     29  C   UNL     1      45.740   5.541   9.463  0.00  0.00    +0.000 A 
ATOM     30  S   UNL     1      45.029   4.093   8.903  0.00  0.00    +0.000 S 
ATOM     31  C   UNL     1      44.453   3.711  10.456  0.00  0.00    +0.000 A 
ATOM     32  N   UNL     1      43.717   2.587  10.676  0.00  0.00    +0.000 NA
ATOM     33  C   UNL     1      43.321   2.436  11.894  0.00  0.00    +0.000 A 
ATOM     34  N   UNL     1      43.599   3.304  12.920  0.00  0.00    +0.000 N 
ATOM     35  C   UNL     1      44.367   4.432  12.753  0.00  0.00    +0.000 A 
ATOM     36  O   UNL     1      44.645   5.156  13.699  0.00  0.00    +0.000 OA
ATOM     37  C   UNL     1      44.818   4.660  11.394  0.00  0.00    +0.000 A 
ATOM     38  H   UNL     1      43.274   3.121  13.857  0.00  0.00    +0.000 HD
ENDBRANCH  25  28
ENDBRANCH  23  24
ENDBRANCH   4  23
TORSDOF 11
ENDMDL
MODEL 5
REMARK VINA RESULT:    -6.972      2.498      4.126
REMARK INTER + INTRA:         -12.067
REMARK INTER:                 -11.093
REMARK INTRA:                  -0.974
REMARK UNBOUND:                -0.816
REMARK  Name = 
REMARK  11 active torsions:
REMARK  status: ('A' for Active; 'I' for Inactive)
REMARK    1  A    between atoms: N_1  and  C_2
REMARK    2  A    between atoms: C_2  and  C_3
REMARK    3  A    between atoms: C_3  and  N_4
REMARK    4  A    between atoms: N_4  and  C_5
REMARK    5  A    between atoms: C_5  and  C_6
REMARK    6  A    between atoms: C_9  and  C_10
REMARK    7  A    between atoms: C_10  and  C_11
REMARK    8  A    between atoms: C_11  and  C_12
REMARK    9  A    between atoms: C_15  and  C_16
REMARK   10  A    between atoms: C_16  and  N_17
REMARK   11  A    between atoms: C_18  and  C_20
REMARK                            x       y       z     vdW  Elec       q    Type
REMARK                         _______ _______ _______ _____ _____    ______ ____
ROOT
ATOM      1  C   UNL     1      45.329   6.592  12.908  0.00  0.00    +0.000 A 
ATOM      2  C   UNL     1      45.543   7.914  12.525  0.00  0.00    +0.000 A 
ATOM      3  C   UNL     1      46.845   8.411  12.495  0.00  0.00    +0.000 A 
ATOM      4  C   UNL     1      47.908   7.582  12.852  0.00  0.00    +0.000 A 
ATOM      5  C   UNL     1      47.597   6.288  13.253  0.00  0.00    +0.000 A 
ATOM      6  N   UNL     1      46.345   5.776  13.278  0.00  0.00    +0.000 NA
ENDROOT
BRANCH   1   7
ATOM      7  C   UNL     1      43.937   6.011  12.932  0.00  0.00    +0.000 C 
BRANCH   7   8
ATOM      8  C   UNL     1      43.336   5.902  11.527  0.00  0.00    +0.000 C 
BRANCH   8  12
ATOM      9  C   UNL     1      45.136   2.727   9.203  0.00  0.00    +0.000 A 
ATOM     10  C   UNL     1      44.228   2.431  10.231  0.00  0.00    +0.000 A 
ATOM     11  C   UNL     1      43.643   3.454  10.982  0.00  0.00    +0.000 A 
ATOM     12  C   UNL     1      43.965   4.793  10.725  0.00  0.00    +0.000 A 
ATOM     13  C   UNL     1      44.888   5.088   9.718  0.00  0.00    +0.000 A 
ATOM     14  C   UNL     1      45.464   4.067   8.959  0.00  0.00    +0.000 A 
BRANCH   9  15
ATOM     15  C   UNL     1      45.762   1.621   8.383  0.00  0.00    +0.000 C 
BRANCH  15  16
ATOM     16  N   UNL     1      46.882   2.125   7.588  0.00  0.00    +0.000 NA
ATOM     17  H   UNL     1      47.436   2.763   8.155  0.00  0.00    +0.000 HD
BRANCH  16  18
ATOM     18  C   UNL     1      46.417   2.818   6.386  0.00  0.00    +0.000 C 
BRANCH  18  19
ATOM     19  C   UNL     1      47.401   2.573   5.228  0.00  0.00    +0.000 C 
BRANCH  19  20
ATOM     20  N   UNL     1      48.593   1.851   5.669  0.00  0.00    +0.000 NA
ATOM     21  H   UNL     1      49.211   1.717   4.870  0.00  0.00    +0.000 HD
ATOM     22  H   UNL     1      48.333   0.919   5.989  0.00  0.00    +0.000 HD
ENDBRANCH  19  20
ENDBRANCH  18  19
ENDBRANCH  16  18
ENDBRANCH  15  16
ENDBRANCH   9  15
ENDBRANCH   8  12
ENDBRANCH   7   8
ENDBRANCH   1   7
BRANCH   4  23
ATOM     23  C   UNL     1      49.326   8.069  12.861  0.00  0.00    +0.000 C 
BRANCH  23  24
ATOM     24  N   UNL     1      50.114   7.354  13.831  0.00  0.00    +0.000 N 
ATOM     25  C   UNL     1      50.940   8.009  14.706  0.00  0.00    +0.000 C 
ATOM     26  O   UNL     1      51.022   9.234  14.731  0.00  0.00    +0.000 OA
ATOM     27  H   UNL     1      50.253   6.360  13.671  0.00  0.00    +0.000 HD
BRANCH  25  28
ATOM     28  C   UNL     1      51.675   7.167  15.657  0.00  0.00    +0.000 A 
ATOM     29  C   UNL     1      53.063   7.187  15.667  0.00  0.00    +0.000 A 
ATOM     30  S   UNL     1      53.752   6.186  16.865  0.00  0.00    +0.000 S 
ATOM     31  C   UNL     1      52.221   5.655  17.379  0.00  0.00    +0.000 A 
ATOM     32  N   UNL     1      52.094   4.741  18.380  0.00  0.00    +0.000 NA
ATOM     33  C   UNL     1      50.877   4.406  18.647  0.00  0.00    +0.000 A 
ATOM     34  N   UNL     1      49.770   4.908  18.011  0.00  0.00    +0.000 N 
ATOM     35  C   UNL     1      49.848   5.857  17.020  0.00  0.00    +0.000 A 
ATOM     36  O   UNL     1      48.839   6.327  16.510  0.00  0.00    +0.000 OA
ATOM     37  C   UNL     1      51.197   6.251  16.665  0.00  0.00    +0.000 A 
ATOM     38  H   UNL     1      48.842   4.618  18.278  0.00  0.00    +0.000 HD
ENDBRANCH  25  28
ENDBRANCH  23  24
ENDBRANCH   4  23
TORSDOF 11
ENDMDL
MODEL 6
REMARK VINA RESULT:    -6.923      3.270      4.491
REMARK INTER + INTRA:         -11.988
REMARK INTER:                 -10.678
REMARK INTRA:                  -1.311
REMARK UNBOUND:                -0.816
REMARK  Name = 
REMARK  11 active torsions:
REMARK  status: ('A' for Active; 'I' for Inactive)
REMARK    1  A    between atoms: N_1  and  C_2
REMARK    2  A    between atoms: C_2  and  C_3
REMARK    3  A    between atoms: C_3  and  N_4
REMARK    4  A    between atoms: N_4  and  C_5
REMARK    5  A    between atoms: C_5  and  C_6
REMARK    6  A    between atoms: C_9  and  C_10
REMARK    7  A    between atoms: C_10  and  C_11
REMARK    8  A    between atoms: C_11  and  C_12
REMARK    9  A    between atoms: C_15  and  C_16
REMARK   10  A    between atoms: C_16  and  N_17
REMARK   11  A    between atoms: C_18  and  C_20
REMARK                            x       y       z     vdW  Elec       q    Type
REMARK                         _______ _______ _______ _____ _____    ______ ____
ROOT
ATOM      1  C   UNL     1      46.819   7.763  12.268  0.00  0.00    +0.000 A 
ATOM      2  C   UNL     1      47.973   7.318  11.627  0.00  0.00    +0.000 A 
ATOM      3  C   UNL     1      49.191   7.377  12.303  0.00  0.00    +0.000 A 
ATOM      4  C   UNL     1      49.236   7.884  13.601  0.00  0.00    +0.000 A 
ATOM      5  C   UNL     1      48.041   8.337  14.148  0.00  0.00    +0.000 A 
ATOM      6  N   UNL     1      46.844   8.277  13.520  0.00  0.00    +0.000 NA
ENDROOT
BRANCH   1   7
ATOM      7  C   UNL     1      45.479   7.694  11.578  0.00  0.00    +0.000 C 
BRANCH   7   8
ATOM      8  C   UNL     1      44.687   6.449  11.985  0.00  0.00    +0.000 C 
BRANCH   8  12
ATOM      9  C   UNL     1      45.019   3.287   9.049  0.00  0.00    +0.000 A 
ATOM     10  C   UNL     1      44.308   3.082  10.241  0.00  0.00    +0.000 A 
ATOM     11  C   UNL     1      44.197   4.101  11.190  0.00  0.00    +0.000 A 
ATOM     12  C   UNL     1      44.805   5.343  10.969  0.00  0.00    +0.000 A 
ATOM     13  C   UNL     1      45.535   5.542   9.793  0.00  0.00    +0.000 A 
ATOM     14  C   UNL     1      45.637   4.527   8.839  0.00  0.00    +0.000 A 
BRANCH   9  15
ATOM     15  C   UNL     1      45.132   2.188   8.017  0.00  0.00    +0.000 C 
BRANCH  15  16
ATOM     16  N   UNL     1      46.069   1.153   8.451  0.00  0.00    +0.000 NA
ATOM     17  H   UNL     1      46.605   1.497   9.245  0.00  0.00    +0.000 HD
BRANCH  16  18
ATOM     18  C   UNL     1      46.982   0.769   7.374  0.00  0.00    +0.000 C 
BRANCH  18  19
ATOM     19  C   UNL     1      47.858   1.971   6.978  0.00  0.00    +0.000 C 
BRANCH  19  20
ATOM     20  N   UNL     1      48.375   1.844   5.617  0.00  0.00    +0.000 NA
ATOM     21  H   UNL     1      47.785   1.194   5.099  0.00  0.00    +0.000 HD
ATOM     22  H   UNL     1      49.306   1.432   5.638  0.00  0.00    +0.000 HD
ENDBRANCH  19  20
ENDBRANCH  18  19
ENDBRANCH  16  18
ENDBRANCH  15  16
ENDBRANCH   9  15
ENDBRANCH   8  12
ENDBRANCH   7   8
ENDBRANCH   1   7
BRANCH   4  23
ATOM     23  C   UNL     1      50.521   7.994  14.366  0.00  0.00    +0.000 C 
BRANCH  23  24
ATOM     24  N   UNL     1      50.438   7.292  15.620  0.00  0.00    +0.000 N 
ATOM     25  C   UNL     1      50.260   7.960  16.804  0.00  0.00    +0.000 C 
ATOM     26  O   UNL     1      50.128   9.179  16.851  0.00  0.00    +0.000 OA
ATOM     27  H   UNL     1      50.785   6.337  15.640  0.00  0.00    +0.000 HD
BRANCH  25  28
ATOM     28  C   UNL     1      50.173   7.128  18.011  0.00  0.00    +0.000 A 
ATOM     29  C   UNL     1      50.834   7.519  19.167  0.00  0.00    +0.000 A 
ATOM     30  S   UNL     1      50.587   6.462  20.484  0.00  0.00    +0.000 S 
ATOM     31  C   UNL     1      49.630   5.421  19.541  0.00  0.00    +0.000 A 
ATOM     32  N   UNL     1      49.110   4.277  20.064  0.00  0.00    +0.000 NA
ATOM     33  C   UNL     1      48.428   3.568  19.230  0.00  0.00    +0.000 A 
ATOM     34  N   UNL     1      48.209   3.902  17.917  0.00  0.00    +0.000 N 
ATOM     35  C   UNL     1      48.684   5.063  17.354  0.00  0.00    +0.000 A 
ATOM     36  O   UNL     1      48.424   5.360  16.196  0.00  0.00    +0.000 OA
ATOM     37  C   UNL     1      49.478   5.885  18.246  0.00  0.00    +0.000 A 
ATOM     38  H   UNL     1      47.651   3.313  17.318  0.00  0.00    +0.000 HD
ENDBRANCH  25  28
ENDBRANCH  23  24
ENDBRANCH   4  23
TORSDOF 11
ENDMDL
MODEL 7
REMARK VINA RESULT:    -6.896      5.807      7.048
REMARK INTER + INTRA:         -11.944
REMARK INTER:                 -10.358
REMARK INTRA:                  -1.586
REMARK UNBOUND:                -0.816
REMARK  Name = 
REMARK  11 active torsions:
REMARK  status: ('A' for Active; 'I' for Inactive)
REMARK    1  A    between atoms: N_1  and  C_2
REMARK    2  A    between atoms: C_2  and  C_3
REMARK    3  A    between atoms: C_3  and  N_4
REMARK    4  A    between atoms: N_4  and  C_5
REMARK    5  A    between atoms: C_5  and  C_6
REMARK    6  A    between atoms: C_9  and  C_10
REMARK    7  A    between atoms: C_10  and  C_11
REMARK    8  A    between atoms: C_11  and  C_12
REMARK    9  A    between atoms: C_15  and  C_16
REMARK   10  A    between atoms: C_16  and  N_17
REMARK   11  A    between atoms: C_18  and  C_20
REMARK                            x       y       z     vdW  Elec       q    Type
REMARK                         _______ _______ _______ _____ _____    ______ ____
ROOT
ATOM      1  C   UNL     1      46.327   7.326  13.075  0.00  0.00    +0.000 A 
ATOM      2  C   UNL     1      45.883   8.431  12.352  0.00  0.00    +0.000 A 
ATOM      3  C   UNL     1      46.721   9.536  12.216  0.00  0.00    +0.000 A 
ATOM      4  C   UNL     1      47.984   9.522  12.808  0.00  0.00    +0.000 A 
ATOM      5  C   UNL     1      48.329   8.391  13.539  0.00  0.00    +0.000 A 
ATOM      6  N   UNL     1      47.541   7.299  13.675  0.00  0.00    +0.000 NA
ENDROOT
BRANCH   1   7
ATOM      7  C   UNL     1      45.458   6.103  13.226  0.00  0.00    +0.000 C 
BRANCH   7   8
ATOM      8  C   UNL     1      44.318   6.079  12.204  0.00  0.00    +0.000 C 
BRANCH   8  12
ATOM      9  C   UNL     1      45.058   3.292   8.976  0.00  0.00    +0.000 A 
ATOM     10  C   UNL     1      44.231   2.934  10.053  0.00  0.00    +0.000 A 
ATOM     11  C   UNL     1      43.988   3.832  11.095  0.00  0.00    +0.000 A 
ATOM     12  C   UNL     1      44.578   5.103  11.086  0.00  0.00    +0.000 A 
ATOM     13  C   UNL     1      45.421   5.452  10.027  0.00  0.00    +0.000 A 
ATOM     14  C   UNL     1      45.655   4.559   8.979  0.00  0.00    +0.000 A 
BRANCH   9  15
ATOM     15  C   UNL     1      45.314   2.325   7.843  0.00  0.00    +0.000 C 
BRANCH  15  16
ATOM     16  N   UNL     1      46.041   1.146   8.312  0.00  0.00    +0.000 NA
ATOM     17  H   UNL     1      46.359   1.305   9.265  0.00  0.00    +0.000 HD
BRANCH  16  18
ATOM     18  C   UNL     1      47.191   0.850   7.456  0.00  0.00    +0.000 C 
BRANCH  18  19
ATOM     19  C   UNL     1      47.790   2.159   6.913  0.00  0.00    +0.000 C 
BRANCH  19  20
ATOM     20  N   UNL     1      48.539   1.944   5.677  0.00  0.00    +0.000 NA
ATOM     21  H   UNL     1      49.187   2.719   5.545  0.00  0.00    +0.000 HD
ATOM     22  H   UNL     1      47.903   1.964   4.880  0.00  0.00    +0.000 HD
ENDBRANCH  19  20
ENDBRANCH  18  19
ENDBRANCH  16  18
ENDBRANCH  15  16
ENDBRANCH   9  15
ENDBRANCH   8  12
ENDBRANCH   7   8
ENDBRANCH   1   7
BRANCH   4  23
ATOM     23  C   UNL     1      48.917  10.691  12.715  0.00  0.00    +0.000 C 
BRANCH  23  24
ATOM     24  N   UNL     1      50.163  10.311  12.101  0.00  0.00    +0.000 N 
ATOM     25  C   UNL     1      50.458  10.656  10.808  0.00  0.00    +0.000 C 
ATOM     26  O   UNL     1      49.696  11.331  10.123  0.00  0.00    +0.000 OA
ATOM     27  H   UNL     1      50.687   9.562  12.544  0.00  0.00    +0.000 HD
BRANCH  25  28
ATOM     28  C   UNL     1      51.768  10.224  10.305  0.00  0.00    +0.000 A 
ATOM     29  C   UNL     1      52.664  11.165   9.816  0.00  0.00    +0.000 A 
ATOM     30  S   UNL     1      54.153  10.495   9.318  0.00  0.00    +0.000 S 
ATOM     31  C   UNL     1      53.632   8.920   9.692  0.00  0.00    +0.000 A 
ATOM     32  N   UNL     1      54.434   7.843   9.471  0.00  0.00    +0.000 NA
ATOM     33  C   UNL     1      53.902   6.708   9.773  0.00  0.00    +0.000 A 
ATOM     34  N   UNL     1      52.640   6.548  10.285  0.00  0.00    +0.000 N 
ATOM     35  C   UNL     1      51.807   7.607  10.557  0.00  0.00    +0.000 A 
ATOM     36  O   UNL     1      50.708   7.436  11.067  0.00  0.00    +0.000 OA
ATOM     37  C   UNL     1      52.351   8.907  10.213  0.00  0.00    +0.000 A 
ATOM     38  H   UNL     1      52.286   5.633  10.518  0.00  0.00    +0.000 HD
ENDBRANCH  25  28
ENDBRANCH  23  24
ENDBRANCH   4  23
TORSDOF 11
ENDMDL
MODEL 8
REMARK VINA RESULT:    -6.847      3.396      4.613
REMARK INTER + INTRA:         -11.866
REMARK INTER:                 -11.235
REMARK INTRA:                  -0.631
REMARK UNBOUND:                -0.816
REMARK  Name = 
REMARK  11 active torsions:
REMARK  status: ('A' for Active; 'I' for Inactive)
REMARK    1  A    between atoms: N_1  and  C_2
REMARK    2  A    between atoms: C_2  and  C_3
REMARK    3  A    between atoms: C_3  and  N_4
REMARK    4  A    between atoms: N_4  and  C_5
REMARK    5  A    between atoms: C_5  and  C_6
REMARK    6  A    between atoms: C_9  and  C_10
REMARK    7  A    between atoms: C_10  and  C_11
REMARK    8  A    between atoms: C_11  and  C_12
REMARK    9  A    between atoms: C_15  and  C_16
REMARK   10  A    between atoms: C_16  and  N_17
REMARK   11  A    between atoms: C_18  and  C_20
REMARK                            x       y       z     vdW  Elec       q    Type
REMARK                         _______ _______ _______ _____ _____    ______ ____
ROOT
ATOM      1  C   UNL     1      44.617   5.241  13.018  0.00  0.00    +0.000 A 
ATOM      2  C   UNL     1      44.994   6.544  12.698  0.00  0.00    +0.000 A 
ATOM      3  C   UNL     1      46.261   6.994  13.065  0.00  0.00    +0.000 A 
ATOM      4  C   UNL     1      47.126   6.139  13.749  0.00  0.00    +0.000 A 
ATOM      5  C   UNL     1      46.652   4.869  14.055  0.00  0.00    +0.000 A 
ATOM      6  N   UNL     1      45.433   4.402  13.699  0.00  0.00    +0.000 NA
ENDROOT
BRANCH   1   7
ATOM      7  C   UNL     1      43.263   4.710  12.619  0.00  0.00    +0.000 C 
BRANCH   7   8
ATOM      8  C   UNL     1      43.353   3.309  12.008  0.00  0.00    +0.000 C 
BRANCH   8  12
ATOM      9  C   UNL     1      45.313   3.321   8.149  0.00  0.00    +0.000 A 
ATOM     10  C   UNL     1      45.032   4.527   8.811  0.00  0.00    +0.000 A 
ATOM     11  C   UNL     1      44.402   4.526  10.057  0.00  0.00    +0.000 A 
ATOM     12  C   UNL     1      44.030   3.319  10.662  0.00  0.00    +0.000 A 
ATOM     13  C   UNL     1      44.287   2.118   9.994  0.00  0.00    +0.000 A 
ATOM     14  C   UNL     1      44.927   2.117   8.753  0.00  0.00    +0.000 A 
BRANCH   9  15
ATOM     15  C   UNL     1      46.004   3.320   6.805  0.00  0.00    +0.000 C 
BRANCH  15  16
ATOM     16  N   UNL     1      47.457   3.378   6.960  0.00  0.00    +0.000 NA
ATOM     17  H   UNL     1      47.804   4.241   6.548  0.00  0.00    +0.000 HD
BRANCH  16  18
ATOM     18  C   UNL     1      48.112   2.235   6.323  0.00  0.00    +0.000 C 
BRANCH  18  19
ATOM     19  C   UNL     1      47.240   0.977   6.482  0.00  0.00    +0.000 C 
BRANCH  19  20
ATOM     20  N   UNL     1      47.562   0.241   7.703  0.00  0.00    +0.000 NA
ATOM     21  H   UNL     1      46.871  -0.496   7.836  0.00  0.00    +0.000 HD
ATOM     22  H   UNL     1      47.481   0.858   8.510  0.00  0.00    +0.000 HD
ENDBRANCH  19  20
ENDBRANCH  18  19
ENDBRANCH  16  18
ENDBRANCH  15  16
ENDBRANCH   9  15
ENDBRANCH   8  12
ENDBRANCH   7   8
ENDBRANCH   1   7
BRANCH   4  23
ATOM     23  C   UNL     1      48.490   6.577  14.189  0.00  0.00    +0.000 C 
BRANCH  23  24
ATOM     24  N   UNL     1      48.623   6.498  15.620  0.00  0.00    +0.000 N 
ATOM     25  C   UNL     1      49.827   6.712  16.240  0.00  0.00    +0.000 C 
ATOM     26  O   UNL     1      50.838   7.014  15.613  0.00  0.00    +0.000 OA
ATOM     27  H   UNL     1      47.886   6.018  16.127  0.00  0.00    +0.000 HD
BRANCH  25  28
ATOM     28  C   UNL     1      49.827   6.621  17.705  0.00  0.00    +0.000 A 
ATOM     29  C   UNL     1      50.587   5.646  18.336  0.00  0.00    +0.000 A 
ATOM     30  S   UNL     1      50.507   5.715  20.040  0.00  0.00    +0.000 S 
ATOM     31  C   UNL     1      49.415   7.017  19.990  0.00  0.00    +0.000 A 
ATOM     32  N   UNL     1      48.911   7.555  21.135  0.00  0.00    +0.000 NA
ATOM     33  C   UNL     1      48.072   8.517  20.950  0.00  0.00    +0.000 A 
ATOM     34  N   UNL     1      47.695   9.000  19.723  0.00  0.00    +0.000 N 
ATOM     35  C   UNL     1      48.204   8.512  18.542  0.00  0.00    +0.000 A 
ATOM     36  O   UNL     1      47.890   9.002  17.466  0.00  0.00    +0.000 OA
ATOM     37  C   UNL     1      49.135   7.412  18.695  0.00  0.00    +0.000 A 
ATOM     38  H   UNL     1      47.046   9.768  19.644  0.00  0.00    +0.000 HD
ENDBRANCH  25  28
ENDBRANCH  23  24
ENDBRANCH   4  23
TORSDOF 11
ENDMDL
MODEL 9
REMARK VINA RESULT:    -6.371      4.085      9.503
REMARK INTER + INTRA:         -11.097
REMARK INTER:                 -10.213
REMARK INTRA:                  -0.884
REMARK UNBOUND:                -0.816
REMARK  Name = 
REMARK  11 active torsions:
REMARK  status: ('A' for Active; 'I' for Inactive)
REMARK    1  A    between atoms: N_1  and  C_2
REMARK    2  A    between atoms: C_2  and  C_3
REMARK    3  A    between atoms: C_3  and  N_4
REMARK    4  A    between atoms: N_4  and  C_5
REMARK    5  A    between atoms: C_5  and  C_6
REMARK    6  A    between atoms: C_9  and  C_10
REMARK    7  A    between atoms: C_10  and  C_11
REMARK    8  A    between atoms: C_11  and  C_12
REMARK    9  A    between atoms: C_15  and  C_16
REMARK   10  A    between atoms: C_16  and  N_17
REMARK   11  A    between atoms: C_18  and  C_20
REMARK                            x       y       z     vdW  Elec       q    Type
REMARK                         _______ _______ _______ _____ _____    ______ ____
ROOT
ATOM      1  C   UNL     1      49.657   8.478  13.325  0.00  0.00    +0.000 A 
ATOM      2  C   UNL     1      49.394   7.553  12.317  0.00  0.00    +0.000 A 
ATOM      3  C   UNL     1      48.115   7.496  11.764  0.00  0.00    +0.000 A 
ATOM      4  C   UNL     1      47.123   8.358  12.230  0.00  0.00    +0.000 A 
ATOM      5  C   UNL     1      47.467   9.225  13.261  0.00  0.00    +0.000 A 
ATOM      6  N   UNL     1      48.703   9.310  13.805  0.00  0.00    +0.000 NA
ENDROOT
BRANCH   1   7
ATOM      7  C   UNL     1      51.034   8.585  13.933  0.00  0.00    +0.000 C 
BRANCH   7   8
ATOM      8  C   UNL     1      50.976   8.860  15.438  0.00  0.00    +0.000 C 
BRANCH   8  12
ATOM      9  C   UNL     1      49.720   5.392  17.703  0.00  0.00    +0.000 A 
ATOM     10  C   UNL     1      51.019   5.469  17.176  0.00  0.00    +0.000 A 
ATOM     11  C   UNL     1      51.429   6.587  16.448  0.00  0.00    +0.000 A 
ATOM     12  C   UNL     1      50.542   7.648  16.220  0.00  0.00    +0.000 A 
ATOM     13  C   UNL     1      49.240   7.563  16.722  0.00  0.00    +0.000 A 
ATOM     14  C   UNL     1      48.833   6.450  17.461  0.00  0.00    +0.000 A 
BRANCH   9  15
ATOM     15  C   UNL     1      49.279   4.186  18.500  0.00  0.00    +0.000 C 
BRANCH  15  16
ATOM     16  N   UNL     1      47.844   3.948  18.344  0.00  0.00    +0.000 NA
ATOM     17  H   UNL     1      47.399   3.968  19.259  0.00  0.00    +0.000 HD
BRANCH  16  18
ATOM     18  C   UNL     1      47.581   2.660  17.701  0.00  0.00    +0.000 C 
BRANCH  18  19
ATOM     19  C   UNL     1      48.150   2.664  16.271  0.00  0.00    +0.000 C 
BRANCH  19  20
ATOM     20  N   UNL     1      49.290   1.760  16.135  0.00  0.00    +0.000 NA
ATOM     21  H   UNL     1      49.676   1.575  17.060  0.00  0.00    +0.000 HD
ATOM     22  H   UNL     1      50.029   2.215  15.602  0.00  0.00    +0.000 HD
ENDBRANCH  19  20
ENDBRANCH  18  19
ENDBRANCH  16  18
ENDBRANCH  15  16
ENDBRANCH   9  15
ENDBRANCH   8  12
ENDBRANCH   7   8
ENDBRANCH   1   7
BRANCH   4  23
ATOM     23  C   UNL     1      45.726   8.325  11.688  0.00  0.00    +0.000 C 
BRANCH  23  24
ATOM     24  N   UNL     1      45.355   6.992  11.292  0.00  0.00    +0.000 N 
ATOM     25  C   UNL     1      44.845   6.093  12.192  0.00  0.00    +0.000 C 
ATOM     26  O   UNL     1      44.648   6.388  13.367  0.00  0.00    +0.000 OA
ATOM     27  H   UNL     1      45.730   6.650  10.412  0.00  0.00    +0.000 HD
BRANCH  25  28
ATOM     28  C   UNL     1      44.490   4.772  11.659  0.00  0.00    +0.000 A 
ATOM     29  C   UNL     1      43.741   3.895  12.430  0.00  0.00    +0.000 A 
ATOM     30  S   UNL     1      43.379   2.427  11.638  0.00  0.00    +0.000 S 
ATOM     31  C   UNL     1      44.252   2.895  10.256  0.00  0.00    +0.000 A 
ATOM     32  N   UNL     1      44.371   2.063   9.185  0.00  0.00    +0.000 NA
ATOM     33  C   UNL     1      45.084   2.532   8.219  0.00  0.00    +0.000 A 
ATOM     34  N   UNL     1      45.685   3.765   8.219  0.00  0.00    +0.000 N 
ATOM     35  C   UNL     1      45.565   4.653   9.262  0.00  0.00    +0.000 A 
ATOM     36  O   UNL     1      46.067   5.767   9.209  0.00  0.00    +0.000 OA
ATOM     37  C   UNL     1      44.791   4.162  10.386  0.00  0.00    +0.000 A 
ATOM     38  H   UNL     1      46.218   4.084   7.424  0.00  0.00    +0.000 HD
ENDBRANCH  25  28
ENDBRANCH  23  24
ENDBRANCH   4  23
TORSDOF 11
ENDMDL
