MODEL 1
REMARK VINA RESULT:    -7.409      0.000      0.000
REMARK INTER + INTRA:         -11.892
REMARK INTER:                 -10.874
REMARK INTRA:                  -1.018
REMARK UNBOUND:                -1.018
REMARK  Name = 
REMARK  8 active torsions:
REMARK  status: ('A' for Active; 'I' for Inactive)
REMARK    1  A    between atoms: C_2  and  C_20
REMARK    2  A    between atoms: N_3  and  C_4
REMARK    3  A    between atoms: C_4  and  C_5
REMARK    4  A    between atoms: C_8  and  C_9
REMARK    5  A    between atoms: C_9  and  C_10
REMARK    6  A    between atoms: C_10  and  N_11
REMARK    7  A    between atoms: N_11  and  C_12
REMARK    8  A    between atoms: C_12  and  C_13
REMARK                            x       y       z     vdW  Elec       q    Type
REMARK                         _______ _______ _______ _____ _____    ______ ____
ROOT
ATOM      1  C   UNL     1      48.244   6.824  13.539  0.00  0.00    +0.000 C 
ENDROOT
BRANCH   1   2
ATOM      2  C   UNL     1      47.117   6.173  12.783  0.00  0.00    +0.000 A 
ATOM      3  C   UNL     1      46.742   6.649  11.520  0.00  0.00    +0.000 A 
ATOM      4  C   UNL     1      45.723   6.025  10.798  0.00  0.00    +0.000 A 
ATOM      5  C   UNL     1      45.051   4.918  11.329  0.00  0.00    +0.000 A 
ATOM      6  C   UNL     1      45.401   4.463  12.607  0.00  0.00    +0.000 A 
ATOM      7  C   UNL     1      46.420   5.089  13.330  0.00  0.00    +0.000 A 
BRANCH   5   8
ATOM      8  C   UNL     1      43.974   4.219  10.530  0.00  0.00    +0.000 C 
BRANCH   8   9
ATOM      9  C   UNL     1      44.274   2.734  10.240  0.00  0.00    +0.000 C 
BRANCH   9  10
ATOM     10  N   UNL     1      44.087   2.307   8.846  0.00  0.00    +0.000 NA
ATOM     11  H   UNL     1      43.091   2.359   8.621  0.00  0.00    +0.000 HD
BRANCH  10  12
ATOM     12  C   UNL     1      44.844   3.133   7.904  0.00  0.00    +0.000 C 
BRANCH  12  13
ATOM     13  C   UNL     1      46.351   2.871   8.025  0.00  0.00    +0.000 C 
ATOM     14  C   UNL     1      47.179   3.542   6.948  0.00  0.00    +0.000 C 
ATOM     15  C   UNL     1      47.140   2.544   5.811  0.00  0.00    +0.000 C 
ATOM     16  O   UNL     1      46.982   1.245   6.396  0.00  0.00    +0.000 OA
ATOM     17  C   UNL     1      46.655   1.398   7.783  0.00  0.00    +0.000 C 
ENDBRANCH  12  13
ENDBRANCH  10  12
ENDBRANCH   9  10
ENDBRANCH   8   9
ENDBRANCH   5   8
ENDBRANCH   1   2
BRANCH   1  20
ATOM     18  O   UNL     1      50.279   6.686  15.388  0.00  0.00    +0.000 OA
ATOM     19  C   UNL     1      49.127   6.777  15.806  0.00  0.00    +0.000 C 
ATOM     20  N   UNL     1      48.044   6.762  14.963  0.00  0.00    +0.000 N 
ATOM     21  H   UNL     1      47.133   7.036  15.315  0.00  0.00    +0.000 HD
BRANCH  19  22
ATOM     22  C   UNL     1      48.848   6.878  17.242  0.00  0.00    +0.000 A 
ATOM     23  C   UNL     1      48.388   8.076  17.771  0.00  0.00    +0.000 A 
ATOM     24  S   UNL     1      48.084   8.010  19.447  0.00  0.00    +0.000 S 
ATOM     25  C   UNL     1      48.515   6.365  19.516  0.00  0.00    +0.000 A 
ATOM     26  N   UNL     1      48.427   5.666  20.679  0.00  0.00    +0.000 NA
ATOM     27  C   UNL     1      48.750   4.421  20.580  0.00  0.00    +0.000 A 
ATOM     28  N   UNL     1      49.172   3.813  19.422  0.00  0.00    +0.000 N 
ATOM     29  C   UNL     1      49.316   4.486  18.235  0.00  0.00    +0.000 A 
ATOM     30  O   UNL     1      49.761   3.930  17.238  0.00  0.00    +0.000 OA
ATOM     31  C   UNL     1      48.926   5.883  18.285  0.00  0.00    +0.000 A 
ATOM     32  H   UNL     1      49.434   2.838  19.420  0.00  0.00    +0.000 HD
ENDBRANCH  19  22
ENDBRANCH   1  20
TORSDOF 8
ENDMDL
MODEL 2
REMARK VINA RESULT:    -7.060      4.339      9.718
REMARK INTER + INTRA:         -11.380
REMARK INTER:                 -10.110
REMARK INTRA:                  -1.270
REMARK UNBOUND:                -1.018
REMARK  Name = 
REMARK  8 active torsions:
REMARK  status: ('A' for Active; 'I' for Inactive)
REMARK    1  A    between atoms: C_2  and  C_20
REMARK    2  A    between atoms: N_3  and  C_4
REMARK    3  A    between atoms: C_4  and  C_5
REMARK    4  A    between atoms: C_8  and  C_9
REMARK    5  A    between atoms: C_9  and  C_10
REMARK    6  A    between atoms: C_10  and  N_11
REMARK    7  A    between atoms: N_11  and  C_12
REMARK    8  A    between atoms: C_12  and  C_13
REMARK                            x       y       z     vdW  Elec       q    Type
REMARK                         _______ _______ _______ _____ _____    ______ ____
ROOT
ATOM      1  C   UNL     1      47.192   3.466  16.700  0.00  0.00    +0.000 C 
ENDROOT
BRANCH   1   2
ATOM      2  C   UNL     1      48.662   3.543  17.011  0.00  0.00    +0.000 A 
ATOM      3  C   UNL     1      49.264   4.776  17.290  0.00  0.00    +0.000 A 
ATOM      4  C   UNL     1      50.620   4.849  17.618  0.00  0.00    +0.000 A 
ATOM      5  C   UNL     1      51.403   3.690  17.662  0.00  0.00    +0.000 A 
ATOM      6  C   UNL     1      50.810   2.460  17.348  0.00  0.00    +0.000 A 
ATOM      7  C   UNL     1      49.454   2.388  17.020  0.00  0.00    +0.000 A 
BRANCH   5   8
ATOM      8  C   UNL     1      52.861   3.766  18.055  0.00  0.00    +0.000 C 
BRANCH   8   9
ATOM      9  C   UNL     1      53.122   3.486  19.550  0.00  0.00    +0.000 C 
BRANCH   9  10
ATOM     10  N   UNL     1      54.117   2.443  19.838  0.00  0.00    +0.000 NA
ATOM     11  H   UNL     1      53.664   1.531  19.757  0.00  0.00    +0.000 HD
BRANCH  10  12
ATOM     12  C   UNL     1      55.264   2.501  18.930  0.00  0.00    +0.000 C 
BRANCH  12  13
ATOM     13  C   UNL     1      55.652   1.101  18.437  0.00  0.00    +0.000 C 
ATOM     14  C   UNL     1      55.170   0.790  17.034  0.00  0.00    +0.000 C 
ATOM     15  C   UNL     1      53.765   0.276  17.258  0.00  0.00    +0.000 C 
ATOM     16  O   UNL     1      53.736  -0.316  18.563  0.00  0.00    +0.000 OA
ATOM     17  C   UNL     1      54.940   0.034  19.257  0.00  0.00    +0.000 C 
ENDBRANCH  12  13
ENDBRANCH  10  12
ENDBRANCH   9  10
ENDBRANCH   8   9
ENDBRANCH   5   8
ENDBRANCH   1   2
BRANCH   1  20
ATOM     18  O   UNL     1      47.221   3.214  13.959  0.00  0.00    +0.000 OA
ATOM     19  C   UNL     1      46.755   4.246  14.436  0.00  0.00    +0.000 C 
ATOM     20  N   UNL     1      46.780   4.497  15.785  0.00  0.00    +0.000 N 
ATOM     21  H   UNL     1      46.217   5.253  16.162  0.00  0.00    +0.000 HD
BRANCH  19  22
ATOM     22  C   UNL     1      46.170   5.281  13.579  0.00  0.00    +0.000 A 
ATOM     23  C   UNL     1      46.905   6.419  13.274  0.00  0.00    +0.000 A 
ATOM     24  S   UNL     1      46.088   7.503  12.242  0.00  0.00    +0.000 S 
ATOM     25  C   UNL     1      44.741   6.468  12.131  0.00  0.00    +0.000 A 
ATOM     26  N   UNL     1      43.679   6.784  11.343  0.00  0.00    +0.000 NA
ATOM     27  C   UNL     1      42.745   5.894  11.325  0.00  0.00    +0.000 A 
ATOM     28  N   UNL     1      42.768   4.722  12.041  0.00  0.00    +0.000 N 
ATOM     29  C   UNL     1      43.798   4.380  12.881  0.00  0.00    +0.000 A 
ATOM     30  O   UNL     1      43.756   3.359  13.557  0.00  0.00    +0.000 OA
ATOM     31  C   UNL     1      44.895   5.331  12.906  0.00  0.00    +0.000 A 
ATOM     32  H   UNL     1      41.990   4.079  12.001  0.00  0.00    +0.000 HD
ENDBRANCH  19  22
ENDBRANCH   1  20
TORSDOF 8
ENDMDL
MODEL 3
REMARK VINA RESULT:    -6.723      2.912      4.028
REMARK INTER + INTRA:         -10.885
REMARK INTER:                  -9.850
REMARK INTRA:                  -1.035
REMARK UNBOUND:                -1.018
REMARK  Name = 
REMARK  8 active torsions:
REMARK  status: ('A' for Active; 'I' for Inactive)
REMARK    1  A    between atoms: C_2  and  C_20
REMARK    2  A    between atoms: N_3  and  C_4
REMARK    3  A    between atoms: C_4  and  C_5
REMARK    4  A    between atoms: C_8  and  C_9
REMARK    5  A    between atoms: C_9  and  C_10
REMARK    6  A    between atoms: C_10  and  N_11
REMARK    7  A    between atoms: N_11  and  C_12
REMARK    8  A    between atoms: C_12  and  C_13
REMARK                            x       y       z     vdW  Elec       q    Type
REMARK                         _______ _______ _______ _____ _____    ______ ____
ROOT
ATOM      1  C   UNL     1      47.892   4.535  16.697  0.00  0.00    +0.000 C 
ENDROOT
BRANCH   1   2
ATOM      2  C   UNL     1      47.560   4.970  15.295  0.00  0.00    +0.000 A 
ATOM      3  C   UNL     1      46.639   4.247  14.528  0.00  0.00    +0.000 A 
ATOM      4  C   UNL     1      46.298   4.668  13.241  0.00  0.00    +0.000 A 
ATOM      5  C   UNL     1      46.881   5.816  12.691  0.00  0.00    +0.000 A 
ATOM      6  C   UNL     1      47.829   6.520  13.445  0.00  0.00    +0.000 A 
ATOM      7  C   UNL     1      48.170   6.098  14.732  0.00  0.00    +0.000 A 
BRANCH   5   8
ATOM      8  C   UNL     1      46.482   6.293  11.313  0.00  0.00    +0.000 C 
BRANCH   8   9
ATOM      9  C   UNL     1      45.016   5.986  10.944  0.00  0.00    +0.000 C 
BRANCH   9  10
ATOM     10  N   UNL     1      44.824   5.098   9.787  0.00  0.00    +0.000 NA
ATOM     11  H   UNL     1      45.501   5.353   9.066  0.00  0.00    +0.000 HD
BRANCH  10  12
ATOM     12  C   UNL     1      44.989   3.686  10.136  0.00  0.00    +0.000 C 
BRANCH  12  13
ATOM     13  C   UNL     1      44.599   2.777   8.963  0.00  0.00    +0.000 C 
ATOM     14  C   UNL     1      45.625   1.707   8.649  0.00  0.00    +0.000 C 
ATOM     15  C   UNL     1      46.591   2.415   7.725  0.00  0.00    +0.000 C 
ATOM     16  O   UNL     1      45.849   3.430   7.037  0.00  0.00    +0.000 OA
ATOM     17  C   UNL     1      44.568   3.572   7.664  0.00  0.00    +0.000 C 
ENDBRANCH  12  13
ENDBRANCH  10  12
ENDBRANCH   9  10
ENDBRANCH   8   9
ENDBRANCH   5   8
ENDBRANCH   1   2
BRANCH   1  20
ATOM     18  O   UNL     1      49.252   4.895  19.063  0.00  0.00    +0.000 OA
ATOM     19  C   UNL     1      49.871   4.428  18.110  0.00  0.00    +0.000 C 
ATOM     20  N   UNL     1      49.301   4.296  16.868  0.00  0.00    +0.000 N 
ATOM     21  H   UNL     1      49.764   3.731  16.163  0.00  0.00    +0.000 HD
BRANCH  19  22
ATOM     22  C   UNL     1      51.270   4.011  18.244  0.00  0.00    +0.000 A 
ATOM     23  C   UNL     1      52.188   4.862  18.845  0.00  0.00    +0.000 A 
ATOM     24  S   UNL     1      53.759   4.209  18.948  0.00  0.00    +0.000 S 
ATOM     25  C   UNL     1      53.258   2.748  18.233  0.00  0.00    +0.000 A 
ATOM     26  N   UNL     1      54.126   1.714  18.070  0.00  0.00    +0.000 NA
ATOM     27  C   UNL     1      53.603   0.655  17.549  0.00  0.00    +0.000 A 
ATOM     28  N   UNL     1      52.292   0.544  17.156  0.00  0.00    +0.000 N 
ATOM     29  C   UNL     1      51.390   1.572  17.262  0.00  0.00    +0.000 A 
ATOM     30  O   UNL     1      50.245   1.462  16.839  0.00  0.00    +0.000 OA
ATOM     31  C   UNL     1      51.918   2.774  17.881  0.00  0.00    +0.000 A 
ATOM     32  H   UNL     1      51.953  -0.307  16.730  0.00  0.00    +0.000 HD
ENDBRANCH  19  22
ENDBRANCH   1  20
TORSDOF 8
ENDMDL
MODEL 4
REMARK VINA RESULT:    -6.706      3.361      4.944
REMARK INTER + INTRA:         -10.859
REMARK INTER:                  -9.363
REMARK INTRA:                  -1.496
REMARK UNBOUND:                -1.018
REMARK  Name = 
REMARK  8 active torsions:
REMARK  status: ('A' for Active; 'I' for Inactive)
REMARK    1  A    between atoms: C_2  and  C_20
REMARK    2  A    between atoms: N_3  and  C_4
REMARK    3  A    between atoms: C_4  and  C_5
REMARK    4  A    between atoms: C_8  and  C_9
REMARK    5  A    between atoms: C_9  and  C_10
REMARK    6  A    between atoms: C_10  and  N_11
REMARK    7  A    between atoms: N_11  and  C_12
REMARK    8  A    between atoms: C_12  and  C_13
REMARK                            x       y       z     vdW  Elec       q    Type
REMARK                         _______ _______ _______ _____ _____    ______ ____
ROOT
ATOM      1  C   UNL     1      48.421   4.752  17.269  0.00  0.00    +0.000 C 
ENDROOT
BRANCH   1   2
ATOM      2  C   UNL     1      47.953   5.167  15.901  0.00  0.00    +0.000 A 
ATOM      3  C   UNL     1      48.462   6.323  15.297  0.00  0.00    +0.000 A 
ATOM      4  C   UNL     1      48.061   6.692  14.012  0.00  0.00    +0.000 A 
ATOM      5  C   UNL     1      47.132   5.916  13.308  0.00  0.00    +0.000 A 
ATOM      6  C   UNL     1      46.594   4.779  13.925  0.00  0.00    +0.000 A 
ATOM      7  C   UNL     1      46.996   4.411  15.212  0.00  0.00    +0.000 A 
BRANCH   5   8
ATOM      8  C   UNL     1      46.727   6.295  11.901  0.00  0.00    +0.000 C 
BRANCH   8   9
ATOM      9  C   UNL     1      45.537   7.274  11.834  0.00  0.00    +0.000 C 
BRANCH   9  10
ATOM     10  N   UNL     1      44.331   6.765  11.165  0.00  0.00    +0.000 NA
ATOM     11  H   UNL     1      44.613   6.287  10.307  0.00  0.00    +0.000 HD
BRANCH  10  12
ATOM     12  C   UNL     1      43.572   5.842  12.011  0.00  0.00    +0.000 C 
BRANCH  12  13
ATOM     13  C   UNL     1      43.112   4.612  11.217  0.00  0.00    +0.000 C 
ATOM     14  C   UNL     1      43.492   3.292  11.857  0.00  0.00    +0.000 C 
ATOM     15  C   UNL     1      44.894   3.050  11.342  0.00  0.00    +0.000 C 
ATOM     16  O   UNL     1      44.992   3.696  10.066  0.00  0.00    +0.000 OA
ATOM     17  C   UNL     1      43.847   4.538   9.884  0.00  0.00    +0.000 C 
ENDBRANCH  12  13
ENDBRANCH  10  12
ENDBRANCH   9  10
ENDBRANCH   8   9
ENDBRANCH   5   8
ENDBRANCH   1   2
BRANCH   1  20
ATOM     18  O   UNL     1      50.008   4.761  19.518  0.00  0.00    +0.000 OA
ATOM     19  C   UNL     1      50.504   4.363  18.467  0.00  0.00    +0.000 C 
ATOM     20  N   UNL     1      49.818   4.405  17.279  0.00  0.00    +0.000 N 
ATOM     21  H   UNL     1      50.173   3.892  16.478  0.00  0.00    +0.000 HD
BRANCH  19  22
ATOM     22  C   UNL     1      51.874   3.844  18.423  0.00  0.00    +0.000 A 
ATOM     23  C   UNL     1      52.918   4.614  18.918  0.00  0.00    +0.000 A 
ATOM     24  S   UNL     1      54.438   3.848  18.818  0.00  0.00    +0.000 S 
ATOM     25  C   UNL     1      53.747   2.443  18.151  0.00  0.00    +0.000 A 
ATOM     26  N   UNL     1      54.511   1.353  17.868  0.00  0.00    +0.000 NA
ATOM     27  C   UNL     1      53.852   0.347  17.401  0.00  0.00    +0.000 A 
ATOM     28  N   UNL     1      52.498   0.338  17.171  0.00  0.00    +0.000 N 
ATOM     29  C   UNL     1      51.694   1.426  17.400  0.00  0.00    +0.000 A 
ATOM     30  O   UNL     1      50.501   1.407  17.120  0.00  0.00    +0.000 OA
ATOM     31  C   UNL     1      52.381   2.572  17.966  0.00  0.00    +0.000 A 
ATOM     32  H   UNL     1      52.049  -0.477  16.778  0.00  0.00    +0.000 HD
ENDBRANCH  19  22
ENDBRANCH   1  20
TORSDOF 8
ENDMDL
MODEL 5
REMARK VINA RESULT:    -6.704      4.020      8.892
REMARK INTER + INTRA:         -10.857
REMARK INTER:                  -9.159
REMARK INTRA:                  -1.698
REMARK UNBOUND:                -1.018
REMARK  Name = 
REMARK  8 active torsions:
REMARK  status: ('A' for Active; 'I' for Inactive)
REMARK    1  A    between atoms: C_2  and  C_20
REMARK    2  A    between atoms: N_3  and  C_4
REMARK    3  A    between atoms: C_4  and  C_5
REMARK    4  A    between atoms: C_8  and  C_9
REMARK    5  A    between atoms: C_9  and  C_10
REMARK    6  A    between atoms: C_10  and  N_11
REMARK    7  A    between atoms: N_11  and  C_12
REMARK    8  A    between atoms: C_12  and  C_13
REMARK                            x       y       z     vdW  Elec       q    Type
REMARK                         _______ _______ _______ _____ _____    ______ ____
ROOT
ATOM      1  C   UNL     1      47.096   3.344  16.757  0.00  0.00    +0.000 C 
ENDROOT
BRANCH   1   2
ATOM      2  C   UNL     1      48.499   3.458  17.290  0.00  0.00    +0.000 A 
ATOM      3  C   UNL     1      49.477   2.528  16.917  0.00  0.00    +0.000 A 
ATOM      4  C   UNL     1      50.789   2.651  17.378  0.00  0.00    +0.000 A 
ATOM      5  C   UNL     1      51.147   3.702  18.230  0.00  0.00    +0.000 A 
ATOM      6  C   UNL     1      50.162   4.613  18.632  0.00  0.00    +0.000 A 
ATOM      7  C   UNL     1      48.848   4.488  18.171  0.00  0.00    +0.000 A 
BRANCH   5   8
ATOM      8  C   UNL     1      52.577   3.856  18.697  0.00  0.00    +0.000 C 
BRANCH   8   9
ATOM      9  C   UNL     1      53.510   4.504  17.653  0.00  0.00    +0.000 C 
BRANCH   9  10
ATOM     10  N   UNL     1      53.443   5.970  17.561  0.00  0.00    +0.000 NA
ATOM     11  H   UNL     1      54.393   6.342  17.604  0.00  0.00    +0.000 HD
BRANCH  10  12
ATOM     12  C   UNL     1      52.795   6.422  16.329  0.00  0.00    +0.000 C 
BRANCH  12  13
ATOM     13  C   UNL     1      51.549   7.264  16.634  0.00  0.00    +0.000 C 
ATOM     14  C   UNL     1      50.350   6.919  15.775  0.00  0.00    +0.000 C 
ATOM     15  C   UNL     1      50.562   7.757  14.533  0.00  0.00    +0.000 C 
ATOM     16  O   UNL     1      51.304   8.917  14.930  0.00  0.00    +0.000 OA
ATOM     17  C   UNL     1      51.792   8.722  16.263  0.00  0.00    +0.000 C 
ENDBRANCH  12  13
ENDBRANCH  10  12
ENDBRANCH   9  10
ENDBRANCH   8   9
ENDBRANCH   5   8
ENDBRANCH   1   2
BRANCH   1  20
ATOM     18  O   UNL     1      47.291   3.152  14.017  0.00  0.00    +0.000 OA
ATOM     19  C   UNL     1      46.832   4.190  14.489  0.00  0.00    +0.000 C 
ATOM     20  N   UNL     1      46.779   4.410  15.843  0.00  0.00    +0.000 N 
ATOM     21  H   UNL     1      46.220   5.177  16.203  0.00  0.00    +0.000 HD
BRANCH  19  22
ATOM     22  C   UNL     1      46.339   5.264  13.623  0.00  0.00    +0.000 A 
ATOM     23  C   UNL     1      47.160   6.344  13.330  0.00  0.00    +0.000 A 
ATOM     24  S   UNL     1      46.442   7.484  12.285  0.00  0.00    +0.000 S 
ATOM     25  C   UNL     1      45.025   6.552  12.152  0.00  0.00    +0.000 A 
ATOM     26  N   UNL     1      44.001   6.943  11.347  0.00  0.00    +0.000 NA
ATOM     27  C   UNL     1      43.005   6.125  11.313  0.00  0.00    +0.000 A 
ATOM     28  N   UNL     1      42.930   4.955  12.029  0.00  0.00    +0.000 N 
ATOM     29  C   UNL     1      43.918   4.539  12.886  0.00  0.00    +0.000 A 
ATOM     30  O   UNL     1      43.790   3.525  13.562  0.00  0.00    +0.000 OA
ATOM     31  C   UNL     1      45.081   5.407  12.929  0.00  0.00    +0.000 A 
ATOM     32  H   UNL     1      42.108   4.371  11.976  0.00  0.00    +0.000 HD
ENDBRANCH  19  22
ENDBRANCH   1  20
TORSDOF 8
ENDMDL
MODEL 6
REMARK VINA RESULT:    -6.652      3.594      8.752
REMARK INTER + INTRA:         -10.781
REMARK INTER:                  -9.402
REMARK INTRA:                  -1.379
REMARK UNBOUND:                -1.018
REMARK  Name = 
REMARK  8 active torsions:
REMARK  status: ('A' for Active; 'I' for Inactive)
REMARK    1  A    between atoms: C_2  and  C_20
REMARK    2  A    between atoms: N_3  and  C_4
REMARK    3  A    between atoms: C_4  and  C_5
REMARK    4  A    between atoms: C_8  and  C_9
REMARK    5  A    between atoms: C_9  and  C_10
REMARK    6  A    between atoms: C_10  and  N_11
REMARK    7  A    between atoms: N_11  and  C_12
REMARK    8  A    between atoms: C_12  and  C_13
REMARK                            x       y       z     vdW  Elec       q    Type
REMARK                         _______ _______ _______ _____ _____    ______ ____
ROOT
ATOM      1  C   UNL     1      48.162   8.123  12.157  0.00  0.00    +0.000 C 
ENDROOT
BRANCH   1   2
ATOM      2  C   UNL     1      49.004   7.841  13.372  0.00  0.00    +0.000 A 
ATOM      3  C   UNL     1      48.483   7.098  14.439  0.00  0.00    +0.000 A 
ATOM      4  C   UNL     1      49.273   6.801  15.552  0.00  0.00    +0.000 A 
ATOM      5  C   UNL     1      50.596   7.250  15.624  0.00  0.00    +0.000 A 
ATOM      6  C   UNL     1      51.107   8.024  14.574  0.00  0.00    +0.000 A 
ATOM      7  C   UNL     1      50.316   8.322  13.461  0.00  0.00    +0.000 A 
BRANCH   5   8
ATOM      8  C   UNL     1      51.462   6.895  16.812  0.00  0.00    +0.000 C 
BRANCH   8   9
ATOM      9  C   UNL     1      51.593   5.378  17.060  0.00  0.00    +0.000 C 
BRANCH   9  10
ATOM     10  N   UNL     1      50.656   4.810  18.040  0.00  0.00    +0.000 NA
ATOM     11  H   UNL     1      49.885   5.468  18.171  0.00  0.00    +0.000 HD
BRANCH  10  12
ATOM     12  C   UNL     1      50.126   3.513  17.617  0.00  0.00    +0.000 C 
BRANCH  12  13
ATOM     13  C   UNL     1      48.778   3.219  18.289  0.00  0.00    +0.000 C 
ATOM     14  C   UNL     1      47.678   2.842  17.318  0.00  0.00    +0.000 C 
ATOM     15  C   UNL     1      47.124   4.183  16.887  0.00  0.00    +0.000 C 
ATOM     16  O   UNL     1      47.337   5.095  17.972  0.00  0.00    +0.000 OA
ATOM     17  C   UNL     1      48.216   4.485  18.924  0.00  0.00    +0.000 C 
ENDBRANCH  12  13
ENDBRANCH  10  12
ENDBRANCH   9  10
ENDBRANCH   8   9
ENDBRANCH   5   8
ENDBRANCH   1   2
BRANCH   1  20
ATOM     18  O   UNL     1      45.442   7.915  11.786  0.00  0.00    +0.000 OA
ATOM     19  C   UNL     1      46.142   6.963  11.449  0.00  0.00    +0.000 C 
ATOM     20  N   UNL     1      47.496   6.941  11.677  0.00  0.00    +0.000 N 
ATOM     21  H   UNL     1      48.068   6.241  11.215  0.00  0.00    +0.000 HD
BRANCH  19  22
ATOM     22  C   UNL     1      45.558   5.782  10.807  0.00  0.00    +0.000 A 
ATOM     23  C   UNL     1      45.811   5.532   9.466  0.00  0.00    +0.000 A 
ATOM     24  S   UNL     1      45.082   4.102   8.889  0.00  0.00    +0.000 S 
ATOM     25  C   UNL     1      44.439   3.745  10.424  0.00  0.00    +0.000 A 
ATOM     26  N   UNL     1      43.732   2.604  10.639  0.00  0.00    +0.000 NA
ATOM     27  C   UNL     1      43.336   2.443  11.856  0.00  0.00    +0.000 A 
ATOM     28  N   UNL     1      43.566   3.332  12.877  0.00  0.00    +0.000 N 
ATOM     29  C   UNL     1      44.237   4.516  12.699  0.00  0.00    +0.000 A 
ATOM     30  O   UNL     1      44.366   5.319  13.616  0.00  0.00    +0.000 OA
ATOM     31  C   UNL     1      44.741   4.726  11.354  0.00  0.00    +0.000 A 
ATOM     32  H   UNL     1      43.205   3.156  13.803  0.00  0.00    +0.000 HD
ENDBRANCH  19  22
ENDBRANCH   1  20
TORSDOF 8
ENDMDL
MODEL 7
REMARK VINA RESULT:    -6.604      2.677      3.510
REMARK INTER + INTRA:         -10.710
REMARK INTER:                  -9.065
REMARK INTRA:                  -1.644
REMARK UNBOUND:                -1.018
REMARK  Name = 
REMARK  8 active torsions:
REMARK  status: ('A' for Active; 'I' for Inactive)
REMARK    1  A    between atoms: C_2  and  C_20
REMARK    2  A    between atoms: N_3  and  C_4
REMARK    3  A    between atoms: C_4  and  C_5
REMARK    4  A    between atoms: C_8  and  C_9
REMARK    5  A    between atoms: C_9  and  C_10
REMARK    6  A    between atoms: C_10  and  N_11
REMARK    7  A    between atoms: N_11  and  C_12
REMARK    8  A    between atoms: C_12  and  C_13
REMARK                            x       y       z     vdW  Elec       q    Type
REMARK                         _______ _______ _______ _____ _____    ______ ____
ROOT
ATOM      1  C   UNL     1      49.284   7.966  13.500  0.00  0.00    +0.000 C 
ENDROOT
BRANCH   1   2
ATOM      2  C   UNL     1      47.892   7.887  12.936  0.00  0.00    +0.000 A 
ATOM      3  C   UNL     1      47.558   6.893  12.007  0.00  0.00    +0.000 A 
ATOM      4  C   UNL     1      46.257   6.791  11.509  0.00  0.00    +0.000 A 
ATOM      5  C   UNL     1      45.266   7.688  11.923  0.00  0.00    +0.000 A 
ATOM      6  C   UNL     1      45.607   8.705  12.825  0.00  0.00    +0.000 A 
ATOM      7  C   UNL     1      46.909   8.807  13.322  0.00  0.00    +0.000 A 
BRANCH   5   8
ATOM      8  C   UNL     1      43.849   7.553  11.413  0.00  0.00    +0.000 C 
BRANCH   8   9
ATOM      9  C   UNL     1      43.506   6.146  10.882  0.00  0.00    +0.000 C 
BRANCH   9  10
ATOM     10  N   UNL     1      42.737   5.290  11.797  0.00  0.00    +0.000 NA
ATOM     11  H   UNL     1      42.398   4.480  11.276  0.00  0.00    +0.000 HD
BRANCH  10  12
ATOM     12  C   UNL     1      43.534   4.838  12.939  0.00  0.00    +0.000 C 
BRANCH  12  13
ATOM     13  C   UNL     1      43.948   3.370  12.779  0.00  0.00    +0.000 C 
ATOM     14  C   UNL     1      45.360   3.183  12.261  0.00  0.00    +0.000 C 
ATOM     15  C   UNL     1      45.189   3.256  10.760  0.00  0.00    +0.000 C 
ATOM     16  O   UNL     1      43.864   2.796  10.464  0.00  0.00    +0.000 OA
ATOM     17  C   UNL     1      43.123   2.703  11.687  0.00  0.00    +0.000 C 
ENDBRANCH  12  13
ENDBRANCH  10  12
ENDBRANCH   9  10
ENDBRANCH   8   9
ENDBRANCH   5   8
ENDBRANCH   1   2
BRANCH   1  20
ATOM     18  O   UNL     1      49.069   8.599  16.171  0.00  0.00    +0.000 OA
ATOM     19  C   UNL     1      49.275   7.425  15.874  0.00  0.00    +0.000 C 
ATOM     20  N   UNL     1      49.484   7.030  14.576  0.00  0.00    +0.000 N 
ATOM     21  H   UNL     1      49.452   6.043  14.343  0.00  0.00    +0.000 HD
BRANCH  19  22
ATOM     22  C   UNL     1      49.336   6.382  16.902  0.00  0.00    +0.000 A 
ATOM     23  C   UNL     1      50.123   6.572  18.030  0.00  0.00    +0.000 A 
ATOM     24  S   UNL     1      50.054   5.277  19.136  0.00  0.00    +0.000 S 
ATOM     25  C   UNL     1      48.936   4.437  18.167  0.00  0.00    +0.000 A 
ATOM     26  N   UNL     1      48.415   3.246  18.570  0.00  0.00    +0.000 NA
ATOM     27  C   UNL     1      47.553   2.738  17.756  0.00  0.00    +0.000 A 
ATOM     28  N   UNL     1      47.177   3.304  16.562  0.00  0.00    +0.000 N 
ATOM     29  C   UNL     1      47.704   4.481  16.095  0.00  0.00    +0.000 A 
ATOM     30  O   UNL     1      47.398   4.924  14.994  0.00  0.00    +0.000 OA
ATOM     31  C   UNL     1      48.651   5.115  16.994  0.00  0.00    +0.000 A 
ATOM     32  H   UNL     1      46.513   2.839  15.960  0.00  0.00    +0.000 HD
ENDBRANCH  19  22
ENDBRANCH   1  20
TORSDOF 8
ENDMDL
MODEL 8
REMARK VINA RESULT:    -6.474      4.154     10.054
REMARK INTER + INTRA:         -10.519
REMARK INTER:                  -9.111
REMARK INTRA:                  -1.408
REMARK UNBOUND:                -1.018
REMARK  Name = 
REMARK  8 active torsions:
REMARK  status: ('A' for Active; 'I' for Inactive)
REMARK    1  A    between atoms: C_2  and  C_20
REMARK    2  A    between atoms: N_3  and  C_4
REMARK    3  A    between atoms: C_4  and  C_5
REMARK    4  A    between atoms: C_8  and  C_9
REMARK    5  A    between atoms: C_9  and  C_10
REMARK    6  A    between atoms: C_10  and  N_11
REMARK    7  A    between atoms: N_11  and  C_12
REMARK    8  A    between atoms: C_12  and  C_13
REMARK                            x       y       z     vdW  Elec       q    Type
REMARK                         _______ _______ _______ _____ _____    ______ ____
ROOT
ATOM      1  C   UNL     1      47.245   3.391  16.764  0.00  0.00    +0.000 C 
ENDROOT
BRANCH   1   2
ATOM      2  C   UNL     1      48.716   3.363  17.080  0.00  0.00    +0.000 A 
ATOM      3  C   UNL     1      49.365   4.516  17.540  0.00  0.00    +0.000 A 
ATOM      4  C   UNL     1      50.721   4.486  17.871  0.00  0.00    +0.000 A 
ATOM      5  C   UNL     1      51.458   3.304  17.739  0.00  0.00    +0.000 A 
ATOM      6  C   UNL     1      50.819   2.159  17.245  0.00  0.00    +0.000 A 
ATOM      7  C   UNL     1      49.462   2.190  16.913  0.00  0.00    +0.000 A 
BRANCH   5   8
ATOM      8  C   UNL     1      52.917   3.262  18.135  0.00  0.00    +0.000 C 
BRANCH   8   9
ATOM      9  C   UNL     1      53.737   4.468  17.631  0.00  0.00    +0.000 C 
BRANCH   9  10
ATOM     10  N   UNL     1      54.503   5.190  18.658  0.00  0.00    +0.000 NA
ATOM     11  H   UNL     1      54.573   6.170  18.380  0.00  0.00    +0.000 HD
BRANCH  10  12
ATOM     12  C   UNL     1      53.883   5.100  19.981  0.00  0.00    +0.000 C 
BRANCH  12  13
ATOM     13  C   UNL     1      53.713   6.489  20.609  0.00  0.00    +0.000 C 
ATOM     14  C   UNL     1      52.277   6.971  20.652  0.00  0.00    +0.000 C 
ATOM     15  C   UNL     1      52.085   7.607  19.293  0.00  0.00    +0.000 C 
ATOM     16  O   UNL     1      53.368   8.083  18.865  0.00  0.00    +0.000 OA
ATOM     17  C   UNL     1      54.373   7.549  19.737  0.00  0.00    +0.000 C 
ENDBRANCH  12  13
ENDBRANCH  10  12
ENDBRANCH   9  10
ENDBRANCH   8   9
ENDBRANCH   5   8
ENDBRANCH   1   2
BRANCH   1  20
ATOM     18  O   UNL     1      47.220   3.117  14.025  0.00  0.00    +0.000 OA
ATOM     19  C   UNL     1      46.849   4.188  14.498  0.00  0.00    +0.000 C 
ATOM     20  N   UNL     1      46.911   4.447  15.845  0.00  0.00    +0.000 N 
ATOM     21  H   UNL     1      46.419   5.251  16.223  0.00  0.00    +0.000 HD
BRANCH  19  22
ATOM     22  C   UNL     1      46.344   5.263  13.639  0.00  0.00    +0.000 A 
ATOM     23  C   UNL     1      47.143   6.367  13.376  0.00  0.00    +0.000 A 
ATOM     24  S   UNL     1      46.414   7.504  12.335  0.00  0.00    +0.000 S 
ATOM     25  C   UNL     1      45.022   6.540  12.166  0.00  0.00    +0.000 A 
ATOM     26  N   UNL     1      44.003   6.919  11.350  0.00  0.00    +0.000 NA
ATOM     27  C   UNL     1      43.027   6.076  11.289  0.00  0.00    +0.000 A 
ATOM     28  N   UNL     1      42.970   4.895  11.987  0.00  0.00    +0.000 N 
ATOM     29  C   UNL     1      43.954   4.490  12.853  0.00  0.00    +0.000 A 
ATOM     30  O   UNL     1      43.840   3.464  13.512  0.00  0.00    +0.000 OA
ATOM     31  C   UNL     1      45.094   5.385  12.927  0.00  0.00    +0.000 A 
ATOM     32  H   UNL     1      42.163   4.292  11.912  0.00  0.00    +0.000 HD
ENDBRANCH  19  22
ENDBRANCH   1  20
TORSDOF 8
ENDMDL
MODEL 9
REMARK VINA RESULT:    -6.377      3.981      9.763
REMARK INTER + INTRA:         -10.377
REMARK INTER:                  -8.681
REMARK INTRA:                  -1.696
REMARK UNBOUND:                -1.018
REMARK  Name = 
REMARK  8 active torsions:
REMARK  status: ('A' for Active; 'I' for Inactive)
REMARK    1  A    between atoms: C_2  and  C_20
REMARK    2  A    between atoms: N_3  and  C_4
REMARK    3  A    between atoms: C_4  and  C_5
REMARK    4  A    between atoms: C_8  and  C_9
REMARK    5  A    between atoms: C_9  and  C_10
REMARK    6  A    between atoms: C_10  and  N_11
REMARK    7  A    between atoms: N_11  and  C_12
REMARK    8  A    between atoms: C_12  and  C_13
REMARK                            x       y       z     vdW  Elec       q    Type
REMARK                         _______ _______ _______ _____ _____    ______ ____
ROOT
ATOM      1  C   UNL     1      47.495   3.644  16.571  0.00  0.00    +0.000 C 
ENDROOT
BRANCH   1   2
ATOM      2  C   UNL     1      48.497   4.191  17.551  0.00  0.00    +0.000 A 
ATOM      3  C   UNL     1      48.265   4.098  18.929  0.00  0.00    +0.000 A 
ATOM      4  C   UNL     1      49.210   4.570  19.843  0.00  0.00    +0.000 A 
ATOM      5  C   UNL     1      50.401   5.154  19.397  0.00  0.00    +0.000 A 
ATOM      6  C   UNL     1      50.617   5.280  18.018  0.00  0.00    +0.000 A 
ATOM      7  C   UNL     1      49.671   4.809  17.104  0.00  0.00    +0.000 A 
BRANCH   5   8
ATOM      8  C   UNL     1      51.440   5.629  20.387  0.00  0.00    +0.000 C 
BRANCH   8   9
ATOM      9  C   UNL     1      51.768   7.132  20.278  0.00  0.00    +0.000 C 
BRANCH   9  10
ATOM     10  N   UNL     1      50.696   8.049  20.692  0.00  0.00    +0.000 NA
ATOM     11  H   UNL     1      51.078   8.706  21.375  0.00  0.00    +0.000 HD
BRANCH  10  12
ATOM     12  C   UNL     1      50.130   8.790  19.564  0.00  0.00    +0.000 C 
BRANCH  12  13
ATOM     13  C   UNL     1      48.673   8.382  19.309  0.00  0.00    +0.000 C 
ATOM     14  C   UNL     1      48.327   8.224  17.842  0.00  0.00    +0.000 C 
ATOM     15  C   UNL     1      47.964   9.631  17.420  0.00  0.00    +0.000 C 
ATOM     16  O   UNL     1      47.455  10.301  18.580  0.00  0.00    +0.000 OA
ATOM     17  C   UNL     1      47.728   9.499  19.735  0.00  0.00    +0.000 C 
ENDBRANCH  12  13
ENDBRANCH  10  12
ENDBRANCH   9  10
ENDBRANCH   8   9
ENDBRANCH   5   8
ENDBRANCH   1   2
BRANCH   1  20
ATOM     18  O   UNL     1      47.186   3.263  13.862  0.00  0.00    +0.000 OA
ATOM     19  C   UNL     1      46.831   4.340  14.335  0.00  0.00    +0.000 C 
ATOM     20  N   UNL     1      47.027   4.653  15.657  0.00  0.00    +0.000 N 
ATOM     21  H   UNL     1      46.551   5.455  16.057  0.00  0.00    +0.000 HD
BRANCH  19  22
ATOM     22  C   UNL     1      46.199   5.365  13.498  0.00  0.00    +0.000 A 
ATOM     23  C   UNL     1      46.900   6.519  13.177  0.00  0.00    +0.000 A 
ATOM     24  S   UNL     1      46.030   7.588  12.172  0.00  0.00    +0.000 S 
ATOM     25  C   UNL     1      44.704   6.524  12.096  0.00  0.00    +0.000 A 
ATOM     26  N   UNL     1      43.613   6.819  11.339  0.00  0.00    +0.000 NA
ATOM     27  C   UNL     1      42.698   5.908  11.345  0.00  0.00    +0.000 A 
ATOM     28  N   UNL     1      42.768   4.735  12.056  0.00  0.00    +0.000 N 
ATOM     29  C   UNL     1      43.828   4.413  12.865  0.00  0.00    +0.000 A 
ATOM     30  O   UNL     1      43.827   3.390  13.539  0.00  0.00    +0.000 OA
ATOM     31  C   UNL     1      44.904   5.388  12.862  0.00  0.00    +0.000 A 
ATOM     32  H   UNL     1      42.003   4.076  12.035  0.00  0.00    +0.000 HD
ENDBRANCH  19  22
ENDBRANCH   1  20
TORSDOF 8
ENDMDL
