MODEL 1
REMARK VINA RESULT:    -8.557      0.000      0.000
REMARK INTER + INTRA:         -11.266
REMARK INTER:                 -10.558
REMARK INTRA:                  -0.707
REMARK UNBOUND:                -0.707
REMARK  Name = 
REMARK  4 active torsions:
REMARK  status: ('A' for Active; 'I' for Inactive)
REMARK    1  A    between atoms: C_2  and  C_4
REMARK    2  A    between atoms: N_8  and  C_9
REMARK    3  A    between atoms: C_9  and  C_10
REMARK    4  A    between atoms: C_14  and  C_15
REMARK                            x       y       z     vdW  Elec       q    Type
REMARK                         _______ _______ _______ _____ _____    ______ ____
ROOT
ATOM      1  C   UNL     1      46.564   2.472   7.279  0.00  0.00    +0.000 A 
ATOM      2  C   UNL     1      46.007   3.695   7.629  0.00  0.00    +0.000 A 
ATOM      3  C   UNL     1      45.145   3.756   8.721  0.00  0.00    +0.000 A 
ATOM      4  C   UNL     1      44.839   2.601   9.438  0.00  0.00    +0.000 A 
ATOM      5  N   UNL     1      44.063   2.603  10.560  0.00  0.00    +0.000 N 
ATOM      6  N   UNL     1      45.347   1.404   9.079  0.00  0.00    +0.000 NA
ATOM      7  C   UNL     1      46.189   1.358   8.012  0.00  0.00    +0.000 A 
ATOM      8  H   UNL     1      43.840   1.677  10.898  0.00  0.00    +0.000 HD
ENDROOT
BRANCH   1  10
ATOM      9  N   UNL     1      47.443   3.275   5.170  0.00  0.00    +0.000 N 
ATOM     10  C   UNL     1      47.523   2.337   6.165  0.00  0.00    +0.000 C 
ATOM     11  O   UNL     1      48.369   1.457   6.150  0.00  0.00    +0.000 OA
ATOM     12  H   UNL     1      48.160   3.239   4.457  0.00  0.00    +0.000 HD
ATOM     13  H   UNL     1      46.931   4.136   5.274  0.00  0.00    +0.000 HD
ENDBRANCH   1  10
BRANCH   5  14
ATOM     14  C   UNL     1      43.398   3.749  11.130  0.00  0.00    +0.000 C 
BRANCH  14  15
ATOM     15  C   UNL     1      44.363   4.646  11.862  0.00  0.00    +0.000 A 
ATOM     16  C   UNL     1      45.320   4.104  12.732  0.00  0.00    +0.000 A 
ATOM     17  C   UNL     1      46.232   4.929  13.388  0.00  0.00    +0.000 A 
ATOM     18  C   UNL     1      46.211   6.307  13.172  0.00  0.00    +0.000 A 
ATOM     19  C   UNL     1      45.274   6.866  12.299  0.00  0.00    +0.000 A 
ATOM     20  C   UNL     1      44.349   6.036  11.655  0.00  0.00    +0.000 A 
BRANCH  19  21
ATOM     21  C   UNL     1      45.297   8.302  12.009  0.00  0.00    +0.000 C 
ATOM     22  C   UNL     1      44.358   8.854  11.221  0.00  0.00    +0.000 C 
ATOM     23  C   UNL     1      44.327  10.323  10.919  0.00  0.00    +0.000 C 
ATOM     24  O   UNL     1      45.168  11.076  11.799  0.00  0.00    +0.000 OA
ATOM     25  C   UNL     1      46.472  10.500  11.910  0.00  0.00    +0.000 C 
ATOM     26  C   UNL     1      46.396   9.137  12.601  0.00  0.00    +0.000 C 
ENDBRANCH  19  21
ENDBRANCH  14  15
ENDBRANCH   5  14
TORSDOF 4
ENDMDL
MODEL 2
REMARK VINA RESULT:    -8.531      2.325      3.686
REMARK INTER + INTRA:         -11.233
REMARK INTER:                 -10.516
REMARK INTRA:                  -0.716
REMARK UNBOUND:                -0.707
REMARK  Name = 
REMARK  4 active torsions:
REMARK  status: ('A' for Active; 'I' for Inactive)
REMARK    1  A    between atoms: C_2  and  C_4
REMARK    2  A    between atoms: N_8  and  C_9
REMARK    3  A    between atoms: C_9  and  C_10
REMARK    4  A    between atoms: C_14  and  C_15
REMARK                            x       y       z     vdW  Elec       q    Type
REMARK                         _______ _______ _______ _____ _____    ______ ____
ROOT
ATOM      1  C   UNL     1      46.522   2.688   7.468  0.00  0.00    +0.000 A 
ATOM      2  C   UNL     1      46.091   3.998   7.634  0.00  0.00    +0.000 A 
ATOM      3  C   UNL     1      45.227   4.296   8.685  0.00  0.00    +0.000 A 
ATOM      4  C   UNL     1      44.794   3.288   9.543  0.00  0.00    +0.000 A 
ATOM      5  N   UNL     1      44.008   3.523  10.634  0.00  0.00    +0.000 N 
ATOM      6  N   UNL     1      45.179   2.007   9.363  0.00  0.00    +0.000 NA
ATOM      7  C   UNL     1      46.024   1.730   8.335  0.00  0.00    +0.000 A 
ATOM      8  H   UNL     1      43.686   2.679  11.088  0.00  0.00    +0.000 HD
ENDROOT
BRANCH   1  10
ATOM      9  N   UNL     1      47.425   3.028   5.247  0.00  0.00    +0.000 N 
ATOM     10  C   UNL     1      47.475   2.304   6.408  0.00  0.00    +0.000 C 
ATOM     11  O   UNL     1      48.292   1.412   6.573  0.00  0.00    +0.000 OA
ATOM     12  H   UNL     1      48.140   2.829   4.559  0.00  0.00    +0.000 HD
ATOM     13  H   UNL     1      46.941   3.909   5.175  0.00  0.00    +0.000 HD
ENDBRANCH   1  10
BRANCH   5  14
ATOM     14  C   UNL     1      43.460   4.798  11.026  0.00  0.00    +0.000 C 
BRANCH  14  15
ATOM     15  C   UNL     1      44.502   5.682  11.662  0.00  0.00    +0.000 A 
ATOM     16  C   UNL     1      44.621   7.027  11.284  0.00  0.00    +0.000 A 
ATOM     17  C   UNL     1      45.565   7.854  11.891  0.00  0.00    +0.000 A 
ATOM     18  C   UNL     1      46.393   7.352  12.895  0.00  0.00    +0.000 A 
ATOM     19  C   UNL     1      46.281   6.018  13.295  0.00  0.00    +0.000 A 
ATOM     20  C   UNL     1      45.343   5.186  12.671  0.00  0.00    +0.000 A 
BRANCH  19  21
ATOM     21  C   UNL     1      47.094   5.506  14.402  0.00  0.00    +0.000 C 
ATOM     22  C   UNL     1      46.802   4.324  14.973  0.00  0.00    +0.000 C 
ATOM     23  C   UNL     1      47.622   3.750  16.090  0.00  0.00    +0.000 C 
ATOM     24  O   UNL     1      48.882   4.413  16.234  0.00  0.00    +0.000 OA
ATOM     25  C   UNL     1      48.737   5.835  16.250  0.00  0.00    +0.000 C 
ATOM     26  C   UNL     1      48.247   6.336  14.889  0.00  0.00    +0.000 C 
ENDBRANCH  19  21
ENDBRANCH  14  15
ENDBRANCH   5  14
TORSDOF 4
ENDMDL
MODEL 3
REMARK VINA RESULT:    -7.223      3.502      6.969
REMARK INTER + INTRA:          -9.619
REMARK INTER:                  -8.825
REMARK INTRA:                  -0.794
REMARK UNBOUND:                -0.707
REMARK  Name = 
REMARK  4 active torsions:
REMARK  status: ('A' for Active; 'I' for Inactive)
REMARK    1  A    between atoms: C_2  and  C_4
REMARK    2  A    between atoms: N_8  and  C_9
REMARK    3  A    between atoms: C_9  and  C_10
REMARK    4  A    between atoms: C_14  and  C_15
REMARK                            x       y       z     vdW  Elec       q    Type
REMARK                         _______ _______ _______ _____ _____    ______ ____
ROOT
ATOM      1  C   UNL     1      49.563   7.731  12.607  0.00  0.00    +0.000 A 
ATOM      2  C   UNL     1      48.660   7.770  11.553  0.00  0.00    +0.000 A 
ATOM      3  C   UNL     1      47.359   7.318  11.761  0.00  0.00    +0.000 A 
ATOM      4  C   UNL     1      46.981   6.823  13.006  0.00  0.00    +0.000 A 
ATOM      5  N   UNL     1      45.706   6.434  13.299  0.00  0.00    +0.000 N 
ATOM      6  N   UNL     1      47.864   6.747  14.023  0.00  0.00    +0.000 NA
ATOM      7  C   UNL     1      49.130   7.193  13.808  0.00  0.00    +0.000 A 
ATOM      8  H   UNL     1      45.616   5.993  14.204  0.00  0.00    +0.000 HD
ENDROOT
BRANCH   1  10
ATOM      9  N   UNL     1      51.786   7.998  13.530  0.00  0.00    +0.000 N 
ATOM     10  C   UNL     1      50.943   8.236  12.477  0.00  0.00    +0.000 C 
ATOM     11  O   UNL     1      51.326   8.804  11.466  0.00  0.00    +0.000 OA
ATOM     12  H   UNL     1      52.755   8.259  13.401  0.00  0.00    +0.000 HD
ATOM     13  H   UNL     1      51.574   7.332  14.256  0.00  0.00    +0.000 HD
ENDBRANCH   1  10
BRANCH   5  14
ATOM     14  C   UNL     1      44.594   6.410  12.380  0.00  0.00    +0.000 C 
BRANCH  14  15
ATOM     15  C   UNL     1      44.399   5.043  11.776  0.00  0.00    +0.000 A 
ATOM     16  C   UNL     1      43.461   4.153  12.317  0.00  0.00    +0.000 A 
ATOM     17  C   UNL     1      43.259   2.899  11.743  0.00  0.00    +0.000 A 
ATOM     18  C   UNL     1      43.980   2.523  10.609  0.00  0.00    +0.000 A 
ATOM     19  C   UNL     1      44.910   3.401  10.047  0.00  0.00    +0.000 A 
ATOM     20  C   UNL     1      45.123   4.653  10.637  0.00  0.00    +0.000 A 
BRANCH  19  21
ATOM     21  C   UNL     1      45.614   3.043   8.813  0.00  0.00    +0.000 C 
ATOM     22  C   UNL     1      45.946   1.764   8.563  0.00  0.00    +0.000 C 
ATOM     23  C   UNL     1      46.643   1.349   7.302  0.00  0.00    +0.000 C 
ATOM     24  O   UNL     1      46.607   2.370   6.299  0.00  0.00    +0.000 OA
ATOM     25  C   UNL     1      46.995   3.643   6.823  0.00  0.00    +0.000 C 
ATOM     26  C   UNL     1      45.966   4.135   7.844  0.00  0.00    +0.000 C 
ENDBRANCH  19  21
ENDBRANCH  14  15
ENDBRANCH   5  14
TORSDOF 4
ENDMDL
MODEL 4
REMARK VINA RESULT:    -6.693      6.238      8.411
REMARK INTER + INTRA:          -8.966
REMARK INTER:                  -8.236
REMARK INTRA:                  -0.730
REMARK UNBOUND:                -0.707
REMARK  Name = 
REMARK  4 active torsions:
REMARK  status: ('A' for Active; 'I' for Inactive)
REMARK    1  A    between atoms: C_2  and  C_4
REMARK    2  A    between atoms: N_8  and  C_9
REMARK    3  A    between atoms: C_9  and  C_10
REMARK    4  A    between atoms: C_14  and  C_15
REMARK                            x       y       z     vdW  Elec       q    Type
REMARK                         _______ _______ _______ _____ _____    ______ ____
ROOT
ATOM      1  C   UNL     1      52.155   2.394  17.875  0.00  0.00    +0.000 A 
ATOM      2  C   UNL     1      51.541   3.624  18.073  0.00  0.00    +0.000 A 
ATOM      3  C   UNL     1      50.237   3.809  17.618  0.00  0.00    +0.000 A 
ATOM      4  C   UNL     1      49.571   2.776  16.963  0.00  0.00    +0.000 A 
ATOM      5  N   UNL     1      48.270   2.864  16.559  0.00  0.00    +0.000 N 
ATOM      6  N   UNL     1      50.176   1.592  16.734  0.00  0.00    +0.000 NA
ATOM      7  C   UNL     1      51.448   1.424  17.185  0.00  0.00    +0.000 A 
ATOM      8  H   UNL     1      47.967   2.079  16.000  0.00  0.00    +0.000 HD
ENDROOT
BRANCH   1  10
ATOM      9  N   UNL     1      54.459   1.798  17.427  0.00  0.00    +0.000 N 
ATOM     10  C   UNL     1      53.515   2.108  18.370  0.00  0.00    +0.000 C 
ATOM     11  O   UNL     1      53.794   2.181  19.557  0.00  0.00    +0.000 OA
ATOM     12  H   UNL     1      55.410   1.696  17.757  0.00  0.00    +0.000 HD
ATOM     13  H   UNL     1      54.321   1.968  16.444  0.00  0.00    +0.000 HD
ENDBRANCH   1  10
BRANCH   5  14
ATOM     14  C   UNL     1      47.422   4.024  16.679  0.00  0.00    +0.000 C 
BRANCH  14  15
ATOM     15  C   UNL     1      47.393   4.829  15.405  0.00  0.00    +0.000 A 
ATOM     16  C   UNL     1      48.256   5.921  15.233  0.00  0.00    +0.000 A 
ATOM     17  C   UNL     1      48.251   6.649  14.044  0.00  0.00    +0.000 A 
ATOM     18  C   UNL     1      47.395   6.287  13.004  0.00  0.00    +0.000 A 
ATOM     19  C   UNL     1      46.537   5.194  13.151  0.00  0.00    +0.000 A 
ATOM     20  C   UNL     1      46.533   4.475  14.352  0.00  0.00    +0.000 A 
BRANCH  19  21
ATOM     21  C   UNL     1      45.691   4.762  12.035  0.00  0.00    +0.000 C 
ATOM     22  C   UNL     1      44.936   3.654  12.140  0.00  0.00    +0.000 C 
ATOM     23  C   UNL     1      44.037   3.190  11.034  0.00  0.00    +0.000 C 
ATOM     24  O   UNL     1      43.831   4.200  10.040  0.00  0.00    +0.000 OA
ATOM     25  C   UNL     1      45.063   4.791   9.621  0.00  0.00    +0.000 C 
ATOM     26  C   UNL     1      45.698   5.575  10.772  0.00  0.00    +0.000 C 
ENDBRANCH  19  21
ENDBRANCH  14  15
ENDBRANCH   5  14
TORSDOF 4
ENDMDL
MODEL 5
REMARK VINA RESULT:    -6.557      3.458      7.385
REMARK INTER + INTRA:          -8.797
REMARK INTER:                  -8.804
REMARK INTRA:                   0.007
REMARK UNBOUND:                -0.707
REMARK  Name = 
REMARK  4 active torsions:
REMARK  status: ('A' for Active; 'I' for Inactive)
REMARK    1  A    between atoms: C_2  and  C_4
REMARK    2  A    between atoms: N_8  and  C_9
REMARK    3  A    between atoms: C_9  and  C_10
REMARK    4  A    between atoms: C_14  and  C_15
REMARK                            x       y       z     vdW  Elec       q    Type
REMARK                         _______ _______ _______ _____ _____    ______ ____
ROOT
ATOM      1  C   UNL     1      47.400   4.824  15.029  0.00  0.00    +0.000 A 
ATOM      2  C   UNL     1      46.171   4.443  14.505  0.00  0.00    +0.000 A 
ATOM      3  C   UNL     1      45.655   5.143  13.417  0.00  0.00    +0.000 A 
ATOM      4  C   UNL     1      46.360   6.216  12.877  0.00  0.00    +0.000 A 
ATOM      5  N   UNL     1      45.949   6.896  11.767  0.00  0.00    +0.000 N 
ATOM      6  N   UNL     1      47.536   6.615  13.406  0.00  0.00    +0.000 NA
ATOM      7  C   UNL     1      48.029   5.922  14.467  0.00  0.00    +0.000 A 
ATOM      8  H   UNL     1      46.505   7.717  11.568  0.00  0.00    +0.000 HD
ENDROOT
BRANCH   1  10
ATOM      9  N   UNL     1      48.320   4.836  17.269  0.00  0.00    +0.000 N 
ATOM     10  C   UNL     1      48.032   4.101  16.150  0.00  0.00    +0.000 C 
ATOM     11  O   UNL     1      48.252   2.901  16.096  0.00  0.00    +0.000 OA
ATOM     12  H   UNL     1      48.664   4.323  18.071  0.00  0.00    +0.000 HD
ATOM     13  H   UNL     1      47.934   5.753  17.432  0.00  0.00    +0.000 HD
ENDBRANCH   1  10
BRANCH   5  14
ATOM     14  C   UNL     1      44.727   6.668  11.036  0.00  0.00    +0.000 C 
BRANCH  14  15
ATOM     15  C   UNL     1      44.572   5.221  10.646  0.00  0.00    +0.000 A 
ATOM     16  C   UNL     1      43.612   4.413  11.272  0.00  0.00    +0.000 A 
ATOM     17  C   UNL     1      43.447   3.082  10.894  0.00  0.00    +0.000 A 
ATOM     18  C   UNL     1      44.229   2.543   9.872  0.00  0.00    +0.000 A 
ATOM     19  C   UNL     1      45.183   3.334   9.227  0.00  0.00    +0.000 A 
ATOM     20  C   UNL     1      45.357   4.666   9.622  0.00  0.00    +0.000 A 
BRANCH  19  21
ATOM     21  C   UNL     1      45.953   2.796   8.102  0.00  0.00    +0.000 C 
ATOM     22  C   UNL     1      46.198   3.553   7.019  0.00  0.00    +0.000 C 
ATOM     23  C   UNL     1      47.004   3.053   5.857  0.00  0.00    +0.000 C 
ATOM     24  O   UNL     1      47.728   1.859   6.172  0.00  0.00    +0.000 OA
ATOM     25  C   UNL     1      46.896   0.885   6.806  0.00  0.00    +0.000 C 
ATOM     26  C   UNL     1      46.448   1.380   8.184  0.00  0.00    +0.000 C 
ENDBRANCH  19  21
ENDBRANCH  14  15
ENDBRANCH   5  14
TORSDOF 4
ENDMDL
MODEL 6
REMARK VINA RESULT:    -6.426      4.169      6.172
REMARK INTER + INTRA:          -8.635
REMARK INTER:                  -7.882
REMARK INTRA:                  -0.753
REMARK UNBOUND:                -0.707
REMARK  Name = 
REMARK  4 active torsions:
REMARK  status: ('A' for Active; 'I' for Inactive)
REMARK    1  A    between atoms: C_2  and  C_4
REMARK    2  A    between atoms: N_8  and  C_9
REMARK    3  A    between atoms: C_9  and  C_10
REMARK    4  A    between atoms: C_14  and  C_15
REMARK                            x       y       z     vdW  Elec       q    Type
REMARK                         _______ _______ _______ _____ _____    ______ ____
ROOT
ATOM      1  C   UNL     1      44.200   4.168  11.467  0.00  0.00    +0.000 A 
ATOM      2  C   UNL     1      45.006   4.987  10.687  0.00  0.00    +0.000 A 
ATOM      3  C   UNL     1      45.368   6.241  11.174  0.00  0.00    +0.000 A 
ATOM      4  C   UNL     1      44.914   6.665  12.421  0.00  0.00    +0.000 A 
ATOM      5  N   UNL     1      45.290   7.848  12.989  0.00  0.00    +0.000 N 
ATOM      6  N   UNL     1      44.100   5.890  13.167  0.00  0.00    +0.000 NA
ATOM      7  C   UNL     1      43.755   4.668  12.680  0.00  0.00    +0.000 A 
ATOM      8  H   UNL     1      44.789   8.064  13.840  0.00  0.00    +0.000 HD
ENDROOT
BRANCH   1  10
ATOM      9  N   UNL     1      44.495   2.287   9.972  0.00  0.00    +0.000 N 
ATOM     10  C   UNL     1      43.814   2.810  11.039  0.00  0.00    +0.000 C 
ATOM     11  O   UNL     1      42.958   2.170  11.630  0.00  0.00    +0.000 OA
ATOM     12  H   UNL     1      44.298   1.322   9.739  0.00  0.00    +0.000 HD
ATOM     13  H   UNL     1      45.355   2.684   9.628  0.00  0.00    +0.000 HD
ENDBRANCH   1  10
BRANCH   5  14
ATOM     14  C   UNL     1      46.137   8.847  12.386  0.00  0.00    +0.000 C 
BRANCH  14  15
ATOM     15  C   UNL     1      47.594   8.593  12.676  0.00  0.00    +0.000 A 
ATOM     16  C   UNL     1      48.588   9.104  11.829  0.00  0.00    +0.000 A 
ATOM     17  C   UNL     1      49.937   8.895  12.109  0.00  0.00    +0.000 A 
ATOM     18  C   UNL     1      50.313   8.186  13.250  0.00  0.00    +0.000 A 
ATOM     19  C   UNL     1      49.339   7.680  14.115  0.00  0.00    +0.000 A 
ATOM     20  C   UNL     1      47.984   7.878  13.820  0.00  0.00    +0.000 A 
BRANCH  19  21
ATOM     21  C   UNL     1      49.728   7.002  15.354  0.00  0.00    +0.000 C 
ATOM     22  C   UNL     1      48.828   6.291  16.055  0.00  0.00    +0.000 C 
ATOM     23  C   UNL     1      49.188   5.560  17.313  0.00  0.00    +0.000 C 
ATOM     24  O   UNL     1      50.604   5.435  17.483  0.00  0.00    +0.000 OA
ATOM     25  C   UNL     1      51.274   6.682  17.285  0.00  0.00    +0.000 C 
ATOM     26  C   UNL     1      51.148   7.131  15.827  0.00  0.00    +0.000 C 
ENDBRANCH  19  21
ENDBRANCH  14  15
ENDBRANCH   5  14
TORSDOF 4
ENDMDL
MODEL 7
REMARK VINA RESULT:    -6.410      4.695      6.822
REMARK INTER + INTRA:          -8.616
REMARK INTER:                  -7.885
REMARK INTRA:                  -0.731
REMARK UNBOUND:                -0.707
REMARK  Name = 
REMARK  4 active torsions:
REMARK  status: ('A' for Active; 'I' for Inactive)
REMARK    1  A    between atoms: C_2  and  C_4
REMARK    2  A    between atoms: N_8  and  C_9
REMARK    3  A    between atoms: C_9  and  C_10
REMARK    4  A    between atoms: C_14  and  C_15
REMARK                            x       y       z     vdW  Elec       q    Type
REMARK                         _______ _______ _______ _____ _____    ______ ____
ROOT
ATOM      1  C   UNL     1      44.687   5.245  10.932  0.00  0.00    +0.000 A 
ATOM      2  C   UNL     1      45.946   5.719  10.588  0.00  0.00    +0.000 A 
ATOM      3  C   UNL     1      46.581   6.625  11.434  0.00  0.00    +0.000 A 
ATOM      4  C   UNL     1      45.951   7.055  12.599  0.00  0.00    +0.000 A 
ATOM      5  N   UNL     1      46.545   7.882  13.508  0.00  0.00    +0.000 N 
ATOM      6  N   UNL     1      44.712   6.628  12.920  0.00  0.00    +0.000 NA
ATOM      7  C   UNL     1      44.104   5.742  12.086  0.00  0.00    +0.000 A 
ATOM      8  H   UNL     1      45.921   8.193  14.240  0.00  0.00    +0.000 HD
ENDROOT
BRANCH   1  10
ATOM      9  N   UNL     1      44.053   4.403   8.753  0.00  0.00    +0.000 N 
ATOM     10  C   UNL     1      43.973   4.248  10.111  0.00  0.00    +0.000 C 
ATOM     11  O   UNL     1      43.374   3.312  10.617  0.00  0.00    +0.000 OA
ATOM     12  H   UNL     1      43.644   3.667   8.190  0.00  0.00    +0.000 HD
ATOM     13  H   UNL     1      44.728   5.008   8.312  0.00  0.00    +0.000 HD
ENDBRANCH   1  10
BRANCH   5  14
ATOM     14  C   UNL     1      47.852   8.479  13.384  0.00  0.00    +0.000 C 
BRANCH  14  15
ATOM     15  C   UNL     1      48.829   7.895  14.372  0.00  0.00    +0.000 A 
ATOM     16  C   UNL     1      50.108   8.450  14.521  0.00  0.00    +0.000 A 
ATOM     17  C   UNL     1      51.004   7.929  15.453  0.00  0.00    +0.000 A 
ATOM     18  C   UNL     1      50.628   6.856  16.262  0.00  0.00    +0.000 A 
ATOM     19  C   UNL     1      49.353   6.297  16.138  0.00  0.00    +0.000 A 
ATOM     20  C   UNL     1      48.463   6.812  15.188  0.00  0.00    +0.000 A 
BRANCH  19  21
ATOM     21  C   UNL     1      48.926   5.222  17.037  0.00  0.00    +0.000 C 
ATOM     22  C   UNL     1      47.938   4.383  16.676  0.00  0.00    +0.000 C 
ATOM     23  C   UNL     1      47.487   3.253  17.552  0.00  0.00    +0.000 C 
ATOM     24  O   UNL     1      48.414   2.980  18.608  0.00  0.00    +0.000 OA
ATOM     25  C   UNL     1      48.801   4.172  19.296  0.00  0.00    +0.000 C 
ATOM     26  C   UNL     1      49.606   5.086  18.369  0.00  0.00    +0.000 C 
ENDBRANCH  19  21
ENDBRANCH  14  15
ENDBRANCH   5  14
TORSDOF 4
ENDMDL
MODEL 8
REMARK VINA RESULT:    -6.268      6.114      8.368
REMARK INTER + INTRA:          -8.441
REMARK INTER:                  -7.902
REMARK INTRA:                  -0.539
REMARK UNBOUND:                -0.707
REMARK  Name = 
REMARK  4 active torsions:
REMARK  status: ('A' for Active; 'I' for Inactive)
REMARK    1  A    between atoms: C_2  and  C_4
REMARK    2  A    between atoms: N_8  and  C_9
REMARK    3  A    between atoms: C_9  and  C_10
REMARK    4  A    between atoms: C_14  and  C_15
REMARK                            x       y       z     vdW  Elec       q    Type
REMARK                         _______ _______ _______ _____ _____    ______ ____
ROOT
ATOM      1  C   UNL     1      45.247   4.656  11.360  0.00  0.00    +0.000 A 
ATOM      2  C   UNL     1      45.436   3.547  12.174  0.00  0.00    +0.000 A 
ATOM      3  C   UNL     1      46.039   3.717  13.418  0.00  0.00    +0.000 A 
ATOM      4  C   UNL     1      46.457   4.981  13.826  0.00  0.00    +0.000 A 
ATOM      5  N   UNL     1      46.986   5.230  15.059  0.00  0.00    +0.000 N 
ATOM      6  N   UNL     1      46.311   6.056  13.024  0.00  0.00    +0.000 NA
ATOM      7  C   UNL     1      45.719   5.877  11.813  0.00  0.00    +0.000 A 
ATOM      8  H   UNL     1      47.345   6.169  15.163  0.00  0.00    +0.000 HD
ENDROOT
BRANCH   1  10
ATOM      9  N   UNL     1      45.281   4.999   8.963  0.00  0.00    +0.000 N 
ATOM     10  C   UNL     1      44.572   4.563  10.051  0.00  0.00    +0.000 C 
ATOM     11  O   UNL     1      43.454   4.086   9.938  0.00  0.00    +0.000 OA
ATOM     12  H   UNL     1      44.857   4.847   8.057  0.00  0.00    +0.000 HD
ATOM     13  H   UNL     1      46.275   5.165   8.992  0.00  0.00    +0.000 HD
ENDBRANCH   1  10
BRANCH   5  14
ATOM     14  C   UNL     1      47.253   4.248  16.082  0.00  0.00    +0.000 C 
BRANCH  14  15
ATOM     15  C   UNL     1      48.493   4.585  16.869  0.00  0.00    +0.000 A 
ATOM     16  C   UNL     1      48.615   5.827  17.509  0.00  0.00    +0.000 A 
ATOM     17  C   UNL     1      49.749   6.130  18.261  0.00  0.00    +0.000 A 
ATOM     18  C   UNL     1      50.771   5.190  18.397  0.00  0.00    +0.000 A 
ATOM     19  C   UNL     1      50.663   3.942  17.778  0.00  0.00    +0.000 A 
ATOM     20  C   UNL     1      49.530   3.648  17.010  0.00  0.00    +0.000 A 
BRANCH  19  21
ATOM     21  C   UNL     1      51.696   2.923  17.981  0.00  0.00    +0.000 C 
ATOM     22  C   UNL     1      52.863   3.242  18.570  0.00  0.00    +0.000 C 
ATOM     23  C   UNL     1      53.937   2.226  18.821  0.00  0.00    +0.000 C 
ATOM     24  O   UNL     1      53.460   0.884  18.677  0.00  0.00    +0.000 OA
ATOM     25  C   UNL     1      52.723   0.709  17.465  0.00  0.00    +0.000 C 
ATOM     26  C   UNL     1      51.428   1.524  17.506  0.00  0.00    +0.000 C 
ENDBRANCH  19  21
ENDBRANCH  14  15
ENDBRANCH   5  14
TORSDOF 4
ENDMDL
MODEL 9
REMARK VINA RESULT:    -5.970      4.939      8.550
REMARK INTER + INTRA:          -8.073
REMARK INTER:                  -7.369
REMARK INTRA:                  -0.704
REMARK UNBOUND:                -0.707
REMARK  Name = 
REMARK  4 active torsions:
REMARK  status: ('A' for Active; 'I' for Inactive)
REMARK    1  A    between atoms: C_2  and  C_4
REMARK    2  A    between atoms: N_8  and  C_9
REMARK    3  A    between atoms: C_9  and  C_10
REMARK    4  A    between atoms: C_14  and  C_15
REMARK                            x       y       z     vdW  Elec       q    Type
REMARK                         _______ _______ _______ _____ _____    ______ ____
ROOT
ATOM      1  C   UNL     1      48.971   7.661  17.501  0.00  0.00    +0.000 A 
ATOM      2  C   UNL     1      48.500   8.618  16.613  0.00  0.00    +0.000 A 
ATOM      3  C   UNL     1      48.669   8.413  15.246  0.00  0.00    +0.000 A 
ATOM      4  C   UNL     1      49.315   7.269  14.785  0.00  0.00    +0.000 A 
ATOM      5  N   UNL     1      49.449   6.970  13.459  0.00  0.00    +0.000 N 
ATOM      6  N   UNL     1      49.809   6.354  15.644  0.00  0.00    +0.000 NA
ATOM      7  C   UNL     1      49.635   6.565  16.976  0.00  0.00    +0.000 A 
ATOM      8  H   UNL     1      50.039   6.168  13.284  0.00  0.00    +0.000 HD
ENDROOT
BRANCH   1  10
ATOM      9  N   UNL     1      47.577   8.270  19.386  0.00  0.00    +0.000 N 
ATOM     10  C   UNL     1      48.786   7.785  18.960  0.00  0.00    +0.000 C 
ATOM     11  O   UNL     1      49.651   7.438  19.748  0.00  0.00    +0.000 OA
ATOM     12  H   UNL     1      47.415   8.265  20.385  0.00  0.00    +0.000 HD
ATOM     13  H   UNL     1      46.773   8.331  18.782  0.00  0.00    +0.000 HD
ENDBRANCH   1  10
BRANCH   5  14
ATOM     14  C   UNL     1      49.018   7.793  12.356  0.00  0.00    +0.000 C 
BRANCH  14  15
ATOM     15  C   UNL     1      47.530   7.697  12.136  0.00  0.00    +0.000 A 
ATOM     16  C   UNL     1      46.742   8.856  12.084  0.00  0.00    +0.000 A 
ATOM     17  C   UNL     1      45.370   8.772  11.852  0.00  0.00    +0.000 A 
ATOM     18  C   UNL     1      44.769   7.529  11.653  0.00  0.00    +0.000 A 
ATOM     19  C   UNL     1      45.538   6.364  11.688  0.00  0.00    +0.000 A 
ATOM     20  C   UNL     1      46.913   6.451  11.938  0.00  0.00    +0.000 A 
BRANCH  19  21
ATOM     21  C   UNL     1      44.926   5.063  11.404  0.00  0.00    +0.000 C 
ATOM     22  C   UNL     1      44.358   4.346  12.389  0.00  0.00    +0.000 C 
ATOM     23  C   UNL     1      43.697   3.024  12.139  0.00  0.00    +0.000 C 
ATOM     24  O   UNL     1      43.455   2.792  10.747  0.00  0.00    +0.000 OA
ATOM     25  C   UNL     1      44.615   3.056   9.955  0.00  0.00    +0.000 C 
ATOM     26  C   UNL     1      44.959   4.548   9.994  0.00  0.00    +0.000 C 
ENDBRANCH  19  21
ENDBRANCH  14  15
ENDBRANCH   5  14
TORSDOF 4
ENDMDL
