MODEL 1
REMARK VINA RESULT:    -9.192      0.000      0.000
REMARK INTER + INTRA:         -14.617
REMARK INTER:                 -13.490
REMARK INTRA:                  -1.126
REMARK UNBOUND:                -1.126
REMARK  Name = 
REMARK  8 active torsions:
REMARK  status: ('A' for Active; 'I' for Inactive)
REMARK    1  A    between atoms: C_2  and  C_4
REMARK    2  A    between atoms: C_7  and  N_8
REMARK    3  A    between atoms: N_8  and  C_9
REMARK    4  A    between atoms: C_9  and  C_10
REMARK    5  A    between atoms: C_10  and  C_13
REMARK    6  A    between atoms: C_15  and  O_16
REMARK    7  A    between atoms: O_16  and  C_17
REMARK    8  A    between atoms: C_22  and  C_23
REMARK                            x       y       z     vdW  Elec       q    Type
REMARK                         _______ _______ _______ _____ _____    ______ ____
ROOT
ATOM      1  C   UNL     1      43.646   5.633  12.237  0.00  0.00    +0.000 C 
ATOM      2  F   UNL     1      43.402   6.829  11.628  0.00  0.00    +0.000 F 
ATOM      3  F   UNL     1      42.724   5.545  13.246  0.00  0.00    +0.000 F 
ENDROOT
BRANCH   1   4
ATOM      4  C   UNL     1      45.068   5.549  12.758  0.00  0.00    +0.000 A 
ATOM      5  C   UNL     1      45.452   4.489  13.601  0.00  0.00    +0.000 A 
ATOM      6  C   UNL     1      46.749   4.419  14.105  0.00  0.00    +0.000 A 
ATOM      7  C   UNL     1      47.694   5.366  13.713  0.00  0.00    +0.000 A 
ATOM      8  C   UNL     1      47.336   6.411  12.848  0.00  0.00    +0.000 A 
ATOM      9  C   UNL     1      46.012   6.526  12.414  0.00  0.00    +0.000 A 
BRANCH   8  10
ATOM     10  C   UNL     1      48.388   7.359  12.405  0.00  0.00    +0.000 C 
ATOM     11  N   UNL     1      49.695   6.979  12.588  0.00  0.00    +0.000 N 
ATOM     12  O   UNL     1      48.115   8.456  11.936  0.00  0.00    +0.000 OA
ATOM     13  H   UNL     1      49.962   6.202  13.175  0.00  0.00    +0.000 HD
ATOM     14  H   UNL     1      50.390   7.696  12.429  0.00  0.00    +0.000 HD
ENDBRANCH   8  10
BRANCH   6  15
ATOM     15  O   UNL     1      47.196   3.434  14.955  0.00  0.00    +0.000 OA
BRANCH  15  16
ATOM     16  C   UNL     1      47.924   3.824  16.147  0.00  0.00    +0.000 C 
ATOM     17  C   UNL     1      48.423   2.702  17.081  0.00  0.00    +0.000 C 
ATOM     18  N   UNL     1      47.790   3.355  18.234  0.00  0.00    +0.000 NA
ATOM     19  C   UNL     1      47.062   4.273  17.346  0.00  0.00    +0.000 C 
ATOM     20  H   UNL     1      48.441   3.816  18.869  0.00  0.00    +0.000 HD
ENDBRANCH  15  16
ENDBRANCH   6  15
ENDBRANCH   1   4
BRANCH   1  21
ATOM     21  C   UNL     1      43.381   4.484  11.238  0.00  0.00    +0.000 C 
BRANCH  21  22
ATOM     22  N   UNL     1      43.761   4.808   9.855  0.00  0.00    +0.000 N 
ATOM     23  H   UNL     1      43.019   5.235   9.298  0.00  0.00    +0.000 HD
BRANCH  22  27
ATOM     24  C   UNL     1      46.392   2.277   7.753  0.00  0.00    +0.000 A 
ATOM     25  C   UNL     1      45.482   1.723   8.653  0.00  0.00    +0.000 A 
ATOM     26  C   UNL     1      44.593   2.554   9.344  0.00  0.00    +0.000 A 
ATOM     27  C   UNL     1      44.573   3.937   9.132  0.00  0.00    +0.000 A 
ATOM     28  C   UNL     1      45.509   4.479   8.242  0.00  0.00    +0.000 A 
ATOM     29  C   UNL     1      46.418   3.659   7.560  0.00  0.00    +0.000 A 
BRANCH  24  31
ATOM     30  N   UNL     1      48.493   2.044   6.547  0.00  0.00    +0.000 N 
ATOM     31  C   UNL     1      47.366   1.429   7.020  0.00  0.00    +0.000 C 
ATOM     32  O   UNL     1      47.192   0.227   6.871  0.00  0.00    +0.000 OA
ATOM     33  H   UNL     1      49.197   1.437   6.143  0.00  0.00    +0.000 HD
ATOM     34  H   UNL     1      48.788   2.954   6.871  0.00  0.00    +0.000 HD
ENDBRANCH  24  31
ENDBRANCH  22  27
ENDBRANCH  21  22
ENDBRANCH   1  21
TORSDOF 8
ENDMDL
MODEL 2
REMARK VINA RESULT:    -9.180      1.032      3.709
REMARK INTER + INTRA:         -14.600
REMARK INTER:                 -13.433
REMARK INTRA:                  -1.167
REMARK UNBOUND:                -1.126
REMARK  Name = 
REMARK  8 active torsions:
REMARK  status: ('A' for Active; 'I' for Inactive)
REMARK    1  A    between atoms: C_2  and  C_4
REMARK    2  A    between atoms: C_7  and  N_8
REMARK    3  A    between atoms: N_8  and  C_9
REMARK    4  A    between atoms: C_9  and  C_10
REMARK    5  A    between atoms: C_10  and  C_13
REMARK    6  A    between atoms: C_15  and  O_16
REMARK    7  A    between atoms: O_16  and  C_17
REMARK    8  A    between atoms: C_22  and  C_23
REMARK                            x       y       z     vdW  Elec       q    Type
REMARK                         _______ _______ _______ _____ _____    ______ ____
ROOT
ATOM      1  C   UNL     1      43.416   5.562  12.114  0.00  0.00    +0.000 C 
ATOM      2  F   UNL     1      42.994   6.737  11.565  0.00  0.00    +0.000 F 
ATOM      3  F   UNL     1      42.585   5.341  13.180  0.00  0.00    +0.000 F 
ENDROOT
BRANCH   1   4
ATOM      4  C   UNL     1      44.872   5.630  12.533  0.00  0.00    +0.000 A 
ATOM      5  C   UNL     1      45.749   6.532  11.902  0.00  0.00    +0.000 A 
ATOM      6  C   UNL     1      47.094   6.582  12.264  0.00  0.00    +0.000 A 
ATOM      7  C   UNL     1      47.558   5.784  13.309  0.00  0.00    +0.000 A 
ATOM      8  C   UNL     1      46.689   4.903  13.970  0.00  0.00    +0.000 A 
ATOM      9  C   UNL     1      45.361   4.794  13.546  0.00  0.00    +0.000 A 
BRANCH   8  10
ATOM     10  C   UNL     1      47.209   4.120  15.118  0.00  0.00    +0.000 C 
ATOM     11  N   UNL     1      47.200   4.729  16.349  0.00  0.00    +0.000 N 
ATOM     12  O   UNL     1      47.672   2.995  14.978  0.00  0.00    +0.000 OA
ATOM     13  H   UNL     1      47.052   5.720  16.469  0.00  0.00    +0.000 HD
ATOM     14  H   UNL     1      47.700   4.245  17.084  0.00  0.00    +0.000 HD
ENDBRANCH   8  10
BRANCH   6  15
ATOM     15  O   UNL     1      48.021   7.413  11.678  0.00  0.00    +0.000 OA
BRANCH  15  16
ATOM     16  C   UNL     1      49.346   7.493  12.261  0.00  0.00    +0.000 C 
ATOM     17  C   UNL     1      49.756   8.822  12.930  0.00  0.00    +0.000 C 
ATOM     18  N   UNL     1      50.986   8.867  12.129  0.00  0.00    +0.000 NA
ATOM     19  C   UNL     1      50.500   7.774  11.274  0.00  0.00    +0.000 C 
ATOM     20  H   UNL     1      51.836   8.645  12.647  0.00  0.00    +0.000 HD
ENDBRANCH  15  16
ENDBRANCH   6  15
ENDBRANCH   1   4
BRANCH   1  21
ATOM     21  C   UNL     1      43.213   4.417  11.097  0.00  0.00    +0.000 C 
BRANCH  21  22
ATOM     22  N   UNL     1      43.662   4.751   9.737  0.00  0.00    +0.000 N 
ATOM     23  H   UNL     1      42.920   5.054   9.105  0.00  0.00    +0.000 HD
BRANCH  22  27
ATOM     24  C   UNL     1      46.475   2.310   7.767  0.00  0.00    +0.000 A 
ATOM     25  C   UNL     1      46.500   3.689   7.559  0.00  0.00    +0.000 A 
ATOM     26  C   UNL     1      45.580   4.511   8.221  0.00  0.00    +0.000 A 
ATOM     27  C   UNL     1      44.645   3.982   9.118  0.00  0.00    +0.000 A 
ATOM     28  C   UNL     1      44.618   2.593   9.297  0.00  0.00    +0.000 A 
ATOM     29  C   UNL     1      45.520   1.759   8.623  0.00  0.00    +0.000 A 
BRANCH  24  31
ATOM     30  N   UNL     1      48.504   1.986   6.464  0.00  0.00    +0.000 N 
ATOM     31  C   UNL     1      47.419   1.406   7.063  0.00  0.00    +0.000 C 
ATOM     32  O   UNL     1      47.259   0.194   7.043  0.00  0.00    +0.000 OA
ATOM     33  H   UNL     1      49.194   1.351   6.079  0.00  0.00    +0.000 HD
ATOM     34  H   UNL     1      48.801   2.927   6.678  0.00  0.00    +0.000 HD
ENDBRANCH  24  31
ENDBRANCH  22  27
ENDBRANCH  21  22
ENDBRANCH   1  21
TORSDOF 8
ENDMDL
MODEL 3
REMARK VINA RESULT:    -8.229      2.093      2.354
REMARK INTER + INTRA:         -13.203
REMARK INTER:                 -12.227
REMARK INTRA:                  -0.976
REMARK UNBOUND:                -1.126
REMARK  Name = 
REMARK  8 active torsions:
REMARK  status: ('A' for Active; 'I' for Inactive)
REMARK    1  A    between atoms: C_2  and  C_4
REMARK    2  A    between atoms: C_7  and  N_8
REMARK    3  A    between atoms: N_8  and  C_9
REMARK    4  A    between atoms: C_9  and  C_10
REMARK    5  A    between atoms: C_10  and  C_13
REMARK    6  A    between atoms: C_15  and  O_16
REMARK    7  A    between atoms: O_16  and  C_17
REMARK    8  A    between atoms: C_22  and  C_23
REMARK                            x       y       z     vdW  Elec       q    Type
REMARK                         _______ _______ _______ _____ _____    ______ ____
ROOT
ATOM      1  C   UNL     1      44.420   4.261  12.659  0.00  0.00    +0.000 C 
ATOM      2  F   UNL     1      43.434   4.197  13.599  0.00  0.00    +0.000 F 
ATOM      3  F   UNL     1      45.078   3.063  12.742  0.00  0.00    +0.000 F 
ENDROOT
BRANCH   1   4
ATOM      4  C   UNL     1      45.348   5.436  12.898  0.00  0.00    +0.000 A 
ATOM      5  C   UNL     1      46.598   5.237  13.513  0.00  0.00    +0.000 A 
ATOM      6  C   UNL     1      47.445   6.316  13.760  0.00  0.00    +0.000 A 
ATOM      7  C   UNL     1      47.082   7.591  13.329  0.00  0.00    +0.000 A 
ATOM      8  C   UNL     1      45.853   7.801  12.686  0.00  0.00    +0.000 A 
ATOM      9  C   UNL     1      44.970   6.731  12.518  0.00  0.00    +0.000 A 
BRANCH   8  10
ATOM     10  C   UNL     1      45.536   9.162  12.187  0.00  0.00    +0.000 C 
ATOM     11  N   UNL     1      46.339  10.191  12.614  0.00  0.00    +0.000 N 
ATOM     12  O   UNL     1      44.574   9.377  11.462  0.00  0.00    +0.000 OA
ATOM     13  H   UNL     1      46.985  10.099  13.384  0.00  0.00    +0.000 HD
ATOM     14  H   UNL     1      46.016  11.124  12.393  0.00  0.00    +0.000 HD
ENDBRANCH   8  10
BRANCH   6  15
ATOM     15  O   UNL     1      48.669   6.211  14.380  0.00  0.00    +0.000 OA
BRANCH  15  16
ATOM     16  C   UNL     1      48.734   6.379  15.818  0.00  0.00    +0.000 C 
ATOM     17  C   UNL     1      50.119   6.271  16.490  0.00  0.00    +0.000 C 
ATOM     18  N   UNL     1      49.601   5.280  17.441  0.00  0.00    +0.000 NA
ATOM     19  C   UNL     1      48.364   5.139  16.659  0.00  0.00    +0.000 C 
ATOM     20  H   UNL     1      49.459   5.635  18.387  0.00  0.00    +0.000 HD
ENDBRANCH  15  16
ENDBRANCH   6  15
ENDBRANCH   1   4
BRANCH   1  21
ATOM     21  C   UNL     1      43.784   4.368  11.255  0.00  0.00    +0.000 C 
BRANCH  21  22
ATOM     22  N   UNL     1      43.794   3.102  10.507  0.00  0.00    +0.000 N 
ATOM     23  H   UNL     1      43.726   2.263  11.085  0.00  0.00    +0.000 HD
BRANCH  22  27
ATOM     24  C   UNL     1      46.450   2.796   7.250  0.00  0.00    +0.000 A 
ATOM     25  C   UNL     1      46.150   1.658   7.999  0.00  0.00    +0.000 A 
ATOM     26  C   UNL     1      45.257   1.745   9.073  0.00  0.00    +0.000 A 
ATOM     27  C   UNL     1      44.627   2.952   9.400  0.00  0.00    +0.000 A 
ATOM     28  C   UNL     1      44.957   4.090   8.653  0.00  0.00    +0.000 A 
ATOM     29  C   UNL     1      45.866   4.018   7.589  0.00  0.00    +0.000 A 
BRANCH  24  31
ATOM     30  N   UNL     1      48.693   2.367   6.412  0.00  0.00    +0.000 N 
ATOM     31  C   UNL     1      47.411   2.745   6.120  0.00  0.00    +0.000 C 
ATOM     32  O   UNL     1      47.072   2.995   4.972  0.00  0.00    +0.000 OA
ATOM     33  H   UNL     1      49.311   2.235   5.620  0.00  0.00    +0.000 HD
ATOM     34  H   UNL     1      48.938   1.910   7.279  0.00  0.00    +0.000 HD
ENDBRANCH  24  31
ENDBRANCH  22  27
ENDBRANCH  21  22
ENDBRANCH   1  21
TORSDOF 8
ENDMDL
MODEL 4
REMARK VINA RESULT:    -7.997      1.868      3.761
REMARK INTER + INTRA:         -12.864
REMARK INTER:                 -12.014
REMARK INTRA:                  -0.849
REMARK UNBOUND:                -1.126
REMARK  Name = 
REMARK  8 active torsions:
REMARK  status: ('A' for Active; 'I' for Inactive)
REMARK    1  A    between atoms: C_2  and  C_4
REMARK    2  A    between atoms: C_7  and  N_8
REMARK    3  A    between atoms: N_8  and  C_9
REMARK    4  A    between atoms: C_9  and  C_10
REMARK    5  A    between atoms: C_10  and  C_13
REMARK    6  A    between atoms: C_15  and  O_16
REMARK    7  A    between atoms: O_16  and  C_17
REMARK    8  A    between atoms: C_22  and  C_23
REMARK                            x       y       z     vdW  Elec       q    Type
REMARK                         _______ _______ _______ _____ _____    ______ ____
ROOT
ATOM      1  C   UNL     1      44.897   6.484  11.484  0.00  0.00    +0.000 C 
ATOM      2  F   UNL     1      45.390   6.812  10.256  0.00  0.00    +0.000 F 
ATOM      3  F   UNL     1      43.998   7.470  11.790  0.00  0.00    +0.000 F 
ENDROOT
BRANCH   1   4
ATOM      4  C   UNL     1      46.000   6.379  12.520  0.00  0.00    +0.000 A 
ATOM      5  C   UNL     1      46.904   7.442  12.703  0.00  0.00    +0.000 A 
ATOM      6  C   UNL     1      47.936   7.342  13.635  0.00  0.00    +0.000 A 
ATOM      7  C   UNL     1      48.028   6.210  14.443  0.00  0.00    +0.000 A 
ATOM      8  C   UNL     1      47.115   5.155  14.296  0.00  0.00    +0.000 A 
ATOM      9  C   UNL     1      46.135   5.223  13.301  0.00  0.00    +0.000 A 
BRANCH   8  10
ATOM     10  C   UNL     1      47.211   3.999  15.221  0.00  0.00    +0.000 C 
ATOM     11  N   UNL     1      46.844   4.206  16.528  0.00  0.00    +0.000 N 
ATOM     12  O   UNL     1      47.641   2.912  14.856  0.00  0.00    +0.000 OA
ATOM     13  H   UNL     1      46.712   5.127  16.920  0.00  0.00    +0.000 HD
ATOM     14  H   UNL     1      47.064   3.458  17.173  0.00  0.00    +0.000 HD
ENDBRANCH   8  10
BRANCH   6  15
ATOM     15  O   UNL     1      48.876   8.322  13.854  0.00  0.00    +0.000 OA
BRANCH  15  16
ATOM     16  C   UNL     1      48.458   9.552  14.496  0.00  0.00    +0.000 C 
ATOM     17  C   UNL     1      49.441  10.741  14.477  0.00  0.00    +0.000 C 
ATOM     18  N   UNL     1      49.321  10.888  15.933  0.00  0.00    +0.000 NA
ATOM     19  C   UNL     1      48.620   9.599  16.031  0.00  0.00    +0.000 C 
ATOM     20  H   UNL     1      48.765  11.689  16.233  0.00  0.00    +0.000 HD
ENDBRANCH  15  16
ENDBRANCH   6  15
ENDBRANCH   1   4
BRANCH   1  21
ATOM     21  C   UNL     1      44.132   5.144  11.390  0.00  0.00    +0.000 C 
BRANCH  21  22
ATOM     22  N   UNL     1      43.828   4.737  10.010  0.00  0.00    +0.000 N 
ATOM     23  H   UNL     1      42.855   4.479   9.846  0.00  0.00    +0.000 HD
BRANCH  22  27
ATOM     24  C   UNL     1      46.415   2.287   7.761  0.00  0.00    +0.000 A 
ATOM     25  C   UNL     1      46.447   3.669   7.575  0.00  0.00    +0.000 A 
ATOM     26  C   UNL     1      45.603   4.493   8.328  0.00  0.00    +0.000 A 
ATOM     27  C   UNL     1      44.740   3.963   9.295  0.00  0.00    +0.000 A 
ATOM     28  C   UNL     1      44.704   2.571   9.452  0.00  0.00    +0.000 A 
ATOM     29  C   UNL     1      45.529   1.735   8.688  0.00  0.00    +0.000 A 
BRANCH  24  31
ATOM     30  N   UNL     1      48.383   1.934   6.373  0.00  0.00    +0.000 N 
ATOM     31  C   UNL     1      47.279   1.381   6.962  0.00  0.00    +0.000 C 
ATOM     32  O   UNL     1      47.039   0.186   6.857  0.00  0.00    +0.000 OA
ATOM     33  H   UNL     1      49.019   1.288   5.920  0.00  0.00    +0.000 HD
ATOM     34  H   UNL     1      48.747   2.836   6.647  0.00  0.00    +0.000 HD
ENDBRANCH  24  31
ENDBRANCH  22  27
ENDBRANCH  21  22
ENDBRANCH   1  21
TORSDOF 8
ENDMDL
MODEL 5
REMARK VINA RESULT:    -7.491      2.486      8.118
REMARK INTER + INTRA:         -12.120
REMARK INTER:                 -11.372
REMARK INTRA:                  -0.748
REMARK UNBOUND:                -1.126
REMARK  Name = 
REMARK  8 active torsions:
REMARK  status: ('A' for Active; 'I' for Inactive)
REMARK    1  A    between atoms: C_2  and  C_4
REMARK    2  A    between atoms: C_7  and  N_8
REMARK    3  A    between atoms: N_8  and  C_9
REMARK    4  A    between atoms: C_9  and  C_10
REMARK    5  A    between atoms: C_10  and  C_13
REMARK    6  A    between atoms: C_15  and  O_16
REMARK    7  A    between atoms: O_16  and  C_17
REMARK    8  A    between atoms: C_22  and  C_23
REMARK                            x       y       z     vdW  Elec       q    Type
REMARK                         _______ _______ _______ _____ _____    ______ ____
ROOT
ATOM      1  C   UNL     1      46.425   6.992  11.534  0.00  0.00    +0.000 C 
ATOM      2  F   UNL     1      45.761   8.150  11.253  0.00  0.00    +0.000 F 
ATOM      3  F   UNL     1      47.689   7.170  11.039  0.00  0.00    +0.000 F 
ENDROOT
BRANCH   1   4
ATOM      4  C   UNL     1      45.738   5.788  10.917  0.00  0.00    +0.000 A 
ATOM      5  C   UNL     1      45.965   5.458   9.568  0.00  0.00    +0.000 A 
ATOM      6  C   UNL     1      45.316   4.369   8.987  0.00  0.00    +0.000 A 
ATOM      7  C   UNL     1      44.494   3.558   9.769  0.00  0.00    +0.000 A 
ATOM      8  C   UNL     1      44.283   3.855  11.123  0.00  0.00    +0.000 A 
ATOM      9  C   UNL     1      44.867   4.998  11.679  0.00  0.00    +0.000 A 
BRANCH   8  10
ATOM     10  C   UNL     1      43.453   2.930  11.933  0.00  0.00    +0.000 C 
ATOM     11  N   UNL     1      43.440   3.122  13.292  0.00  0.00    +0.000 N 
ATOM     12  O   UNL     1      42.836   2.002  11.426  0.00  0.00    +0.000 OA
ATOM     13  H   UNL     1      44.106   3.714  13.768  0.00  0.00    +0.000 HD
ATOM     14  H   UNL     1      43.000   2.392  13.838  0.00  0.00    +0.000 HD
ENDBRANCH   8  10
BRANCH   6  15
ATOM     15  O   UNL     1      45.461   3.996   7.671  0.00  0.00    +0.000 OA
BRANCH  15  16
ATOM     16  C   UNL     1      46.695   3.351   7.265  0.00  0.00    +0.000 C 
ATOM     17  C   UNL     1      46.819   2.902   5.794  0.00  0.00    +0.000 C 
ATOM     18  N   UNL     1      47.197   1.549   6.220  0.00  0.00    +0.000 NA
ATOM     19  C   UNL     1      46.815   1.851   7.607  0.00  0.00    +0.000 C 
ATOM     20  H   UNL     1      48.186   1.329   6.098  0.00  0.00    +0.000 HD
ENDBRANCH  15  16
ENDBRANCH   6  15
ENDBRANCH   1   4
BRANCH   1  21
ATOM     21  C   UNL     1      46.525   6.815  13.066  0.00  0.00    +0.000 C 
BRANCH  21  22
ATOM     22  N   UNL     1      47.549   5.844  13.480  0.00  0.00    +0.000 N 
ATOM     23  H   UNL     1      47.627   5.023  12.878  0.00  0.00    +0.000 HD
BRANCH  22  27
ATOM     24  C   UNL     1      48.215   4.812  17.510  0.00  0.00    +0.000 A 
ATOM     25  C   UNL     1      48.822   5.953  16.986  0.00  0.00    +0.000 A 
ATOM     26  C   UNL     1      48.595   6.314  15.653  0.00  0.00    +0.000 A 
ATOM     27  C   UNL     1      47.742   5.567  14.832  0.00  0.00    +0.000 A 
ATOM     28  C   UNL     1      47.159   4.411  15.367  0.00  0.00    +0.000 A 
ATOM     29  C   UNL     1      47.397   4.029  16.694  0.00  0.00    +0.000 A 
BRANCH  24  31
ATOM     30  N   UNL     1      48.389   3.045  19.174  0.00  0.00    +0.000 N 
ATOM     31  C   UNL     1      48.453   4.387  18.912  0.00  0.00    +0.000 C 
ATOM     32  O   UNL     1      48.728   5.189  19.794  0.00  0.00    +0.000 OA
ATOM     33  H   UNL     1      48.656   2.759  20.108  0.00  0.00    +0.000 HD
ATOM     34  H   UNL     1      48.425   2.350  18.442  0.00  0.00    +0.000 HD
ENDBRANCH  24  31
ENDBRANCH  22  27
ENDBRANCH  21  22
ENDBRANCH   1  21
TORSDOF 8
ENDMDL
MODEL 6
REMARK VINA RESULT:    -6.825      3.810      7.410
REMARK INTER + INTRA:         -11.143
REMARK INTER:                 -10.709
REMARK INTRA:                  -0.434
REMARK UNBOUND:                -1.126
REMARK  Name = 
REMARK  8 active torsions:
REMARK  status: ('A' for Active; 'I' for Inactive)
REMARK    1  A    between atoms: C_2  and  C_4
REMARK    2  A    between atoms: C_7  and  N_8
REMARK    3  A    between atoms: N_8  and  C_9
REMARK    4  A    between atoms: C_9  and  C_10
REMARK    5  A    between atoms: C_10  and  C_13
REMARK    6  A    between atoms: C_15  and  O_16
REMARK    7  A    between atoms: O_16  and  C_17
REMARK    8  A    between atoms: C_22  and  C_23
REMARK                            x       y       z     vdW  Elec       q    Type
REMARK                         _______ _______ _______ _____ _____    ______ ____
ROOT
ATOM      1  C   UNL     1      47.621   6.232  13.933  0.00  0.00    +0.000 C 
ATOM      2  F   UNL     1      48.010   7.169  14.844  0.00  0.00    +0.000 F 
ATOM      3  F   UNL     1      48.750   5.925  13.223  0.00  0.00    +0.000 F 
ENDROOT
BRANCH   1   4
ATOM      4  C   UNL     1      46.510   6.748  13.038  0.00  0.00    +0.000 A 
ATOM      5  C   UNL     1      45.697   5.845  12.328  0.00  0.00    +0.000 A 
ATOM      6  C   UNL     1      44.691   6.313  11.483  0.00  0.00    +0.000 A 
ATOM      7  C   UNL     1      44.442   7.682  11.398  0.00  0.00    +0.000 A 
ATOM      8  C   UNL     1      45.223   8.593  12.124  0.00  0.00    +0.000 A 
ATOM      9  C   UNL     1      46.286   8.124  12.903  0.00  0.00    +0.000 A 
BRANCH   8  10
ATOM     10  C   UNL     1      44.883  10.035  12.054  0.00  0.00    +0.000 C 
ATOM     11  N   UNL     1      43.559  10.376  12.189  0.00  0.00    +0.000 N 
ATOM     12  O   UNL     1      45.731  10.891  11.840  0.00  0.00    +0.000 OA
ATOM     13  H   UNL     1      42.811   9.700  12.131  0.00  0.00    +0.000 HD
ATOM     14  H   UNL     1      43.327  11.339  11.982  0.00  0.00    +0.000 HD
ENDBRANCH   8  10
BRANCH   6  15
ATOM     15  O   UNL     1      43.873   5.500  10.734  0.00  0.00    +0.000 OA
BRANCH  15  16
ATOM     16  C   UNL     1      43.082   4.495  11.416  0.00  0.00    +0.000 C 
ATOM     17  C   UNL     1      43.219   4.393  12.949  0.00  0.00    +0.000 C 
ATOM     18  N   UNL     1      43.487   2.954  12.849  0.00  0.00    +0.000 NA
ATOM     19  C   UNL     1      43.650   3.060  11.391  0.00  0.00    +0.000 C 
ATOM     20  H   UNL     1      42.712   2.358  13.140  0.00  0.00    +0.000 HD
ENDBRANCH  15  16
ENDBRANCH   6  15
ENDBRANCH   1   4
BRANCH   1  21
ATOM     21  C   UNL     1      47.153   4.959  14.674  0.00  0.00    +0.000 C 
BRANCH  21  22
ATOM     22  N   UNL     1      47.444   4.977  16.115  0.00  0.00    +0.000 N 
ATOM     23  H   UNL     1      47.316   5.884  16.565  0.00  0.00    +0.000 HD
BRANCH  22  27
ATOM     24  C   UNL     1      50.716   2.677  17.442  0.00  0.00    +0.000 A 
ATOM     25  C   UNL     1      50.798   4.069  17.475  0.00  0.00    +0.000 A 
ATOM     26  C   UNL     1      49.711   4.842  17.051  0.00  0.00    +0.000 A 
ATOM     27  C   UNL     1      48.520   4.249  16.619  0.00  0.00    +0.000 A 
ATOM     28  C   UNL     1      48.462   2.850  16.570  0.00  0.00    +0.000 A 
ATOM     29  C   UNL     1      49.552   2.066  16.972  0.00  0.00    +0.000 A 
BRANCH  24  31
ATOM     30  N   UNL     1      51.622   0.483  17.975  0.00  0.00    +0.000 N 
ATOM     31  C   UNL     1      51.858   1.826  17.861  0.00  0.00    +0.000 C 
ATOM     32  O   UNL     1      52.970   2.292  18.065  0.00  0.00    +0.000 OA
ATOM     33  H   UNL     1      52.432  -0.098  18.159  0.00  0.00    +0.000 HD
ATOM     34  H   UNL     1      50.809   0.041  17.571  0.00  0.00    +0.000 HD
ENDBRANCH  24  31
ENDBRANCH  22  27
ENDBRANCH  21  22
ENDBRANCH   1  21
TORSDOF 8
ENDMDL
MODEL 7
REMARK VINA RESULT:    -6.591      3.511      7.126
REMARK INTER + INTRA:         -10.800
REMARK INTER:                  -9.541
REMARK INTRA:                  -1.259
REMARK UNBOUND:                -1.126
REMARK  Name = 
REMARK  8 active torsions:
REMARK  status: ('A' for Active; 'I' for Inactive)
REMARK    1  A    between atoms: C_2  and  C_4
REMARK    2  A    between atoms: C_7  and  N_8
REMARK    3  A    between atoms: N_8  and  C_9
REMARK    4  A    between atoms: C_9  and  C_10
REMARK    5  A    between atoms: C_10  and  C_13
REMARK    6  A    between atoms: C_15  and  O_16
REMARK    7  A    between atoms: O_16  and  C_17
REMARK    8  A    between atoms: C_22  and  C_23
REMARK                            x       y       z     vdW  Elec       q    Type
REMARK                         _______ _______ _______ _____ _____    ______ ____
ROOT
ATOM      1  C   UNL     1      48.700   7.994  12.984  0.00  0.00    +0.000 C 
ATOM      2  F   UNL     1      48.937   8.051  11.642  0.00  0.00    +0.000 F 
ATOM      3  F   UNL     1      49.935   8.057  13.573  0.00  0.00    +0.000 F 
ENDROOT
BRANCH   1   4
ATOM      4  C   UNL     1      47.952   6.732  13.368  0.00  0.00    +0.000 A 
ATOM      5  C   UNL     1      47.099   6.104  12.441  0.00  0.00    +0.000 A 
ATOM      6  C   UNL     1      46.387   4.959  12.796  0.00  0.00    +0.000 A 
ATOM      7  C   UNL     1      46.578   4.391  14.054  0.00  0.00    +0.000 A 
ATOM      8  C   UNL     1      47.449   4.986  14.979  0.00  0.00    +0.000 A 
ATOM      9  C   UNL     1      48.094   6.182  14.649  0.00  0.00    +0.000 A 
BRANCH   8  10
ATOM     10  C   UNL     1      47.671   4.312  16.282  0.00  0.00    +0.000 C 
ATOM     11  N   UNL     1      47.158   4.922  17.400  0.00  0.00    +0.000 N 
ATOM     12  O   UNL     1      48.322   3.279  16.374  0.00  0.00    +0.000 OA
ATOM     13  H   UNL     1      46.827   5.875  17.401  0.00  0.00    +0.000 HD
ATOM     14  H   UNL     1      47.452   4.535  18.288  0.00  0.00    +0.000 HD
ENDBRANCH   8  10
BRANCH   6  15
ATOM     15  O   UNL     1      45.515   4.303  11.959  0.00  0.00    +0.000 OA
BRANCH  15  16
ATOM     16  C   UNL     1      44.921   5.039  10.861  0.00  0.00    +0.000 C 
ATOM     17  C   UNL     1      43.459   4.715  10.488  0.00  0.00    +0.000 C 
ATOM     18  N   UNL     1      43.842   4.515   9.085  0.00  0.00    +0.000 NA
ATOM     19  C   UNL     1      45.267   4.531   9.445  0.00  0.00    +0.000 C 
ATOM     20  H   UNL     1      43.561   5.269   8.458  0.00  0.00    +0.000 HD
ENDBRANCH  15  16
ENDBRANCH   6  15
ENDBRANCH   1   4
BRANCH   1  21
ATOM     21  C   UNL     1      47.893   9.239  13.416  0.00  0.00    +0.000 C 
BRANCH  21  22
ATOM     22  N   UNL     1      47.433  10.062  12.288  0.00  0.00    +0.000 N 
ATOM     23  H   UNL     1      47.876  10.979  12.219  0.00  0.00    +0.000 HD
BRANCH  22  27
ATOM     24  C   UNL     1      43.419  10.153  11.010  0.00  0.00    +0.000 A 
ATOM     25  C   UNL     1      43.994   8.936  11.375  0.00  0.00    +0.000 A 
ATOM     26  C   UNL     1      45.322   8.897  11.816  0.00  0.00    +0.000 A 
ATOM     27  C   UNL     1      46.086  10.064  11.930  0.00  0.00    +0.000 A 
ATOM     28  C   UNL     1      45.501  11.275  11.537  0.00  0.00    +0.000 A 
ATOM     29  C   UNL     1      44.179  11.322  11.074  0.00  0.00    +0.000 A 
BRANCH  24  31
ATOM     30  N   UNL     1      41.096   9.443  11.146  0.00  0.00    +0.000 N 
ATOM     31  C   UNL     1      42.021  10.229  10.515  0.00  0.00    +0.000 C 
ATOM     32  O   UNL     1      41.697  10.982   9.607  0.00  0.00    +0.000 OA
ATOM     33  H   UNL     1      40.130   9.581  10.870  0.00  0.00    +0.000 HD
ATOM     34  H   UNL     1      41.270   9.018  12.045  0.00  0.00    +0.000 HD
ENDBRANCH  24  31
ENDBRANCH  22  27
ENDBRANCH  21  22
ENDBRANCH   1  21
TORSDOF 8
ENDMDL
MODEL 8
REMARK VINA RESULT:    -6.579      4.118      7.517
REMARK INTER + INTRA:         -10.782
REMARK INTER:                  -8.733
REMARK INTRA:                  -2.049
REMARK UNBOUND:                -1.126
REMARK  Name = 
REMARK  8 active torsions:
REMARK  status: ('A' for Active; 'I' for Inactive)
REMARK    1  A    between atoms: C_2  and  C_4
REMARK    2  A    between atoms: C_7  and  N_8
REMARK    3  A    between atoms: N_8  and  C_9
REMARK    4  A    between atoms: C_9  and  C_10
REMARK    5  A    between atoms: C_10  and  C_13
REMARK    6  A    between atoms: C_15  and  O_16
REMARK    7  A    between atoms: O_16  and  C_17
REMARK    8  A    between atoms: C_22  and  C_23
REMARK                            x       y       z     vdW  Elec       q    Type
REMARK                         _______ _______ _______ _____ _____    ______ ____
ROOT
ATOM      1  C   UNL     1      48.090   7.995  12.744  0.00  0.00    +0.000 C 
ATOM      2  F   UNL     1      47.628   9.141  13.320  0.00  0.00    +0.000 F 
ATOM      3  F   UNL     1      48.173   8.271  11.405  0.00  0.00    +0.000 F 
ENDROOT
BRANCH   1   4
ATOM      4  C   UNL     1      47.178   6.817  13.026  0.00  0.00    +0.000 A 
ATOM      5  C   UNL     1      47.625   5.752  13.830  0.00  0.00    +0.000 A 
ATOM      6  C   UNL     1      46.801   4.653  14.072  0.00  0.00    +0.000 A 
ATOM      7  C   UNL     1      45.499   4.645  13.575  0.00  0.00    +0.000 A 
ATOM      8  C   UNL     1      45.027   5.714  12.799  0.00  0.00    +0.000 A 
ATOM      9  C   UNL     1      45.885   6.773  12.487  0.00  0.00    +0.000 A 
BRANCH   8  10
ATOM     10  C   UNL     1      43.614   5.693  12.345  0.00  0.00    +0.000 C 
ATOM     11  N   UNL     1      43.256   6.587  11.366  0.00  0.00    +0.000 N 
ATOM     12  O   UNL     1      42.783   4.947  12.847  0.00  0.00    +0.000 OA
ATOM     13  H   UNL     1      43.837   7.367  11.096  0.00  0.00    +0.000 HD
ATOM     14  H   UNL     1      42.264   6.667  11.183  0.00  0.00    +0.000 HD
ENDBRANCH   8  10
BRANCH   6  15
ATOM     15  O   UNL     1      47.171   3.561  14.821  0.00  0.00    +0.000 OA
BRANCH  15  16
ATOM     16  C   UNL     1      47.837   3.784  16.089  0.00  0.00    +0.000 C 
ATOM     17  C   UNL     1      48.368   2.549  16.847  0.00  0.00    +0.000 C 
ATOM     18  N   UNL     1      47.661   2.968  18.064  0.00  0.00    +0.000 NA
ATOM     19  C   UNL     1      46.912   3.983  17.309  0.00  0.00    +0.000 C 
ATOM     20  H   UNL     1      48.265   3.350  18.792  0.00  0.00    +0.000 HD
ENDBRANCH  15  16
ENDBRANCH   6  15
ENDBRANCH   1   4
BRANCH   1  21
ATOM     21  C   UNL     1      49.514   7.696  13.265  0.00  0.00    +0.000 C 
BRANCH  21  22
ATOM     22  N   UNL     1      49.854   8.424  14.497  0.00  0.00    +0.000 N 
ATOM     23  H   UNL     1      50.611   9.103  14.396  0.00  0.00    +0.000 HD
BRANCH  22  27
ATOM     24  C   UNL     1      49.664   6.334  18.150  0.00  0.00    +0.000 A 
ATOM     25  C   UNL     1      50.706   6.067  17.262  0.00  0.00    +0.000 A 
ATOM     26  C   UNL     1      50.787   6.767  16.052  0.00  0.00    +0.000 A 
ATOM     27  C   UNL     1      49.857   7.760  15.721  0.00  0.00    +0.000 A 
ATOM     28  C   UNL     1      48.805   7.999  16.614  0.00  0.00    +0.000 A 
ATOM     29  C   UNL     1      48.702   7.289  17.818  0.00  0.00    +0.000 A 
BRANCH  24  31
ATOM     30  N   UNL     1      50.100   4.350  19.489  0.00  0.00    +0.000 N 
ATOM     31  C   UNL     1      49.533   5.594  19.431  0.00  0.00    +0.000 C 
ATOM     32  O   UNL     1      48.975   6.081  20.404  0.00  0.00    +0.000 OA
ATOM     33  H   UNL     1      50.095   3.900  20.397  0.00  0.00    +0.000 HD
ATOM     34  H   UNL     1      50.777   4.032  18.812  0.00  0.00    +0.000 HD
ENDBRANCH  24  31
ENDBRANCH  22  27
ENDBRANCH  21  22
ENDBRANCH   1  21
TORSDOF 8
ENDMDL
MODEL 9
REMARK VINA RESULT:    -6.564      3.437      4.831
REMARK INTER + INTRA:         -10.760
REMARK INTER:                  -9.448
REMARK INTRA:                  -1.312
REMARK UNBOUND:                -1.126
REMARK  Name = 
REMARK  8 active torsions:
REMARK  status: ('A' for Active; 'I' for Inactive)
REMARK    1  A    between atoms: C_2  and  C_4
REMARK    2  A    between atoms: C_7  and  N_8
REMARK    3  A    between atoms: N_8  and  C_9
REMARK    4  A    between atoms: C_9  and  C_10
REMARK    5  A    between atoms: C_10  and  C_13
REMARK    6  A    between atoms: C_15  and  O_16
REMARK    7  A    between atoms: O_16  and  C_17
REMARK    8  A    between atoms: C_22  and  C_23
REMARK                            x       y       z     vdW  Elec       q    Type
REMARK                         _______ _______ _______ _____ _____    ______ ____
ROOT
ATOM      1  C   UNL     1      48.319   8.206  12.778  0.00  0.00    +0.000 C 
ATOM      2  F   UNL     1      48.602   7.096  12.038  0.00  0.00    +0.000 F 
ATOM      3  F   UNL     1      49.137   9.188  12.287  0.00  0.00    +0.000 F 
ENDROOT
BRANCH   1   4
ATOM      4  C   UNL     1      48.545   7.966  14.258  0.00  0.00    +0.000 A 
ATOM      5  C   UNL     1      48.938   6.695  14.718  0.00  0.00    +0.000 A 
ATOM      6  C   UNL     1      49.122   6.461  16.080  0.00  0.00    +0.000 A 
ATOM      7  C   UNL     1      48.987   7.511  16.985  0.00  0.00    +0.000 A 
ATOM      8  C   UNL     1      48.628   8.792  16.540  0.00  0.00    +0.000 A 
ATOM      9  C   UNL     1      48.360   9.002  15.184  0.00  0.00    +0.000 A 
BRANCH   8  10
ATOM     10  C   UNL     1      48.559   9.895  17.530  0.00  0.00    +0.000 C 
ATOM     11  N   UNL     1      47.797  10.990  17.200  0.00  0.00    +0.000 N 
ATOM     12  O   UNL     1      49.187   9.863  18.580  0.00  0.00    +0.000 OA
ATOM     13  H   UNL     1      47.460  11.160  16.264  0.00  0.00    +0.000 HD
ATOM     14  H   UNL     1      47.889  11.791  17.810  0.00  0.00    +0.000 HD
ENDBRANCH   8  10
BRANCH   6  15
ATOM     15  O   UNL     1      49.477   5.243  16.612  0.00  0.00    +0.000 OA
BRANCH  15  16
ATOM     16  C   UNL     1      48.512   4.536  17.431  0.00  0.00    +0.000 C 
ATOM     17  C   UNL     1      48.583   2.995  17.453  0.00  0.00    +0.000 C 
ATOM     18  N   UNL     1      47.156   2.906  17.119  0.00  0.00    +0.000 NA
ATOM     19  C   UNL     1      47.113   4.342  16.807  0.00  0.00    +0.000 C 
ATOM     20  H   UNL     1      46.556   2.629  17.897  0.00  0.00    +0.000 HD
ENDBRANCH  15  16
ENDBRANCH   6  15
ENDBRANCH   1   4
BRANCH   1  21
ATOM     21  C   UNL     1      46.853   8.628  12.530  0.00  0.00    +0.000 C 
BRANCH  21  22
ATOM     22  N   UNL     1      45.871   7.778  13.219  0.00  0.00    +0.000 N 
ATOM     23  H   UNL     1      46.004   7.705  14.229  0.00  0.00    +0.000 HD
BRANCH  22  27
ATOM     24  C   UNL     1      44.452   4.149  11.615  0.00  0.00    +0.000 A 
ATOM     25  C   UNL     1      44.070   5.355  11.027  0.00  0.00    +0.000 A 
ATOM     26  C   UNL     1      44.548   6.565  11.542  0.00  0.00    +0.000 A 
ATOM     27  C   UNL     1      45.433   6.596  12.625  0.00  0.00    +0.000 A 
ATOM     28  C   UNL     1      45.789   5.378  13.219  0.00  0.00    +0.000 A 
ATOM     29  C   UNL     1      45.299   4.162  12.725  0.00  0.00    +0.000 A 
BRANCH  24  31
ATOM     30  N   UNL     1      44.603   2.297  10.045  0.00  0.00    +0.000 N 
ATOM     31  C   UNL     1      43.945   2.849  11.110  0.00  0.00    +0.000 C 
ATOM     32  O   UNL     1      43.003   2.274  11.637  0.00  0.00    +0.000 OA
ATOM     33  H   UNL     1      44.315   1.363   9.777  0.00  0.00    +0.000 HD
ATOM     34  H   UNL     1      45.521   2.604   9.759  0.00  0.00    +0.000 HD
ENDBRANCH  24  31
ENDBRANCH  22  27
ENDBRANCH  21  22
ENDBRANCH   1  21
TORSDOF 8
ENDMDL
