MODEL 1
REMARK VINA RESULT:    -8.090      0.000      0.000
REMARK INTER + INTRA:          -9.758
REMARK INTER:                 -10.219
REMARK INTRA:                   0.460
REMARK UNBOUND:                 0.460
REMARK  Name = 
REMARK  5 active torsions:
REMARK  status: ('A' for Active; 'I' for Inactive)
REMARK    1  A    between atoms: C_2  and  C_4
REMARK    2  A    between atoms: N_8  and  CA_9
REMARK    3  A    between atoms: CA_9  and  C_10
REMARK    4  A    between atoms: CA_9  and  C_12
REMARK    5  A    between atoms: C_10  and  O_11
REMARK                            x       y       z     vdW  Elec       q    Type
REMARK                         _______ _______ _______ _____ _____    ______ ____
ROOT
ATOM      1  C   UNL     1      47.147   5.221  13.890  0.00  0.00    +0.000 A 
ATOM      2  C   UNL     1      46.231   5.766  13.028  0.00  0.00    +0.000 A 
ATOM      3  N   UNL     1      45.333   5.043  12.322  0.00  0.00    +0.000 NA
ATOM      4  C   UNL     1      45.372   3.711  12.483  0.00  0.00    +0.000 A 
ATOM      5  N   UNL     1      44.443   2.890  11.877  0.00  0.00    +0.000 N 
ATOM      6  N   UNL     1      46.262   3.083  13.263  0.00  0.00    +0.000 NA
ATOM      7  C   UNL     1      47.136   3.849  13.952  0.00  0.00    +0.000 A 
ATOM      8  H   UNL     1      44.868   1.968  11.842  0.00  0.00    +0.000 HD
ENDROOT
BRANCH   1  10
ATOM      9  N   UNL     1      47.977   5.976  16.045  0.00  0.00    +0.000 N 
ATOM     10  C   UNL     1      48.107   5.998  14.685  0.00  0.00    +0.000 C 
ATOM     11  O   UNL     1      49.016   6.612  14.148  0.00  0.00    +0.000 OA
ATOM     12  H   UNL     1      48.714   6.436  16.567  0.00  0.00    +0.000 HD
ATOM     13  H   UNL     1      47.427   5.289  16.542  0.00  0.00    +0.000 HD
ENDBRANCH   1  10
BRANCH   5  14
ATOM     14  CA  UNL     1      43.850   3.338  10.624  0.00  0.00    +0.000 C 
BRANCH  14  15
ATOM     15  C   UNL     1      44.856   3.173   9.479  0.00  0.00    +0.000 A 
ATOM     16  C   UNL     1      45.295   1.883   9.130  0.00  0.00    +0.000 A 
ATOM     17  C   UNL     1      46.177   1.689   8.062  0.00  0.00    +0.000 A 
ATOM     18  C   UNL     1      46.627   2.782   7.328  0.00  0.00    +0.000 A 
ATOM     19 CL   UNL     1      47.692   2.542   5.999  0.00  0.00    +0.000 Cl
ATOM     20  C   UNL     1      46.216   4.069   7.661  0.00  0.00    +0.000 A 
ATOM     21  C   UNL     1      45.340   4.265   8.733  0.00  0.00    +0.000 A 
ENDBRANCH  14  15
BRANCH  14  22
ATOM     22  C   UNL     1      43.391   4.815  10.742  0.00  0.00    +0.000 C 
BRANCH  22  23
ATOM     23  O   UNL     1      42.268   4.979  11.617  0.00  0.00    +0.000 OA
ATOM     24  H   UNL     1      41.816   5.806  11.375  0.00  0.00    +0.000 HD
ENDBRANCH  22  23
ENDBRANCH  14  22
ENDBRANCH   5  14
TORSDOF 5
ENDMDL
MODEL 2
REMARK VINA RESULT:    -8.067      3.729      6.233
REMARK INTER + INTRA:          -9.729
REMARK INTER:                  -9.426
REMARK INTRA:                  -0.304
REMARK UNBOUND:                 0.460
REMARK  Name = 
REMARK  5 active torsions:
REMARK  status: ('A' for Active; 'I' for Inactive)
REMARK    1  A    between atoms: C_2  and  C_4
REMARK    2  A    between atoms: N_8  and  CA_9
REMARK    3  A    between atoms: CA_9  and  C_10
REMARK    4  A    between atoms: CA_9  and  C_12
REMARK    5  A    between atoms: C_10  and  O_11
REMARK                            x       y       z     vdW  Elec       q    Type
REMARK                         _______ _______ _______ _____ _____    ______ ____
ROOT
ATOM      1  C   UNL     1      46.266   2.789   7.620  0.00  0.00    +0.000 A 
ATOM      2  C   UNL     1      46.153   4.128   7.894  0.00  0.00    +0.000 A 
ATOM      3  N   UNL     1      45.538   4.627   8.989  0.00  0.00    +0.000 NA
ATOM      4  C   UNL     1      45.002   3.736   9.838  0.00  0.00    +0.000 A 
ATOM      5  N   UNL     1      44.430   4.137  11.028  0.00  0.00    +0.000 N 
ATOM      6  N   UNL     1      45.017   2.413   9.632  0.00  0.00    +0.000 NA
ATOM      7  C   UNL     1      45.647   1.962   8.525  0.00  0.00    +0.000 A 
ATOM      8  H   UNL     1      43.805   3.384  11.303  0.00  0.00    +0.000 HD
ENDROOT
BRANCH   1  10
ATOM      9  N   UNL     1      47.156   3.055   5.375  0.00  0.00    +0.000 N 
ATOM     10  C   UNL     1      46.956   2.234   6.450  0.00  0.00    +0.000 C 
ATOM     11  O   UNL     1      47.372   1.085   6.452  0.00  0.00    +0.000 OA
ATOM     12  H   UNL     1      47.723   2.674   4.627  0.00  0.00    +0.000 HD
ATOM     13  H   UNL     1      47.075   4.061   5.420  0.00  0.00    +0.000 HD
ENDBRANCH   1  10
BRANCH   5  14
ATOM     14  CA  UNL     1      43.846   5.470  11.090  0.00  0.00    +0.000 C 
BRANCH  14  15
ATOM     15  C   UNL     1      44.829   6.445  11.748  0.00  0.00    +0.000 A 
ATOM     16  C   UNL     1      45.917   5.935  12.479  0.00  0.00    +0.000 A 
ATOM     17  C   UNL     1      46.860   6.792  13.055  0.00  0.00    +0.000 A 
ATOM     18  C   UNL     1      46.729   8.169  12.903  0.00  0.00    +0.000 A 
ATOM     19 CL   UNL     1      47.902   9.223  13.590  0.00  0.00    +0.000 Cl
ATOM     20  C   UNL     1      45.655   8.698  12.194  0.00  0.00    +0.000 A 
ATOM     21  C   UNL     1      44.708   7.842  11.624  0.00  0.00    +0.000 A 
ENDBRANCH  14  15
BRANCH  14  22
ATOM     22  C   UNL     1      42.504   5.436  11.869  0.00  0.00    +0.000 C 
BRANCH  22  23
ATOM     23  O   UNL     1      42.686   5.488  13.291  0.00  0.00    +0.000 OA
ATOM     24  H   UNL     1      43.512   5.972  13.470  0.00  0.00    +0.000 HD
ENDBRANCH  22  23
ENDBRANCH  14  22
ENDBRANCH   5  14
TORSDOF 5
ENDMDL
MODEL 3
REMARK VINA RESULT:    -7.998      3.591      6.138
REMARK INTER + INTRA:          -9.642
REMARK INTER:                 -10.184
REMARK INTRA:                   0.542
REMARK UNBOUND:                 0.460
REMARK  Name = 
REMARK  5 active torsions:
REMARK  status: ('A' for Active; 'I' for Inactive)
REMARK    1  A    between atoms: C_2  and  C_4
REMARK    2  A    between atoms: N_8  and  CA_9
REMARK    3  A    between atoms: CA_9  and  C_10
REMARK    4  A    between atoms: CA_9  and  C_12
REMARK    5  A    between atoms: C_10  and  O_11
REMARK                            x       y       z     vdW  Elec       q    Type
REMARK                         _______ _______ _______ _____ _____    ______ ____
ROOT
ATOM      1  C   UNL     1      46.453   2.358   7.605  0.00  0.00    +0.000 A 
ATOM      2  C   UNL     1      45.988   1.974   8.836  0.00  0.00    +0.000 A 
ATOM      3  N   UNL     1      45.233   2.756   9.639  0.00  0.00    +0.000 NA
ATOM      4  C   UNL     1      44.946   3.987   9.184  0.00  0.00    +0.000 A 
ATOM      5  N   UNL     1      44.110   4.831   9.886  0.00  0.00    +0.000 N 
ATOM      6  N   UNL     1      45.395   4.470   8.019  0.00  0.00    +0.000 NA
ATOM      7  C   UNL     1      46.143   3.648   7.250  0.00  0.00    +0.000 A 
ATOM      8  H   UNL     1      44.327   5.769   9.561  0.00  0.00    +0.000 HD
ENDROOT
BRANCH   1  10
ATOM      9  N   UNL     1      48.240   2.099   5.980  0.00  0.00    +0.000 N 
ATOM     10  C   UNL     1      47.248   1.508   6.711  0.00  0.00    +0.000 C 
ATOM     11  O   UNL     1      47.054   0.303   6.653  0.00  0.00    +0.000 OA
ATOM     12  H   UNL     1      48.836   1.471   5.453  0.00  0.00    +0.000 HD
ATOM     13  H   UNL     1      48.612   3.017   6.184  0.00  0.00    +0.000 HD
ENDBRANCH   1  10
BRANCH   5  14
ATOM     14  CA  UNL     1      44.050   4.684  11.334  0.00  0.00    +0.000 C 
BRANCH  14  15
ATOM     15  C   UNL     1      45.285   5.322  11.978  0.00  0.00    +0.000 A 
ATOM     16  C   UNL     1      45.882   4.697  13.089  0.00  0.00    +0.000 A 
ATOM     17  C   UNL     1      47.036   5.225  13.676  0.00  0.00    +0.000 A 
ATOM     18  C   UNL     1      47.610   6.381  13.157  0.00  0.00    +0.000 A 
ATOM     19 CL   UNL     1      49.044   7.017  13.863  0.00  0.00    +0.000 Cl
ATOM     20  C   UNL     1      47.032   7.025  12.067  0.00  0.00    +0.000 A 
ATOM     21  C   UNL     1      45.874   6.501  11.484  0.00  0.00    +0.000 A 
ENDBRANCH  14  15
BRANCH  14  22
ATOM     22  C   UNL     1      43.942   3.185  11.720  0.00  0.00    +0.000 C 
BRANCH  22  23
ATOM     23  O   UNL     1      42.651   2.630  11.435  0.00  0.00    +0.000 OA
ATOM     24  H   UNL     1      42.740   1.661  11.409  0.00  0.00    +0.000 HD
ENDBRANCH  22  23
ENDBRANCH  14  22
ENDBRANCH   5  14
TORSDOF 5
ENDMDL
MODEL 4
REMARK VINA RESULT:    -7.667      1.881      2.686
REMARK INTER + INTRA:          -9.224
REMARK INTER:                  -8.798
REMARK INTRA:                  -0.426
REMARK UNBOUND:                 0.460
REMARK  Name = 
REMARK  5 active torsions:
REMARK  status: ('A' for Active; 'I' for Inactive)
REMARK    1  A    between atoms: C_2  and  C_4
REMARK    2  A    between atoms: N_8  and  CA_9
REMARK    3  A    between atoms: CA_9  and  C_10
REMARK    4  A    between atoms: CA_9  and  C_12
REMARK    5  A    between atoms: C_10  and  O_11
REMARK                            x       y       z     vdW  Elec       q    Type
REMARK                         _______ _______ _______ _____ _____    ______ ____
ROOT
ATOM      1  C   UNL     1      47.039   8.180  13.390  0.00  0.00    +0.000 A 
ATOM      2  C   UNL     1      47.256   6.847  13.152  0.00  0.00    +0.000 A 
ATOM      3  N   UNL     1      46.472   6.082  12.359  0.00  0.00    +0.000 NA
ATOM      4  C   UNL     1      45.415   6.687  11.794  0.00  0.00    +0.000 A 
ATOM      5  N   UNL     1      44.603   6.019  10.899  0.00  0.00    +0.000 N 
ATOM      6  N   UNL     1      45.092   7.969  12.006  0.00  0.00    +0.000 NA
ATOM      7  C   UNL     1      45.910   8.694  12.802  0.00  0.00    +0.000 A 
ATOM      8  H   UNL     1      43.721   6.523  10.896  0.00  0.00    +0.000 HD
ENDROOT
BRANCH   1  10
ATOM      9  N   UNL     1      47.548   9.204  15.533  0.00  0.00    +0.000 N 
ATOM     10  C   UNL     1      47.900   9.027  14.224  0.00  0.00    +0.000 C 
ATOM     11  O   UNL     1      48.918   9.528  13.771  0.00  0.00    +0.000 OA
ATOM     12  H   UNL     1      48.215   9.708  16.106  0.00  0.00    +0.000 HD
ATOM     13  H   UNL     1      46.885   8.614  16.017  0.00  0.00    +0.000 HD
ENDBRANCH   1  10
BRANCH   5  14
ATOM     14  CA  UNL     1      44.481   4.574  11.036  0.00  0.00    +0.000 C 
BRANCH  14  15
ATOM     15  C   UNL     1      45.070   3.878   9.804  0.00  0.00    +0.000 A 
ATOM     16  C   UNL     1      45.663   4.656   8.792  0.00  0.00    +0.000 A 
ATOM     17  C   UNL     1      46.251   4.055   7.675  0.00  0.00    +0.000 A 
ATOM     18  C   UNL     1      46.257   2.668   7.557  0.00  0.00    +0.000 A 
ATOM     19 CL   UNL     1      47.002   1.927   6.196  0.00  0.00    +0.000 Cl
ATOM     20  C   UNL     1      45.667   1.877   8.538  0.00  0.00    +0.000 A 
ATOM     21  C   UNL     1      45.072   2.478   9.652  0.00  0.00    +0.000 A 
ENDBRANCH  14  15
BRANCH  14  22
ATOM     22  C   UNL     1      42.995   4.174  11.233  0.00  0.00    +0.000 C 
BRANCH  22  23
ATOM     23  O   UNL     1      42.262   5.129  12.012  0.00  0.00    +0.000 OA
ATOM     24  H   UNL     1      41.961   5.836  11.415  0.00  0.00    +0.000 HD
ENDBRANCH  22  23
ENDBRANCH  14  22
ENDBRANCH   5  14
TORSDOF 5
ENDMDL
MODEL 5
REMARK VINA RESULT:    -7.295      4.574      7.608
REMARK INTER + INTRA:          -8.753
REMARK INTER:                  -8.334
REMARK INTRA:                  -0.419
REMARK UNBOUND:                 0.460
REMARK  Name = 
REMARK  5 active torsions:
REMARK  status: ('A' for Active; 'I' for Inactive)
REMARK    1  A    between atoms: C_2  and  C_4
REMARK    2  A    between atoms: N_8  and  CA_9
REMARK    3  A    between atoms: CA_9  and  C_10
REMARK    4  A    between atoms: CA_9  and  C_12
REMARK    5  A    between atoms: C_10  and  O_11
REMARK                            x       y       z     vdW  Elec       q    Type
REMARK                         _______ _______ _______ _____ _____    ______ ____
ROOT
ATOM      1  C   UNL     1      46.045   5.528  12.202  0.00  0.00    +0.000 A 
ATOM      2  C   UNL     1      46.954   6.088  13.062  0.00  0.00    +0.000 A 
ATOM      3  N   UNL     1      47.467   5.453  14.140  0.00  0.00    +0.000 NA
ATOM      4  C   UNL     1      47.032   4.204  14.367  0.00  0.00    +0.000 A 
ATOM      5  N   UNL     1      47.558   3.439  15.388  0.00  0.00    +0.000 N 
ATOM      6  N   UNL     1      46.110   3.591  13.614  0.00  0.00    +0.000 NA
ATOM      7  C   UNL     1      45.630   4.265  12.545  0.00  0.00    +0.000 A 
ATOM      8  H   UNL     1      46.862   2.725  15.586  0.00  0.00    +0.000 HD
ENDROOT
BRANCH   1  10
ATOM      9  N   UNL     1      45.649   5.571   9.805  0.00  0.00    +0.000 N 
ATOM     10  C   UNL     1      45.503   6.196  11.012  0.00  0.00    +0.000 C 
ATOM     11  O   UNL     1      44.908   7.259  11.104  0.00  0.00    +0.000 OA
ATOM     12  H   UNL     1      45.176   6.006   9.022  0.00  0.00    +0.000 HD
ATOM     13  H   UNL     1      45.886   4.593   9.709  0.00  0.00    +0.000 HD
ENDBRANCH   1  10
BRANCH   5  14
ATOM     14  CA  UNL     1      48.077   4.128  16.561  0.00  0.00    +0.000 C 
BRANCH  14  15
ATOM     15  C   UNL     1      49.441   3.548  16.951  0.00  0.00    +0.000 A 
ATOM     16  C   UNL     1      50.438   4.408  17.446  0.00  0.00    +0.000 A 
ATOM     17  C   UNL     1      51.679   3.910  17.854  0.00  0.00    +0.000 A 
ATOM     18  C   UNL     1      51.936   2.544  17.777  0.00  0.00    +0.000 A 
ATOM     19 CL   UNL     1      53.454   1.927  18.302  0.00  0.00    +0.000 Cl
ATOM     20  C   UNL     1      50.971   1.674  17.279  0.00  0.00    +0.000 A 
ATOM     21  C   UNL     1      49.732   2.173  16.864  0.00  0.00    +0.000 A 
ENDBRANCH  14  15
BRANCH  14  22
ATOM     22  C   UNL     1      47.076   4.016  17.740  0.00  0.00    +0.000 C 
BRANCH  22  23
ATOM     23  O   UNL     1      46.395   2.754  17.772  0.00  0.00    +0.000 OA
ATOM     24  H   UNL     1      47.010   2.072  17.451  0.00  0.00    +0.000 HD
ENDBRANCH  22  23
ENDBRANCH  14  22
ENDBRANCH   5  14
TORSDOF 5
ENDMDL
MODEL 6
REMARK VINA RESULT:    -7.235      1.435      2.149
REMARK INTER + INTRA:          -8.678
REMARK INTER:                  -8.262
REMARK INTRA:                  -0.416
REMARK UNBOUND:                 0.460
REMARK  Name = 
REMARK  5 active torsions:
REMARK  status: ('A' for Active; 'I' for Inactive)
REMARK    1  A    between atoms: C_2  and  C_4
REMARK    2  A    between atoms: N_8  and  CA_9
REMARK    3  A    between atoms: CA_9  and  C_10
REMARK    4  A    between atoms: CA_9  and  C_12
REMARK    5  A    between atoms: C_10  and  O_11
REMARK                            x       y       z     vdW  Elec       q    Type
REMARK                         _______ _______ _______ _____ _____    ______ ____
ROOT
ATOM      1  C   UNL     1      47.465   4.525  15.319  0.00  0.00    +0.000 A 
ATOM      2  C   UNL     1      46.895   3.544  14.549  0.00  0.00    +0.000 A 
ATOM      3  N   UNL     1      46.296   3.768  13.358  0.00  0.00    +0.000 NA
ATOM      4  C   UNL     1      46.258   5.041  12.932  0.00  0.00    +0.000 A 
ATOM      5  N   UNL     1      45.749   5.364  11.692  0.00  0.00    +0.000 N 
ATOM      6  N   UNL     1      46.742   6.073  13.636  0.00  0.00    +0.000 NA
ATOM      7  C   UNL     1      47.336   5.798  14.818  0.00  0.00    +0.000 A 
ATOM      8  H   UNL     1      45.498   6.348  11.743  0.00  0.00    +0.000 HD
ENDROOT
BRANCH   1  10
ATOM      9  N   UNL     1      47.447   4.541  17.748  0.00  0.00    +0.000 N 
ATOM     10  C   UNL     1      48.144   4.291  16.599  0.00  0.00    +0.000 C 
ATOM     11  O   UNL     1      49.283   3.851  16.635  0.00  0.00    +0.000 OA
ATOM     12  H   UNL     1      47.906   4.272  18.611  0.00  0.00    +0.000 HD
ATOM     13  H   UNL     1      46.442   4.645  17.779  0.00  0.00    +0.000 HD
ENDBRANCH   1  10
BRANCH   5  14
ATOM     14  CA  UNL     1      44.720   4.500  11.129  0.00  0.00    +0.000 C 
BRANCH  14  15
ATOM     15  C   UNL     1      45.218   3.872   9.823  0.00  0.00    +0.000 A 
ATOM     16  C   UNL     1      45.751   4.702   8.820  0.00  0.00    +0.000 A 
ATOM     17  C   UNL     1      46.256   4.161   7.634  0.00  0.00    +0.000 A 
ATOM     18  C   UNL     1      46.240   2.784   7.438  0.00  0.00    +0.000 A 
ATOM     19 CL   UNL     1      46.885   2.116   5.989  0.00  0.00    +0.000 Cl
ATOM     20  C   UNL     1      45.708   1.942   8.410  0.00  0.00    +0.000 A 
ATOM     21  C   UNL     1      45.195   2.483   9.593  0.00  0.00    +0.000 A 
ENDBRANCH  14  15
BRANCH  14  22
ATOM     22  C   UNL     1      43.414   5.301  10.889  0.00  0.00    +0.000 C 
BRANCH  22  23
ATOM     23  O   UNL     1      42.312   4.815  11.667  0.00  0.00    +0.000 OA
ATOM     24  H   UNL     1      42.493   5.016  12.601  0.00  0.00    +0.000 HD
ENDBRANCH  22  23
ENDBRANCH  14  22
ENDBRANCH   5  14
TORSDOF 5
ENDMDL
MODEL 7
REMARK VINA RESULT:    -6.642      3.949      6.473
REMARK INTER + INTRA:          -7.929
REMARK INTER:                  -7.451
REMARK INTRA:                  -0.478
REMARK UNBOUND:                 0.460
REMARK  Name = 
REMARK  5 active torsions:
REMARK  status: ('A' for Active; 'I' for Inactive)
REMARK    1  A    between atoms: C_2  and  C_4
REMARK    2  A    between atoms: N_8  and  CA_9
REMARK    3  A    between atoms: CA_9  and  C_10
REMARK    4  A    between atoms: CA_9  and  C_12
REMARK    5  A    between atoms: C_10  and  O_11
REMARK                            x       y       z     vdW  Elec       q    Type
REMARK                         _______ _______ _______ _____ _____    ______ ____
ROOT
ATOM      1  C   UNL     1      44.833   3.881  11.295  0.00  0.00    +0.000 A 
ATOM      2  C   UNL     1      45.166   4.968  10.528  0.00  0.00    +0.000 A 
ATOM      3  N   UNL     1      45.963   5.975  10.948  0.00  0.00    +0.000 NA
ATOM      4  C   UNL     1      46.433   5.888  12.203  0.00  0.00    +0.000 A 
ATOM      5  N   UNL     1      47.324   6.818  12.697  0.00  0.00    +0.000 N 
ATOM      6  N   UNL     1      46.124   4.893  13.044  0.00  0.00    +0.000 NA
ATOM      7  C   UNL     1      45.327   3.907  12.576  0.00  0.00    +0.000 A 
ATOM      8  H   UNL     1      47.250   6.762  13.710  0.00  0.00    +0.000 HD
ENDROOT
BRANCH   1  10
ATOM      9  N   UNL     1      44.423   2.037   9.767  0.00  0.00    +0.000 N 
ATOM     10  C   UNL     1      43.993   2.766  10.840  0.00  0.00    +0.000 C 
ATOM     11  O   UNL     1      42.960   2.478  11.426  0.00  0.00    +0.000 OA
ATOM     12  H   UNL     1      43.875   1.214   9.543  0.00  0.00    +0.000 HD
ATOM     13  H   UNL     1      45.373   2.060   9.422  0.00  0.00    +0.000 HD
ENDBRANCH   1  10
BRANCH   5  14
ATOM     14  CA  UNL     1      47.274   8.169  12.155  0.00  0.00    +0.000 C 
BRANCH  14  15
ATOM     15  C   UNL     1      48.684   8.637  11.777  0.00  0.00    +0.000 A 
ATOM     16  C   UNL     1      49.703   7.682  11.609  0.00  0.00    +0.000 A 
ATOM     17  C   UNL     1      50.990   8.066  11.221  0.00  0.00    +0.000 A 
ATOM     18  C   UNL     1      51.273   9.409  10.992  0.00  0.00    +0.000 A 
ATOM     19 CL   UNL     1      52.849   9.880  10.490  0.00  0.00    +0.000 Cl
ATOM     20  C   UNL     1      50.285  10.374  11.163  0.00  0.00    +0.000 A 
ATOM     21  C   UNL     1      48.999   9.991  11.558  0.00  0.00    +0.000 A 
ENDBRANCH  14  15
BRANCH  14  22
ATOM     22  C   UNL     1      46.631   9.139  13.181  0.00  0.00    +0.000 C 
BRANCH  22  23
ATOM     23  O   UNL     1      46.982   8.826  14.536  0.00  0.00    +0.000 OA
ATOM     24  H   UNL     1      46.331   9.252  15.121  0.00  0.00    +0.000 HD
ENDBRANCH  22  23
ENDBRANCH  14  22
ENDBRANCH   5  14
TORSDOF 5
ENDMDL
MODEL 8
REMARK VINA RESULT:    -6.397      4.015      7.805
REMARK INTER + INTRA:          -7.619
REMARK INTER:                  -7.193
REMARK INTRA:                  -0.426
REMARK UNBOUND:                 0.460
REMARK  Name = 
REMARK  5 active torsions:
REMARK  status: ('A' for Active; 'I' for Inactive)
REMARK    1  A    between atoms: C_2  and  C_4
REMARK    2  A    between atoms: N_8  and  CA_9
REMARK    3  A    between atoms: CA_9  and  C_10
REMARK    4  A    between atoms: CA_9  and  C_12
REMARK    5  A    between atoms: C_10  and  O_11
REMARK                            x       y       z     vdW  Elec       q    Type
REMARK                         _______ _______ _______ _____ _____    ______ ____
ROOT
ATOM      1  C   UNL     1      44.717   3.750  11.879  0.00  0.00    +0.000 A 
ATOM      2  C   UNL     1      45.755   3.277  12.640  0.00  0.00    +0.000 A 
ATOM      3  N   UNL     1      46.518   4.050  13.444  0.00  0.00    +0.000 NA
ATOM      4  C   UNL     1      46.230   5.361  13.471  0.00  0.00    +0.000 A 
ATOM      5  N   UNL     1      46.891   6.221  14.324  0.00  0.00    +0.000 N 
ATOM      6  N   UNL     1      45.270   5.924  12.726  0.00  0.00    +0.000 NA
ATOM      7  C   UNL     1      44.530   5.109  11.942  0.00  0.00    +0.000 A 
ATOM      8  H   UNL     1      46.775   7.149  13.926  0.00  0.00    +0.000 HD
ENDROOT
BRANCH   1  10
ATOM      9  N   UNL     1      44.156   2.856   9.691  0.00  0.00    +0.000 N 
ATOM     10  C   UNL     1      43.862   2.917  11.025  0.00  0.00    +0.000 C 
ATOM     11  O   UNL     1      42.942   2.268  11.499  0.00  0.00    +0.000 OA
ATOM     12  H   UNL     1      43.613   2.194   9.149  0.00  0.00    +0.000 HD
ATOM     13  H   UNL     1      45.041   3.148   9.301  0.00  0.00    +0.000 HD
ENDBRANCH   1  10
BRANCH   5  14
ATOM     14  CA  UNL     1      48.255   5.887  14.708  0.00  0.00    +0.000 C 
BRANCH  14  15
ATOM     15  C   UNL     1      48.322   5.600  16.212  0.00  0.00    +0.000 A 
ATOM     16  C   UNL     1      47.960   4.326  16.686  0.00  0.00    +0.000 A 
ATOM     17  C   UNL     1      48.050   4.012  18.046  0.00  0.00    +0.000 A 
ATOM     18  C   UNL     1      48.508   4.968  18.948  0.00  0.00    +0.000 A 
ATOM     19 CL   UNL     1      48.644   4.575  20.617  0.00  0.00    +0.000 Cl
ATOM     20  C   UNL     1      48.861   6.239  18.506  0.00  0.00    +0.000 A 
ATOM     21  C   UNL     1      48.764   6.555  17.147  0.00  0.00    +0.000 A 
ENDBRANCH  14  15
BRANCH  14  22
ATOM     22  C   UNL     1      49.221   7.039  14.327  0.00  0.00    +0.000 C 
BRANCH  22  23
ATOM     23  O   UNL     1      49.831   6.850  13.043  0.00  0.00    +0.000 OA
ATOM     24  H   UNL     1      49.617   5.951  12.738  0.00  0.00    +0.000 HD
ENDBRANCH  22  23
ENDBRANCH  14  22
ENDBRANCH   5  14
TORSDOF 5
ENDMDL
MODEL 9
REMARK VINA RESULT:    -6.336      3.942      6.620
REMARK INTER + INTRA:          -7.542
REMARK INTER:                  -7.158
REMARK INTRA:                  -0.384
REMARK UNBOUND:                 0.460
REMARK  Name = 
REMARK  5 active torsions:
REMARK  status: ('A' for Active; 'I' for Inactive)
REMARK    1  A    between atoms: C_2  and  C_4
REMARK    2  A    between atoms: N_8  and  CA_9
REMARK    3  A    between atoms: CA_9  and  C_10
REMARK    4  A    between atoms: CA_9  and  C_12
REMARK    5  A    between atoms: C_10  and  O_11
REMARK                            x       y       z     vdW  Elec       q    Type
REMARK                         _______ _______ _______ _____ _____    ______ ____
ROOT
ATOM      1  C   UNL     1      44.107   4.014  11.395  0.00  0.00    +0.000 A 
ATOM      2  C   UNL     1      45.299   4.623  11.099  0.00  0.00    +0.000 A 
ATOM      3  N   UNL     1      45.631   5.871  11.499  0.00  0.00    +0.000 NA
ATOM      4  C   UNL     1      44.713   6.539  12.217  0.00  0.00    +0.000 A 
ATOM      5  N   UNL     1      44.987   7.783  12.747  0.00  0.00    +0.000 N 
ATOM      6  N   UNL     1      43.503   6.048  12.513  0.00  0.00    +0.000 NA
ATOM      7  C   UNL     1      43.220   4.794  12.096  0.00  0.00    +0.000 A 
ATOM      8  H   UNL     1      44.084   8.217  12.915  0.00  0.00    +0.000 HD
ENDROOT
BRANCH   1  10
ATOM      9  N   UNL     1      44.415   2.096   9.936  0.00  0.00    +0.000 N 
ATOM     10  C   UNL     1      43.746   2.649  10.993  0.00  0.00    +0.000 C 
ATOM     11  O   UNL     1      42.902   2.015  11.607  0.00  0.00    +0.000 OA
ATOM     12  H   UNL     1      44.216   1.120   9.749  0.00  0.00    +0.000 HD
ATOM     13  H   UNL     1      45.283   2.463   9.573  0.00  0.00    +0.000 HD
ENDBRANCH   1  10
BRANCH   5  14
ATOM     14  CA  UNL     1      45.950   8.625  12.050  0.00  0.00    +0.000 C 
BRANCH  14  15
ATOM     15  C   UNL     1      47.330   8.498  12.705  0.00  0.00    +0.000 A 
ATOM     16  C   UNL     1      48.439   8.156  11.910  0.00  0.00    +0.000 A 
ATOM     17  C   UNL     1      49.721   8.074  12.463  0.00  0.00    +0.000 A 
ATOM     18  C   UNL     1      49.910   8.338  13.816  0.00  0.00    +0.000 A 
ATOM     19 CL   UNL     1      51.490   8.263  14.492  0.00  0.00    +0.000 Cl
ATOM     20  C   UNL     1      48.827   8.667  14.625  0.00  0.00    +0.000 A 
ATOM     21  C   UNL     1      47.544   8.742  14.075  0.00  0.00    +0.000 A 
ENDBRANCH  14  15
BRANCH  14  22
ATOM     22  C   UNL     1      45.476  10.102  12.053  0.00  0.00    +0.000 C 
BRANCH  22  23
ATOM     23  O   UNL     1      44.139  10.256  12.547  0.00  0.00    +0.000 OA
ATOM     24  H   UNL     1      43.588   9.564  12.141  0.00  0.00    +0.000 HD
ENDBRANCH  22  23
ENDBRANCH  14  22
ENDBRANCH   5  14
TORSDOF 5
ENDMDL
