MODEL 1
REMARK VINA RESULT:    -9.134      0.000      0.000
REMARK INTER + INTRA:         -11.829
REMARK INTER:                 -11.270
REMARK INTRA:                  -0.559
REMARK UNBOUND:                -0.559
REMARK  Name = 
REMARK  4 active torsions:
REMARK  status: ('A' for Active; 'I' for Inactive)
REMARK    1  A    between atoms: C_2  and  C_4
REMARK    2  A    between atoms: N_8  and  C_9
REMARK    3  A    between atoms: C_9  and  C_10
REMARK    4  A    between atoms: C_14  and  C_15
REMARK                            x       y       z     vdW  Elec       q    Type
REMARK                         _______ _______ _______ _____ _____    ______ ____
ROOT
ATOM      1  C   UNL     1      43.672   3.689  11.204  0.00  0.00    +0.000 C 
ENDROOT
BRANCH   1   6
ATOM      2  C   UNL     1      46.644   2.487   7.173  0.00  0.00    +0.000 A 
ATOM      3  C   UNL     1      46.071   3.696   7.547  0.00  0.00    +0.000 A 
ATOM      4  C   UNL     1      45.275   3.743   8.690  0.00  0.00    +0.000 A 
ATOM      5  C   UNL     1      45.057   2.588   9.435  0.00  0.00    +0.000 A 
ATOM      6  N   UNL     1      44.337   2.567  10.594  0.00  0.00    +0.000 N 
ATOM      7  N   UNL     1      45.589   1.406   9.065  0.00  0.00    +0.000 NA
ATOM      8  C   UNL     1      46.360   1.374   7.945  0.00  0.00    +0.000 A 
ATOM      9  H   UNL     1      44.190   1.636  10.961  0.00  0.00    +0.000 HD
BRANCH   2  11
ATOM     10  N   UNL     1      47.382   3.310   5.019  0.00  0.00    +0.000 N 
ATOM     11  C   UNL     1      47.516   2.358   5.992  0.00  0.00    +0.000 C 
ATOM     12  O   UNL     1      48.345   1.463   5.898  0.00  0.00    +0.000 OA
ATOM     13  H   UNL     1      48.040   3.272   4.252  0.00  0.00    +0.000 HD
ATOM     14  H   UNL     1      46.887   4.179   5.168  0.00  0.00    +0.000 HD
ENDBRANCH   2  11
ENDBRANCH   1   6
BRANCH   1  15
ATOM     15  C   UNL     1      44.652   4.711  11.725  0.00  0.00    +0.000 A 
ATOM     16  C   UNL     1      44.685   6.004  11.183  0.00  0.00    +0.000 A 
ATOM     17  C   UNL     1      45.546   6.963  11.706  0.00  0.00    +0.000 A 
ATOM     18  C   UNL     1      46.363   6.647  12.790  0.00  0.00    +0.000 A 
ATOM     19  C   UNL     1      46.334   5.372  13.387  0.00  0.00    +0.000 A 
ATOM     20  C   UNL     1      45.497   4.402  12.807  0.00  0.00    +0.000 A 
BRANCH  19  21
ATOM     21  C   UNL     1      47.092   5.088  14.619  0.00  0.00    +0.000 A 
ATOM     22  C   UNL     1      48.089   5.963  15.072  0.00  0.00    +0.000 A 
ATOM     23  C   UNL     1      48.768   5.689  16.251  0.00  0.00    +0.000 A 
ATOM     24  C   UNL     1      48.433   4.551  16.966  0.00  0.00    +0.000 A 
ATOM     25  C   UNL     1      47.427   3.740  16.466  0.00  0.00    +0.000 A 
ATOM     26  F   UNL     1      47.095   2.646  17.165  0.00  0.00    +0.000 F 
ATOM     27  N   UNL     1      46.746   3.982  15.324  0.00  0.00    +0.000 NA
ENDBRANCH  19  21
ENDBRANCH   1  15
TORSDOF 4
ENDMDL
MODEL 2
REMARK VINA RESULT:    -8.903      3.008      4.329
REMARK INTER + INTRA:         -11.545
REMARK INTER:                 -10.810
REMARK INTRA:                  -0.734
REMARK UNBOUND:                -0.559
REMARK  Name = 
REMARK  4 active torsions:
REMARK  status: ('A' for Active; 'I' for Inactive)
REMARK    1  A    between atoms: C_2  and  C_4
REMARK    2  A    between atoms: N_8  and  C_9
REMARK    3  A    between atoms: C_9  and  C_10
REMARK    4  A    between atoms: C_14  and  C_15
REMARK                            x       y       z     vdW  Elec       q    Type
REMARK                         _______ _______ _______ _____ _____    ______ ____
ROOT
ATOM      1  C   UNL     1      43.400   3.587  11.161  0.00  0.00    +0.000 C 
ENDROOT
BRANCH   1   6
ATOM      2  C   UNL     1      46.594   2.498   7.269  0.00  0.00    +0.000 A 
ATOM      3  C   UNL     1      46.017   3.700   7.658  0.00  0.00    +0.000 A 
ATOM      4  C   UNL     1      45.153   3.715   8.752  0.00  0.00    +0.000 A 
ATOM      5  C   UNL     1      44.873   2.535   9.435  0.00  0.00    +0.000 A 
ATOM      6  N   UNL     1      44.085   2.479  10.547  0.00  0.00    +0.000 N 
ATOM      7  N   UNL     1      45.410   1.360   9.049  0.00  0.00    +0.000 NA
ATOM      8  C   UNL     1      46.247   1.359   7.977  0.00  0.00    +0.000 A 
ATOM      9  H   UNL     1      43.902   1.537  10.865  0.00  0.00    +0.000 HD
BRANCH   2  11
ATOM     10  N   UNL     1      47.406   3.337   5.149  0.00  0.00    +0.000 N 
ATOM     11  C   UNL     1      47.534   2.401   6.138  0.00  0.00    +0.000 C 
ATOM     12  O   UNL     1      48.408   1.546   6.099  0.00  0.00    +0.000 OA
ATOM     13  H   UNL     1      48.106   3.325   4.420  0.00  0.00    +0.000 HD
ATOM     14  H   UNL     1      46.863   4.181   5.262  0.00  0.00    +0.000 HD
ENDBRANCH   2  11
ENDBRANCH   1   6
BRANCH   1  15
ATOM     15  C   UNL     1      44.354   4.514  11.874  0.00  0.00    +0.000 A 
ATOM     16  C   UNL     1      45.377   3.996  12.682  0.00  0.00    +0.000 A 
ATOM     17  C   UNL     1      46.293   4.848  13.289  0.00  0.00    +0.000 A 
ATOM     18  C   UNL     1      46.210   6.223  13.076  0.00  0.00    +0.000 A 
ATOM     19  C   UNL     1      45.221   6.781  12.243  0.00  0.00    +0.000 A 
ATOM     20  C   UNL     1      44.273   5.906  11.684  0.00  0.00    +0.000 A 
BRANCH  19  21
ATOM     21  C   UNL     1      45.226   8.217  11.907  0.00  0.00    +0.000 A 
ATOM     22  C   UNL     1      46.281   9.048  12.307  0.00  0.00    +0.000 A 
ATOM     23  C   UNL     1      46.277  10.391  11.952  0.00  0.00    +0.000 A 
ATOM     24  C   UNL     1      45.226  10.878  11.194  0.00  0.00    +0.000 A 
ATOM     25  C   UNL     1      44.226   9.995  10.822  0.00  0.00    +0.000 A 
ATOM     26  F   UNL     1      43.215  10.466  10.078  0.00  0.00    +0.000 F 
ATOM     27  N   UNL     1      44.203   8.684  11.148  0.00  0.00    +0.000 NA
ENDBRANCH  19  21
ENDBRANCH   1  15
TORSDOF 4
ENDMDL
MODEL 3
REMARK VINA RESULT:    -8.553      2.985      3.954
REMARK INTER + INTRA:         -11.113
REMARK INTER:                 -10.310
REMARK INTRA:                  -0.803
REMARK UNBOUND:                -0.559
REMARK  Name = 
REMARK  4 active torsions:
REMARK  status: ('A' for Active; 'I' for Inactive)
REMARK    1  A    between atoms: C_2  and  C_4
REMARK    2  A    between atoms: N_8  and  C_9
REMARK    3  A    between atoms: C_9  and  C_10
REMARK    4  A    between atoms: C_14  and  C_15
REMARK                            x       y       z     vdW  Elec       q    Type
REMARK                         _______ _______ _______ _____ _____    ______ ____
ROOT
ATOM      1  C   UNL     1      43.823   4.538  11.186  0.00  0.00    +0.000 C 
ENDROOT
BRANCH   1   6
ATOM      2  C   UNL     1      46.613   2.639   7.295  0.00  0.00    +0.000 A 
ATOM      3  C   UNL     1      46.370   3.952   7.679  0.00  0.00    +0.000 A 
ATOM      4  C   UNL     1      45.543   4.195   8.774  0.00  0.00    +0.000 A 
ATOM      5  C   UNL     1      44.967   3.131   9.463  0.00  0.00    +0.000 A 
ATOM      6  N   UNL     1      44.194   3.287  10.576  0.00  0.00    +0.000 N 
ATOM      7  N   UNL     1      45.179   1.855   9.082  0.00  0.00    +0.000 NA
ATOM      8  C   UNL     1      45.984   1.633   8.009  0.00  0.00    +0.000 A 
ATOM      9  H   UNL     1      43.773   2.426  10.899  0.00  0.00    +0.000 HD
BRANCH   2  11
ATOM     10  N   UNL     1      47.413   3.096   5.057  0.00  0.00    +0.000 N 
ATOM     11  C   UNL     1      47.493   2.296   6.164  0.00  0.00    +0.000 C 
ATOM     12  O   UNL     1      48.281   1.363   6.221  0.00  0.00    +0.000 OA
ATOM     13  H   UNL     1      48.078   2.915   4.317  0.00  0.00    +0.000 HD
ATOM     14  H   UNL     1      46.956   3.997   5.065  0.00  0.00    +0.000 HD
ENDBRANCH   2  11
ENDBRANCH   1   6
BRANCH   1  15
ATOM     15  C   UNL     1      44.922   5.086  12.063  0.00  0.00    +0.000 A 
ATOM     16  C   UNL     1      45.491   4.292  13.070  0.00  0.00    +0.000 A 
ATOM     17  C   UNL     1      46.545   4.777  13.835  0.00  0.00    +0.000 A 
ATOM     18  C   UNL     1      47.057   6.049  13.587  0.00  0.00    +0.000 A 
ATOM     19  C   UNL     1      46.539   6.864  12.562  0.00  0.00    +0.000 A 
ATOM     20  C   UNL     1      45.438   6.376  11.837  0.00  0.00    +0.000 A 
BRANCH  19  21
ATOM     21  C   UNL     1      47.177   8.146  12.210  0.00  0.00    +0.000 A 
ATOM     22  C   UNL     1      48.532   8.206  11.858  0.00  0.00    +0.000 A 
ATOM     23  C   UNL     1      49.102   9.421  11.501  0.00  0.00    +0.000 A 
ATOM     24  C   UNL     1      48.307  10.555  11.492  0.00  0.00    +0.000 A 
ATOM     25  C   UNL     1      46.973  10.417  11.837  0.00  0.00    +0.000 A 
ATOM     26  F   UNL     1      46.201  11.514  11.815  0.00  0.00    +0.000 F 
ATOM     27  N   UNL     1      46.388   9.250  12.184  0.00  0.00    +0.000 NA
ENDBRANCH  19  21
ENDBRANCH   1  15
TORSDOF 4
ENDMDL
MODEL 4
REMARK VINA RESULT:    -8.263      3.674      7.387
REMARK INTER + INTRA:         -10.755
REMARK INTER:                  -9.946
REMARK INTRA:                  -0.809
REMARK UNBOUND:                -0.559
REMARK  Name = 
REMARK  4 active torsions:
REMARK  status: ('A' for Active; 'I' for Inactive)
REMARK    1  A    between atoms: C_2  and  C_4
REMARK    2  A    between atoms: N_8  and  C_9
REMARK    3  A    between atoms: C_9  and  C_10
REMARK    4  A    between atoms: C_14  and  C_15
REMARK                            x       y       z     vdW  Elec       q    Type
REMARK                         _______ _______ _______ _____ _____    ______ ____
ROOT
ATOM      1  C   UNL     1      44.432   6.722  11.592  0.00  0.00    +0.000 C 
ENDROOT
BRANCH   1   6
ATOM      2  C   UNL     1      49.286   7.841  12.901  0.00  0.00    +0.000 A 
ATOM      3  C   UNL     1      48.714   7.606  11.656  0.00  0.00    +0.000 A 
ATOM      4  C   UNL     1      47.358   7.293  11.582  0.00  0.00    +0.000 A 
ATOM      5  C   UNL     1      46.597   7.213  12.744  0.00  0.00    +0.000 A 
ATOM      6  N   UNL     1      45.255   6.968  12.748  0.00  0.00    +0.000 N 
ATOM      7  N   UNL     1      47.150   7.416  13.958  0.00  0.00    +0.000 NA
ATOM      8  C   UNL     1      48.475   7.715  14.016  0.00  0.00    +0.000 A 
ATOM      9  H   UNL     1      44.870   6.844  13.675  0.00  0.00    +0.000 HD
BRANCH   2  11
ATOM     10  N   UNL     1      51.324   7.767  14.205  0.00  0.00    +0.000 N 
ATOM     11  C   UNL     1      50.706   8.200  13.063  0.00  0.00    +0.000 C 
ATOM     12  O   UNL     1      51.315   8.824  12.206  0.00  0.00    +0.000 OA
ATOM     13  H   UNL     1      52.318   7.935  14.275  0.00  0.00    +0.000 HD
ATOM     14  H   UNL     1      50.925   7.061  14.809  0.00  0.00    +0.000 HD
ENDBRANCH   2  11
ENDBRANCH   1   6
BRANCH   1  15
ATOM     15  C   UNL     1      44.338   5.251  11.269  0.00  0.00    +0.000 A 
ATOM     16  C   UNL     1      43.413   4.434  11.935  0.00  0.00    +0.000 A 
ATOM     17  C   UNL     1      43.286   3.093  11.592  0.00  0.00    +0.000 A 
ATOM     18  C   UNL     1      44.063   2.561  10.565  0.00  0.00    +0.000 A 
ATOM     19  C   UNL     1      44.976   3.355   9.845  0.00  0.00    +0.000 A 
ATOM     20  C   UNL     1      45.129   4.694  10.246  0.00  0.00    +0.000 A 
BRANCH  19  21
ATOM     21  C   UNL     1      45.688   2.825   8.668  0.00  0.00    +0.000 A 
ATOM     22  C   UNL     1      46.101   3.672   7.631  0.00  0.00    +0.000 A 
ATOM     23  C   UNL     1      46.796   3.152   6.547  0.00  0.00    +0.000 A 
ATOM     24  C   UNL     1      47.077   1.796   6.522  0.00  0.00    +0.000 A 
ATOM     25  C   UNL     1      46.651   1.023   7.588  0.00  0.00    +0.000 A 
ATOM     26  F   UNL     1      46.935  -0.287   7.569  0.00  0.00    +0.000 F 
ATOM     27  N   UNL     1      45.977   1.499   8.658  0.00  0.00    +0.000 NA
ENDBRANCH  19  21
ENDBRANCH   1  15
TORSDOF 4
ENDMDL
MODEL 5
REMARK VINA RESULT:    -8.050      3.789      8.500
REMARK INTER + INTRA:         -10.492
REMARK INTER:                  -9.975
REMARK INTRA:                  -0.517
REMARK UNBOUND:                -0.559
REMARK  Name = 
REMARK  4 active torsions:
REMARK  status: ('A' for Active; 'I' for Inactive)
REMARK    1  A    between atoms: C_2  and  C_4
REMARK    2  A    between atoms: N_8  and  C_9
REMARK    3  A    between atoms: C_9  and  C_10
REMARK    4  A    between atoms: C_14  and  C_15
REMARK                            x       y       z     vdW  Elec       q    Type
REMARK                         _______ _______ _______ _____ _____    ______ ____
ROOT
ATOM      1  C   UNL     1      46.167   5.302  13.636  0.00  0.00    +0.000 C 
ENDROOT
BRANCH   1   6
ATOM      2  C   UNL     1      48.631   4.378  18.064  0.00  0.00    +0.000 A 
ATOM      3  C   UNL     1      48.653   5.488  17.230  0.00  0.00    +0.000 A 
ATOM      4  C   UNL     1      47.900   5.470  16.058  0.00  0.00    +0.000 A 
ATOM      5  C   UNL     1      47.144   4.348  15.732  0.00  0.00    +0.000 A 
ATOM      6  N   UNL     1      46.339   4.277  14.633  0.00  0.00    +0.000 N 
ATOM      7  N   UNL     1      47.136   3.257  16.524  0.00  0.00    +0.000 NA
ATOM      8  C   UNL     1      47.880   3.286  17.662  0.00  0.00    +0.000 A 
ATOM      9  H   UNL     1      45.935   3.362  14.487  0.00  0.00    +0.000 HD
BRANCH   2  11
ATOM     10  N   UNL     1      48.687   3.928  20.442  0.00  0.00    +0.000 N 
ATOM     11  C   UNL     1      49.381   4.325  19.332  0.00  0.00    +0.000 C 
ATOM     12  O   UNL     1      50.573   4.592  19.386  0.00  0.00    +0.000 OA
ATOM     13  H   UNL     1      49.222   3.806  21.292  0.00  0.00    +0.000 HD
ATOM     14  H   UNL     1      47.782   3.481  20.391  0.00  0.00    +0.000 HD
ENDBRANCH   2  11
ENDBRANCH   1   6
BRANCH   1  15
ATOM     15  C   UNL     1      45.239   4.865  12.530  0.00  0.00    +0.000 A 
ATOM     16  C   UNL     1      43.882   5.218  12.561  0.00  0.00    +0.000 A 
ATOM     17  C   UNL     1      43.041   4.867  11.510  0.00  0.00    +0.000 A 
ATOM     18  C   UNL     1      43.552   4.182  10.410  0.00  0.00    +0.000 A 
ATOM     19  C   UNL     1      44.916   3.841  10.323  0.00  0.00    +0.000 A 
ATOM     20  C   UNL     1      45.736   4.157  11.420  0.00  0.00    +0.000 A 
BRANCH  19  21
ATOM     21  C   UNL     1      45.478   3.247   9.096  0.00  0.00    +0.000 A 
ATOM     22  C   UNL     1      45.829   4.048   8.001  0.00  0.00    +0.000 A 
ATOM     23  C   UNL     1      46.384   3.467   6.868  0.00  0.00    +0.000 A 
ATOM     24  C   UNL     1      46.589   2.097   6.852  0.00  0.00    +0.000 A 
ATOM     25  C   UNL     1      46.231   1.372   7.975  0.00  0.00    +0.000 A 
ATOM     26  F   UNL     1      46.442   0.048   7.963  0.00  0.00    +0.000 F 
ATOM     27  N   UNL     1      45.693   1.907   9.093  0.00  0.00    +0.000 NA
ENDBRANCH  19  21
ENDBRANCH   1  15
TORSDOF 4
ENDMDL
MODEL 6
REMARK VINA RESULT:    -7.135      4.421      8.425
REMARK INTER + INTRA:          -9.363
REMARK INTER:                  -8.594
REMARK INTRA:                  -0.769
REMARK UNBOUND:                -0.559
REMARK  Name = 
REMARK  4 active torsions:
REMARK  status: ('A' for Active; 'I' for Inactive)
REMARK    1  A    between atoms: C_2  and  C_4
REMARK    2  A    between atoms: N_8  and  C_9
REMARK    3  A    between atoms: C_9  and  C_10
REMARK    4  A    between atoms: C_14  and  C_15
REMARK                            x       y       z     vdW  Elec       q    Type
REMARK                         _______ _______ _______ _____ _____    ______ ____
ROOT
ATOM      1  C   UNL     1      47.454   3.975  16.856  0.00  0.00    +0.000 C 
ENDROOT
BRANCH   1   6
ATOM      2  C   UNL     1      52.244   2.401  17.909  0.00  0.00    +0.000 A 
ATOM      3  C   UNL     1      51.629   3.631  18.112  0.00  0.00    +0.000 A 
ATOM      4  C   UNL     1      50.308   3.802  17.705  0.00  0.00    +0.000 A 
ATOM      5  C   UNL     1      49.624   2.753  17.098  0.00  0.00    +0.000 A 
ATOM      6  N   UNL     1      48.313   2.827  16.725  0.00  0.00    +0.000 N 
ATOM      7  N   UNL     1      50.221   1.565  16.875  0.00  0.00    +0.000 NA
ATOM      8  C   UNL     1      51.513   1.413  17.273  0.00  0.00    +0.000 A 
ATOM      9  H   UNL     1      47.994   2.017  16.210  0.00  0.00    +0.000 HD
BRANCH   2  11
ATOM     10  N   UNL     1      54.575   2.077  17.342  0.00  0.00    +0.000 N 
ATOM     11  C   UNL     1      53.631   2.132  18.330  0.00  0.00    +0.000 C 
ATOM     12  O   UNL     1      53.931   1.996  19.508  0.00  0.00    +0.000 OA
ATOM     13  H   UNL     1      55.537   1.981  17.638  0.00  0.00    +0.000 HD
ATOM     14  H   UNL     1      54.406   2.414  16.404  0.00  0.00    +0.000 HD
ENDBRANCH   2  11
ENDBRANCH   1   6
BRANCH   1  15
ATOM     15  C   UNL     1      47.376   4.770  15.577  0.00  0.00    +0.000 A 
ATOM     16  C   UNL     1      48.286   5.808  15.328  0.00  0.00    +0.000 A 
ATOM     17  C   UNL     1      48.252   6.499  14.122  0.00  0.00    +0.000 A 
ATOM     18  C   UNL     1      47.324   6.145  13.144  0.00  0.00    +0.000 A 
ATOM     19  C   UNL     1      46.416   5.086  13.339  0.00  0.00    +0.000 A 
ATOM     20  C   UNL     1      46.433   4.437  14.586  0.00  0.00    +0.000 A 
BRANCH  19  21
ATOM     21  C   UNL     1      45.537   4.623  12.249  0.00  0.00    +0.000 A 
ATOM     22  C   UNL     1      45.600   5.203  10.975  0.00  0.00    +0.000 A 
ATOM     23  C   UNL     1      44.782   4.730   9.958  0.00  0.00    +0.000 A 
ATOM     24  C   UNL     1      43.923   3.677  10.226  0.00  0.00    +0.000 A 
ATOM     25  C   UNL     1      43.926   3.144  11.504  0.00  0.00    +0.000 A 
ATOM     26  F   UNL     1      43.103   2.117  11.760  0.00  0.00    +0.000 F 
ATOM     27  N   UNL     1      44.711   3.580  12.514  0.00  0.00    +0.000 NA
ENDBRANCH  19  21
ENDBRANCH   1  15
TORSDOF 4
ENDMDL
MODEL 7
REMARK VINA RESULT:    -6.933      4.279      8.733
REMARK INTER + INTRA:          -9.114
REMARK INTER:                  -8.519
REMARK INTRA:                  -0.595
REMARK UNBOUND:                -0.559
REMARK  Name = 
REMARK  4 active torsions:
REMARK  status: ('A' for Active; 'I' for Inactive)
REMARK    1  A    between atoms: C_2  and  C_4
REMARK    2  A    between atoms: N_8  and  C_9
REMARK    3  A    between atoms: C_9  and  C_10
REMARK    4  A    between atoms: C_14  and  C_15
REMARK                            x       y       z     vdW  Elec       q    Type
REMARK                         _______ _______ _______ _____ _____    ______ ____
ROOT
ATOM      1  C   UNL     1      47.949   7.500  14.079  0.00  0.00    +0.000 C 
ENDROOT
BRANCH   1   6
ATOM      2  C   UNL     1      49.075   5.326  18.610  0.00  0.00    +0.000 A 
ATOM      3  C   UNL     1      48.952   6.663  18.252  0.00  0.00    +0.000 A 
ATOM      4  C   UNL     1      48.660   6.986  16.929  0.00  0.00    +0.000 A 
ATOM      5  C   UNL     1      48.503   5.976  15.984  0.00  0.00    +0.000 A 
ATOM      6  N   UNL     1      48.162   6.210  14.683  0.00  0.00    +0.000 N 
ATOM      7  N   UNL     1      48.645   4.678  16.318  0.00  0.00    +0.000 NA
ATOM      8  C   UNL     1      48.935   4.377  17.612  0.00  0.00    +0.000 A 
ATOM      9  H   UNL     1      48.184   5.382  14.105  0.00  0.00    +0.000 HD
BRANCH   2  11
ATOM     10  N   UNL     1      48.596   3.883  20.493  0.00  0.00    +0.000 N 
ATOM     11  C   UNL     1      49.360   4.900  19.992  0.00  0.00    +0.000 C 
ATOM     12  O   UNL     1      50.258   5.407  20.650  0.00  0.00    +0.000 OA
ATOM     13  H   UNL     1      48.849   3.531  21.407  0.00  0.00    +0.000 HD
ATOM     14  H   UNL     1      48.018   3.293  19.909  0.00  0.00    +0.000 HD
ENDBRANCH   2  11
ENDBRANCH   1   6
BRANCH   1  15
ATOM     15  C   UNL     1      46.777   7.492  13.129  0.00  0.00    +0.000 A 
ATOM     16  C   UNL     1      46.065   8.672  12.868  0.00  0.00    +0.000 A 
ATOM     17  C   UNL     1      45.025   8.676  11.946  0.00  0.00    +0.000 A 
ATOM     18  C   UNL     1      44.700   7.508  11.259  0.00  0.00    +0.000 A 
ATOM     19  C   UNL     1      45.414   6.311  11.464  0.00  0.00    +0.000 A 
ATOM     20  C   UNL     1      46.425   6.316  12.440  0.00  0.00    +0.000 A 
BRANCH  19  21
ATOM     21  C   UNL     1      45.162   5.120  10.632  0.00  0.00    +0.000 A 
ATOM     22  C   UNL     1      44.405   4.045  11.118  0.00  0.00    +0.000 A 
ATOM     23  C   UNL     1      44.157   2.948  10.304  0.00  0.00    +0.000 A 
ATOM     24  C   UNL     1      44.659   2.947   9.013  0.00  0.00    +0.000 A 
ATOM     25  C   UNL     1      45.386   4.049   8.596  0.00  0.00    +0.000 A 
ATOM     26  F   UNL     1      45.860   4.052   7.342  0.00  0.00    +0.000 F 
ATOM     27  N   UNL     1      45.641   5.133   9.362  0.00  0.00    +0.000 NA
ENDBRANCH  19  21
ENDBRANCH   1  15
TORSDOF 4
ENDMDL
MODEL 8
REMARK VINA RESULT:    -6.800      3.092      4.544
REMARK INTER + INTRA:          -8.950
REMARK INTER:                  -8.233
REMARK INTRA:                  -0.717
REMARK UNBOUND:                -0.559
REMARK  Name = 
REMARK  4 active torsions:
REMARK  status: ('A' for Active; 'I' for Inactive)
REMARK    1  A    between atoms: C_2  and  C_4
REMARK    2  A    between atoms: N_8  and  C_9
REMARK    3  A    between atoms: C_9  and  C_10
REMARK    4  A    between atoms: C_14  and  C_15
REMARK                            x       y       z     vdW  Elec       q    Type
REMARK                         _______ _______ _______ _____ _____    ______ ____
ROOT
ATOM      1  C   UNL     1      46.030   8.762  12.240  0.00  0.00    +0.000 C 
ENDROOT
BRANCH   1   6
ATOM      2  C   UNL     1      44.144   4.053  11.347  0.00  0.00    +0.000 A 
ATOM      3  C   UNL     1      45.118   4.781  10.674  0.00  0.00    +0.000 A 
ATOM      4  C   UNL     1      45.427   6.066  11.116  0.00  0.00    +0.000 A 
ATOM      5  C   UNL     1      44.760   6.606  12.211  0.00  0.00    +0.000 A 
ATOM      6  N   UNL     1      45.047   7.833  12.735  0.00  0.00    +0.000 N 
ATOM      7  N   UNL     1      43.796   5.916  12.853  0.00  0.00    +0.000 NA
ATOM      8  C   UNL     1      43.501   4.665  12.409  0.00  0.00    +0.000 A 
ATOM      9  H   UNL     1      44.408   8.119  13.465  0.00  0.00    +0.000 HD
BRANCH   2  11
ATOM     10  N   UNL     1      44.460   2.130   9.910  0.00  0.00    +0.000 N 
ATOM     11  C   UNL     1      43.774   2.680  10.958  0.00  0.00    +0.000 C 
ATOM     12  O   UNL     1      42.918   2.048  11.562  0.00  0.00    +0.000 OA
ATOM     13  H   UNL     1      44.269   1.160   9.701  0.00  0.00    +0.000 HD
ATOM     14  H   UNL     1      45.317   2.526   9.549  0.00  0.00    +0.000 HD
ENDBRANCH   2  11
ENDBRANCH   1   6
BRANCH   1  15
ATOM     15  C   UNL     1      47.429   8.372  12.647  0.00  0.00    +0.000 A 
ATOM     16  C   UNL     1      48.534   8.804  11.897  0.00  0.00    +0.000 A 
ATOM     17  C   UNL     1      49.826   8.496  12.308  0.00  0.00    +0.000 A 
ATOM     18  C   UNL     1      50.028   7.777  13.484  0.00  0.00    +0.000 A 
ATOM     19  C   UNL     1      48.949   7.357  14.286  0.00  0.00    +0.000 A 
ATOM     20  C   UNL     1      47.650   7.631  13.822  0.00  0.00    +0.000 A 
BRANCH  19  21
ATOM     21  C   UNL     1      49.174   6.724  15.598  0.00  0.00    +0.000 A 
ATOM     22  C   UNL     1      49.803   7.421  16.638  0.00  0.00    +0.000 A 
ATOM     23  C   UNL     1      49.976   6.813  17.874  0.00  0.00    +0.000 A 
ATOM     24  C   UNL     1      49.508   5.522  18.055  0.00  0.00    +0.000 A 
ATOM     25  C   UNL     1      48.884   4.900  16.987  0.00  0.00    +0.000 A 
ATOM     26  F   UNL     1      48.419   3.655  17.168  0.00  0.00    +0.000 F 
ATOM     27  N   UNL     1      48.696   5.466  15.775  0.00  0.00    +0.000 NA
ENDBRANCH  19  21
ENDBRANCH   1  15
TORSDOF 4
ENDMDL
MODEL 9
REMARK VINA RESULT:    -6.562      3.239      5.207
REMARK INTER + INTRA:          -8.655
REMARK INTER:                  -7.810
REMARK INTRA:                  -0.846
REMARK UNBOUND:                -0.559
REMARK  Name = 
REMARK  4 active torsions:
REMARK  status: ('A' for Active; 'I' for Inactive)
REMARK    1  A    between atoms: C_2  and  C_4
REMARK    2  A    between atoms: N_8  and  C_9
REMARK    3  A    between atoms: C_9  and  C_10
REMARK    4  A    between atoms: C_14  and  C_15
REMARK                            x       y       z     vdW  Elec       q    Type
REMARK                         _______ _______ _______ _____ _____    ______ ____
ROOT
ATOM      1  C   UNL     1      48.239   8.710  13.099  0.00  0.00    +0.000 C 
ENDROOT
BRANCH   1   6
ATOM      2  C   UNL     1      44.654   5.662  11.004  0.00  0.00    +0.000 A 
ATOM      3  C   UNL     1      46.011   5.452  11.214  0.00  0.00    +0.000 A 
ATOM      4  C   UNL     1      46.773   6.468  11.787  0.00  0.00    +0.000 A 
ATOM      5  C   UNL     1      46.176   7.676  12.133  0.00  0.00    +0.000 A 
ATOM      6  N   UNL     1      46.842   8.696  12.749  0.00  0.00    +0.000 N 
ATOM      7  N   UNL     1      44.864   7.897  11.910  0.00  0.00    +0.000 NA
ATOM      8  C   UNL     1      44.134   6.899  11.346  0.00  0.00    +0.000 A 
ATOM      9  H   UNL     1      46.292   9.539  12.843  0.00  0.00    +0.000 HD
BRANCH   2  11
ATOM     10  N   UNL     1      43.880   4.417   9.078  0.00  0.00    +0.000 N 
ATOM     11  C   UNL     1      43.774   4.631  10.425  0.00  0.00    +0.000 C 
ATOM     12  O   UNL     1      43.010   3.973  11.117  0.00  0.00    +0.000 OA
ATOM     13  H   UNL     1      43.342   3.651   8.696  0.00  0.00    +0.000 HD
ATOM     14  H   UNL     1      44.651   4.767   8.527  0.00  0.00    +0.000 HD
ENDBRANCH   2  11
ENDBRANCH   1   6
BRANCH   1  15
ATOM     15  C   UNL     1      48.455   8.444  14.568  0.00  0.00    +0.000 A 
ATOM     16  C   UNL     1      48.344   9.485  15.502  0.00  0.00    +0.000 A 
ATOM     17  C   UNL     1      48.483   9.227  16.861  0.00  0.00    +0.000 A 
ATOM     18  C   UNL     1      48.709   7.925  17.302  0.00  0.00    +0.000 A 
ATOM     19  C   UNL     1      48.790   6.846  16.401  0.00  0.00    +0.000 A 
ATOM     20  C   UNL     1      48.702   7.138  15.028  0.00  0.00    +0.000 A 
BRANCH  19  21
ATOM     21  C   UNL     1      48.885   5.455  16.881  0.00  0.00    +0.000 A 
ATOM     22  C   UNL     1      50.107   4.920  17.310  0.00  0.00    +0.000 A 
ATOM     23  C   UNL     1      50.164   3.617  17.786  0.00  0.00    +0.000 A 
ATOM     24  C   UNL     1      48.997   2.873  17.837  0.00  0.00    +0.000 A 
ATOM     25  C   UNL     1      47.824   3.472  17.411  0.00  0.00    +0.000 A 
ATOM     26  F   UNL     1      46.693   2.754  17.473  0.00  0.00    +0.000 F 
ATOM     27  N   UNL     1      47.735   4.737  16.946  0.00  0.00    +0.000 NA
ENDBRANCH  19  21
ENDBRANCH   1  15
TORSDOF 4
ENDMDL
