MODEL 1
REMARK VINA RESULT:    -9.323      0.000      0.000
REMARK INTER + INTRA:         -11.930
REMARK INTER:                 -11.503
REMARK INTRA:                  -0.428
REMARK UNBOUND:                -0.428
REMARK  Name = 
REMARK  4 active torsions:
REMARK  status: ('A' for Active; 'I' for Inactive)
REMARK    1  A    between atoms: C_2  and  C_4
REMARK    2  A    between atoms: N_8  and  C_9
REMARK    3  A    between atoms: C_9  and  C_10
REMARK    4  A    between atoms: C_14  and  C_15
REMARK                            x       y       z     vdW  Elec       q    Type
REMARK                         _______ _______ _______ _____ _____    ______ ____
ROOT
ATOM      1  C   UNL     1      44.126   4.799  11.443  0.00  0.00    +0.000 C 
ATOM      2  C   UNL     1      42.839   4.902  12.240  0.00  0.00    +0.000 C 
ATOM      3  C   UNL     1      43.019   5.752  11.027  0.00  0.00    +0.000 C 
ENDROOT
BRANCH   1   8
ATOM      4  C   UNL     1      46.590   2.711   7.375  0.00  0.00    +0.000 A 
ATOM      5  C   UNL     1      46.400   4.040   7.732  0.00  0.00    +0.000 A 
ATOM      6  C   UNL     1      45.652   4.338   8.869  0.00  0.00    +0.000 A 
ATOM      7  C   UNL     1      45.129   3.308   9.638  0.00  0.00    +0.000 A 
ATOM      8  N   UNL     1      44.321   3.522  10.751  0.00  0.00    +0.000 N 
ATOM      9  N   UNL     1      45.321   2.012   9.306  0.00  0.00    +0.000 NA
ATOM     10  C   UNL     1      46.022   1.736   8.181  0.00  0.00    +0.000 A 
ATOM     11  H   UNL     1      44.226   2.651  11.261  0.00  0.00    +0.000 HD
BRANCH   4  13
ATOM     12  N   UNL     1      47.147   3.080   5.047  0.00  0.00    +0.000 N 
ATOM     13  C   UNL     1      47.332   2.307   6.162  0.00  0.00    +0.000 C 
ATOM     14  O   UNL     1      48.090   1.352   6.160  0.00  0.00    +0.000 OA
ATOM     15  H   UNL     1      47.718   2.852   4.241  0.00  0.00    +0.000 HD
ATOM     16  H   UNL     1      46.735   4.000   5.082  0.00  0.00    +0.000 HD
ENDBRANCH   4  13
ENDBRANCH   1   8
BRANCH   1  17
ATOM     17  C   UNL     1      45.420   5.369  12.009  0.00  0.00    +0.000 A 
ATOM     18  C   UNL     1      45.978   6.544  11.489  0.00  0.00    +0.000 A 
ATOM     19  C   UNL     1      47.028   7.191  12.134  0.00  0.00    +0.000 A 
ATOM     20  C   UNL     1      47.541   6.674  13.325  0.00  0.00    +0.000 A 
ATOM     21  C   UNL     1      47.043   5.484  13.880  0.00  0.00    +0.000 A 
ATOM     22  C   UNL     1      46.008   4.837  13.175  0.00  0.00    +0.000 A 
BRANCH  21  23
ATOM     23  C   UNL     1      47.511   4.976  15.183  0.00  0.00    +0.000 A 
ATOM     24  N   UNL     1      48.563   5.595  15.761  0.00  0.00    +0.000 NA
ATOM     25  C   UNL     1      48.903   5.180  16.994  0.00  0.00    +0.000 A 
ATOM     26  C   UNL     1      48.252   4.176  17.667  0.00  0.00    +0.000 A 
ATOM     27  C   UNL     1      47.203   3.599  16.994  0.00  0.00    +0.000 A 
ATOM     28  N   UNL     1      46.809   3.977  15.764  0.00  0.00    +0.000 NA
ENDBRANCH  21  23
ENDBRANCH   1  17
TORSDOF 4
ENDMDL
MODEL 2
REMARK VINA RESULT:    -8.648      1.955      3.445
REMARK INTER + INTRA:         -11.098
REMARK INTER:                 -10.531
REMARK INTRA:                  -0.567
REMARK UNBOUND:                -0.428
REMARK  Name = 
REMARK  4 active torsions:
REMARK  status: ('A' for Active; 'I' for Inactive)
REMARK    1  A    between atoms: C_2  and  C_4
REMARK    2  A    between atoms: N_8  and  C_9
REMARK    3  A    between atoms: C_9  and  C_10
REMARK    4  A    between atoms: C_14  and  C_15
REMARK                            x       y       z     vdW  Elec       q    Type
REMARK                         _______ _______ _______ _____ _____    ______ ____
ROOT
ATOM      1  C   UNL     1      43.911   4.980  11.572  0.00  0.00    +0.000 C 
ATOM      2  C   UNL     1      42.509   5.233  12.096  0.00  0.00    +0.000 C 
ATOM      3  C   UNL     1      43.032   6.063  10.970  0.00  0.00    +0.000 C 
ENDROOT
BRANCH   1   8
ATOM      4  C   UNL     1      46.427   2.798   7.586  0.00  0.00    +0.000 A 
ATOM      5  C   UNL     1      46.262   4.134   7.928  0.00  0.00    +0.000 A 
ATOM      6  C   UNL     1      45.492   4.460   9.043  0.00  0.00    +0.000 A 
ATOM      7  C   UNL     1      44.922   3.450   9.805  0.00  0.00    +0.000 A 
ATOM      8  N   UNL     1      44.091   3.693  10.894  0.00  0.00    +0.000 N 
ATOM      9  N   UNL     1      45.089   2.146   9.487  0.00  0.00    +0.000 NA
ATOM     10  C   UNL     1      45.812   1.844   8.383  0.00  0.00    +0.000 A 
ATOM     11  H   UNL     1      43.960   2.828  11.408  0.00  0.00    +0.000 HD
BRANCH   4  13
ATOM     12  N   UNL     1      47.105   3.169   5.290  0.00  0.00    +0.000 N 
ATOM     13  C   UNL     1      47.190   2.365   6.396  0.00  0.00    +0.000 C 
ATOM     14  O   UNL     1      47.881   1.360   6.405  0.00  0.00    +0.000 OA
ATOM     15  H   UNL     1      47.692   2.916   4.504  0.00  0.00    +0.000 HD
ATOM     16  H   UNL     1      46.755   4.114   5.327  0.00  0.00    +0.000 HD
ENDBRANCH   4  13
ENDBRANCH   1   8
BRANCH   1  17
ATOM     17  C   UNL     1      45.120   5.385  12.405  0.00  0.00    +0.000 A 
ATOM     18  C   UNL     1      45.596   4.559  13.431  0.00  0.00    +0.000 A 
ATOM     19  C   UNL     1      46.820   4.806  14.048  0.00  0.00    +0.000 A 
ATOM     20  C   UNL     1      47.599   5.891  13.641  0.00  0.00    +0.000 A 
ATOM     21  C   UNL     1      47.161   6.771  12.639  0.00  0.00    +0.000 A 
ATOM     22  C   UNL     1      45.899   6.510  12.068  0.00  0.00    +0.000 A 
BRANCH  21  23
ATOM     23  C   UNL     1      48.014   7.866  12.136  0.00  0.00    +0.000 A 
ATOM     24  N   UNL     1      47.476   9.102  12.065  0.00  0.00    +0.000 NA
ATOM     25  C   UNL     1      48.305  10.098  11.703  0.00  0.00    +0.000 A 
ATOM     26  C   UNL     1      49.631   9.915  11.402  0.00  0.00    +0.000 A 
ATOM     27  C   UNL     1      50.084   8.621  11.492  0.00  0.00    +0.000 A 
ATOM     28  N   UNL     1      49.306   7.585  11.858  0.00  0.00    +0.000 NA
ENDBRANCH  21  23
ENDBRANCH   1  17
TORSDOF 4
ENDMDL
MODEL 3
REMARK VINA RESULT:    -7.517      2.942      7.663
REMARK INTER + INTRA:          -9.702
REMARK INTER:                  -9.508
REMARK INTRA:                  -0.194
REMARK UNBOUND:                -0.428
REMARK  Name = 
REMARK  4 active torsions:
REMARK  status: ('A' for Active; 'I' for Inactive)
REMARK    1  A    between atoms: C_2  and  C_4
REMARK    2  A    between atoms: N_8  and  C_9
REMARK    3  A    between atoms: C_9  and  C_10
REMARK    4  A    between atoms: C_14  and  C_15
REMARK                            x       y       z     vdW  Elec       q    Type
REMARK                         _______ _______ _______ _____ _____    ______ ____
ROOT
ATOM      1  C   UNL     1      48.543   7.865  12.656  0.00  0.00    +0.000 C 
ATOM      2  C   UNL     1      49.686   7.420  11.762  0.00  0.00    +0.000 C 
ATOM      3  C   UNL     1      49.326   8.867  11.825  0.00  0.00    +0.000 C 
ENDROOT
BRANCH   1   8
ATOM      4  C   UNL     1      47.787   4.574  16.603  0.00  0.00    +0.000 A 
ATOM      5  C   UNL     1      47.269   4.575  15.315  0.00  0.00    +0.000 A 
ATOM      6  C   UNL     1      47.602   5.614  14.448  0.00  0.00    +0.000 A 
ATOM      7  C   UNL     1      48.461   6.616  14.874  0.00  0.00    +0.000 A 
ATOM      8  N   UNL     1      48.794   7.719  14.093  0.00  0.00    +0.000 N 
ATOM      9  N   UNL     1      48.982   6.617  16.123  0.00  0.00    +0.000 NA
ATOM     10  C   UNL     1      48.624   5.620  16.965  0.00  0.00    +0.000 A 
ATOM     11  H   UNL     1      49.575   8.203  14.522  0.00  0.00    +0.000 HD
BRANCH   4  13
ATOM     12  N   UNL     1      48.277   3.443  18.689  0.00  0.00    +0.000 N 
ATOM     13  C   UNL     1      47.450   3.537  17.601  0.00  0.00    +0.000 C 
ATOM     14  O   UNL     1      46.472   2.819  17.477  0.00  0.00    +0.000 OA
ATOM     15  H   UNL     1      47.998   2.789  19.410  0.00  0.00    +0.000 HD
ATOM     16  H   UNL     1      48.930   4.168  18.942  0.00  0.00    +0.000 HD
ENDBRANCH   4  13
ENDBRANCH   1   8
BRANCH   1  17
ATOM     17  C   UNL     1      47.105   7.546  12.272  0.00  0.00    +0.000 A 
ATOM     18  C   UNL     1      46.079   8.476  12.482  0.00  0.00    +0.000 A 
ATOM     19  C   UNL     1      44.811   8.289  11.939  0.00  0.00    +0.000 A 
ATOM     20  C   UNL     1      44.545   7.159  11.163  0.00  0.00    +0.000 A 
ATOM     21  C   UNL     1      45.524   6.177  10.941  0.00  0.00    +0.000 A 
ATOM     22  C   UNL     1      46.782   6.383  11.543  0.00  0.00    +0.000 A 
BRANCH  21  23
ATOM     23  C   UNL     1      45.285   5.026  10.049  0.00  0.00    +0.000 A 
ATOM     24  N   UNL     1      45.824   5.065   8.812  0.00  0.00    +0.000 NA
ATOM     25  C   UNL     1      45.679   3.960   8.058  0.00  0.00    +0.000 A 
ATOM     26  C   UNL     1      45.016   2.833   8.476  0.00  0.00    +0.000 A 
ATOM     27  C   UNL     1      44.492   2.893   9.744  0.00  0.00    +0.000 A 
ATOM     28  N   UNL     1      44.614   3.965  10.549  0.00  0.00    +0.000 NA
ENDBRANCH  21  23
ENDBRANCH   1  17
TORSDOF 4
ENDMDL
MODEL 4
REMARK VINA RESULT:    -6.548      3.366      5.336
REMARK INTER + INTRA:          -8.507
REMARK INTER:                  -7.669
REMARK INTRA:                  -0.838
REMARK UNBOUND:                -0.428
REMARK  Name = 
REMARK  4 active torsions:
REMARK  status: ('A' for Active; 'I' for Inactive)
REMARK    1  A    between atoms: C_2  and  C_4
REMARK    2  A    between atoms: N_8  and  C_9
REMARK    3  A    between atoms: C_9  and  C_10
REMARK    4  A    between atoms: C_14  and  C_15
REMARK                            x       y       z     vdW  Elec       q    Type
REMARK                         _______ _______ _______ _____ _____    ______ ____
ROOT
ATOM      1  C   UNL     1      48.869   8.509  12.587  0.00  0.00    +0.000 C 
ATOM      2  C   UNL     1      48.522   9.860  11.988  0.00  0.00    +0.000 C 
ATOM      3  C   UNL     1      49.933   9.373  11.932  0.00  0.00    +0.000 C 
ENDROOT
BRANCH   1   8
ATOM      4  C   UNL     1      44.346   6.093  11.759  0.00  0.00    +0.000 A 
ATOM      5  C   UNL     1      44.682   7.100  12.655  0.00  0.00    +0.000 A 
ATOM      6  C   UNL     1      45.999   7.551  12.708  0.00  0.00    +0.000 A 
ATOM      7  C   UNL     1      46.947   7.008  11.853  0.00  0.00    +0.000 A 
ATOM      8  N   UNL     1      48.294   7.358  11.884  0.00  0.00    +0.000 N 
ATOM      9  N   UNL     1      46.626   6.037  10.968  0.00  0.00    +0.000 NA
ATOM     10  C   UNL     1      45.350   5.584  10.950  0.00  0.00    +0.000 A 
ATOM     11  H   UNL     1      48.749   6.993  11.056  0.00  0.00    +0.000 HD
BRANCH   4  13
ATOM     12  N   UNL     1      41.945   6.415  11.721  0.00  0.00    +0.000 N 
ATOM     13  C   UNL     1      42.984   5.525  11.669  0.00  0.00    +0.000 C 
ATOM     14  O   UNL     1      42.795   4.328  11.527  0.00  0.00    +0.000 OA
ATOM     15  H   UNL     1      41.018   6.033  11.577  0.00  0.00    +0.000 HD
ATOM     16  H   UNL     1      42.069   7.407  11.588  0.00  0.00    +0.000 HD
ENDBRANCH   4  13
ENDBRANCH   1   8
BRANCH   1  17
ATOM     17  C   UNL     1      48.888   8.330  14.099  0.00  0.00    +0.000 A 
ATOM     18  C   UNL     1      48.514   9.375  14.954  0.00  0.00    +0.000 A 
ATOM     19  C   UNL     1      48.315   9.159  16.315  0.00  0.00    +0.000 A 
ATOM     20  C   UNL     1      48.483   7.881  16.850  0.00  0.00    +0.000 A 
ATOM     21  C   UNL     1      48.886   6.800  16.050  0.00  0.00    +0.000 A 
ATOM     22  C   UNL     1      49.117   7.068  14.685  0.00  0.00    +0.000 A 
BRANCH  21  23
ATOM     23  C   UNL     1      48.977   5.427  16.583  0.00  0.00    +0.000 A 
ATOM     24  N   UNL     1      47.879   4.645  16.506  0.00  0.00    +0.000 NA
ATOM     25  C   UNL     1      48.020   3.368  16.903  0.00  0.00    +0.000 A 
ATOM     26  C   UNL     1      49.196   2.844  17.380  0.00  0.00    +0.000 A 
ATOM     27  C   UNL     1      50.254   3.718  17.432  0.00  0.00    +0.000 A 
ATOM     28  N   UNL     1      50.177   5.003  17.039  0.00  0.00    +0.000 NA
ENDBRANCH  21  23
ENDBRANCH   1  17
TORSDOF 4
ENDMDL
MODEL 5
REMARK VINA RESULT:    -6.472      4.216      7.065
REMARK INTER + INTRA:          -8.414
REMARK INTER:                  -7.669
REMARK INTRA:                  -0.745
REMARK UNBOUND:                -0.428
REMARK  Name = 
REMARK  4 active torsions:
REMARK  status: ('A' for Active; 'I' for Inactive)
REMARK    1  A    between atoms: C_2  and  C_4
REMARK    2  A    between atoms: N_8  and  C_9
REMARK    3  A    between atoms: C_9  and  C_10
REMARK    4  A    between atoms: C_14  and  C_15
REMARK                            x       y       z     vdW  Elec       q    Type
REMARK                         _______ _______ _______ _____ _____    ______ ____
ROOT
ATOM      1  C   UNL     1      45.791   4.392  12.865  0.00  0.00    +0.000 C 
ATOM      2  C   UNL     1      44.359   4.068  13.245  0.00  0.00    +0.000 C 
ATOM      3  C   UNL     1      44.832   3.780  11.859  0.00  0.00    +0.000 C 
ENDROOT
BRANCH   1   8
ATOM      4  C   UNL     1      48.184   3.814  17.439  0.00  0.00    +0.000 A 
ATOM      5  C   UNL     1      47.358   4.828  16.973  0.00  0.00    +0.000 A 
ATOM      6  C   UNL     1      46.872   4.764  15.669  0.00  0.00    +0.000 A 
ATOM      7  C   UNL     1      47.199   3.681  14.865  0.00  0.00    +0.000 A 
ATOM      8  N   UNL     1      46.806   3.572  13.535  0.00  0.00    +0.000 N 
ATOM      9  N   UNL     1      47.991   2.682  15.315  0.00  0.00    +0.000 NA
ATOM     10  C   UNL     1      48.483   2.773  16.573  0.00  0.00    +0.000 A 
ATOM     11  H   UNL     1      46.984   2.627  13.215  0.00  0.00    +0.000 HD
BRANCH   4  13
ATOM     12  N   UNL     1      48.272   2.924  19.691  0.00  0.00    +0.000 N 
ATOM     13  C   UNL     1      48.779   3.825  18.792  0.00  0.00    +0.000 C 
ATOM     14  O   UNL     1      49.694   4.577  19.087  0.00  0.00    +0.000 OA
ATOM     15  H   UNL     1      48.736   2.877  20.591  0.00  0.00    +0.000 HD
ATOM     16  H   UNL     1      47.705   2.138  19.415  0.00  0.00    +0.000 HD
ENDBRANCH   4  13
ENDBRANCH   1   8
BRANCH   1  17
ATOM     17  C   UNL     1      46.224   5.842  12.690  0.00  0.00    +0.000 A 
ATOM     18  C   UNL     1      45.322   6.893  12.898  0.00  0.00    +0.000 A 
ATOM     19  C   UNL     1      45.754   8.215  12.959  0.00  0.00    +0.000 A 
ATOM     20  C   UNL     1      47.110   8.512  12.816  0.00  0.00    +0.000 A 
ATOM     21  C   UNL     1      48.059   7.505  12.576  0.00  0.00    +0.000 A 
ATOM     22  C   UNL     1      47.575   6.184  12.480  0.00  0.00    +0.000 A 
BRANCH  21  23
ATOM     23  C   UNL     1      49.504   7.794  12.515  0.00  0.00    +0.000 A 
ATOM     24  N   UNL     1      50.096   7.800  11.302  0.00  0.00    +0.000 NA
ATOM     25  C   UNL     1      51.389   8.169  11.265  0.00  0.00    +0.000 A 
ATOM     26  C   UNL     1      52.115   8.517  12.378  0.00  0.00    +0.000 A 
ATOM     27  C   UNL     1      51.430   8.469  13.567  0.00  0.00    +0.000 A 
ATOM     28  N   UNL     1      50.134   8.119  13.666  0.00  0.00    +0.000 NA
ENDBRANCH  21  23
ENDBRANCH   1  17
TORSDOF 4
ENDMDL
MODEL 6
REMARK VINA RESULT:    -6.355      4.241      7.357
REMARK INTER + INTRA:          -8.269
REMARK INTER:                  -7.520
REMARK INTRA:                  -0.749
REMARK UNBOUND:                -0.428
REMARK  Name = 
REMARK  4 active torsions:
REMARK  status: ('A' for Active; 'I' for Inactive)
REMARK    1  A    between atoms: C_2  and  C_4
REMARK    2  A    between atoms: N_8  and  C_9
REMARK    3  A    between atoms: C_9  and  C_10
REMARK    4  A    between atoms: C_14  and  C_15
REMARK                            x       y       z     vdW  Elec       q    Type
REMARK                         _______ _______ _______ _____ _____    ______ ____
ROOT
ATOM      1  C   UNL     1      48.598   7.205  13.592  0.00  0.00    +0.000 C 
ATOM      2  C   UNL     1      48.887   8.133  14.758  0.00  0.00    +0.000 C 
ATOM      3  C   UNL     1      48.750   6.667  15.004  0.00  0.00    +0.000 C 
ENDROOT
BRANCH   1   8
ATOM      4  C   UNL     1      51.508  10.056  10.368  0.00  0.00    +0.000 A 
ATOM      5  C   UNL     1      50.362  10.384  11.080  0.00  0.00    +0.000 A 
ATOM      6  C   UNL     1      49.738   9.407  11.853  0.00  0.00    +0.000 A 
ATOM      7  C   UNL     1      50.281   8.132  11.920  0.00  0.00    +0.000 A 
ATOM      8  N   UNL     1      49.688   7.085  12.618  0.00  0.00    +0.000 N 
ATOM      9  N   UNL     1      51.405   7.807  11.241  0.00  0.00    +0.000 NA
ATOM     10  C   UNL     1      51.982   8.756  10.467  0.00  0.00    +0.000 A 
ATOM     11  H   UNL     1      50.350   6.320  12.691  0.00  0.00    +0.000 HD
BRANCH   4  13
ATOM     12  N   UNL     1      53.452  11.420   9.891  0.00  0.00    +0.000 N 
ATOM     13  C   UNL     1      52.206  11.018   9.489  0.00  0.00    +0.000 C 
ATOM     14  O   UNL     1      51.712  11.411   8.446  0.00  0.00    +0.000 OA
ATOM     15  H   UNL     1      53.962  12.014   9.248  0.00  0.00    +0.000 HD
ATOM     16  H   UNL     1      53.981  10.935  10.599  0.00  0.00    +0.000 HD
ENDBRANCH   4  13
ENDBRANCH   1   8
BRANCH   1  17
ATOM     17  C   UNL     1      47.221   7.204  12.942  0.00  0.00    +0.000 A 
ATOM     18  C   UNL     1      46.411   8.346  12.969  0.00  0.00    +0.000 A 
ATOM     19  C   UNL     1      45.256   8.431  12.196  0.00  0.00    +0.000 A 
ATOM     20  C   UNL     1      44.889   7.366  11.371  0.00  0.00    +0.000 A 
ATOM     21  C   UNL     1      45.645   6.183  11.324  0.00  0.00    +0.000 A 
ATOM     22  C   UNL     1      46.784   6.121  12.152  0.00  0.00    +0.000 A 
BRANCH  21  23
ATOM     23  C   UNL     1      45.321   5.088  10.389  0.00  0.00    +0.000 A 
ATOM     24  N   UNL     1      45.713   5.220   9.104  0.00  0.00    +0.000 NA
ATOM     25  C   UNL     1      45.498   4.164   8.299  0.00  0.00    +0.000 A 
ATOM     26  C   UNL     1      44.904   2.998   8.713  0.00  0.00    +0.000 A 
ATOM     27  C   UNL     1      44.529   2.963  10.034  0.00  0.00    +0.000 A 
ATOM     28  N   UNL     1      44.727   3.982  10.890  0.00  0.00    +0.000 NA
ENDBRANCH  21  23
ENDBRANCH   1  17
TORSDOF 4
ENDMDL
