MODEL 1
REMARK VINA RESULT:    -8.439      0.000      0.000
REMARK INTER + INTRA:         -12.608
REMARK INTER:                 -11.399
REMARK INTRA:                  -1.210
REMARK UNBOUND:                -1.210
REMARK  Name = 
REMARK  6 active torsions:
REMARK  status: ('A' for Active; 'I' for Inactive)
REMARK    1  A    between atoms: C_2  and  C_25
REMARK    2  A    between atoms: N_3  and  C_4
REMARK    3  A    between atoms: C_4  and  C_5
REMARK    4  A    between atoms: C_8  and  C_9
REMARK    5  A    between atoms: C_9  and  N_10
REMARK    6  A    between atoms: C_11  and  C_13
REMARK                            x       y       z     vdW  Elec       q    Type
REMARK                         _______ _______ _______ _____ _____    ______ ____
ROOT
ATOM      1  C   UNL     1      44.876   5.413  10.648  0.00  0.00    +0.000 A 
ATOM      2  C   UNL     1      46.152   5.924  10.369  0.00  0.00    +0.000 A 
ATOM      3  C   UNL     1      46.780   6.802  11.261  0.00  0.00    +0.000 A 
ATOM      4  C   UNL     1      46.154   7.170  12.460  0.00  0.00    +0.000 A 
ATOM      5  C   UNL     1      44.876   6.665  12.733  0.00  0.00    +0.000 A 
ATOM      6  C   UNL     1      44.249   5.786  11.843  0.00  0.00    +0.000 A 
ENDROOT
BRANCH   1   7
ATOM      7  C   UNL     1      44.207   4.458   9.693  0.00  0.00    +0.000 C 
BRANCH   7  10
ATOM      8  O   UNL     1      45.259   1.873   9.403  0.00  0.00    +0.000 OA
ATOM      9  C   UNL     1      45.559   2.736   8.588  0.00  0.00    +0.000 C 
ATOM     10  N   UNL     1      45.111   4.032   8.651  0.00  0.00    +0.000 N 
ATOM     11  H   UNL     1      45.287   4.671   7.889  0.00  0.00    +0.000 HD
BRANCH   9  12
ATOM     12  C   UNL     1      46.410   2.446   7.421  0.00  0.00    +0.000 C 
ATOM     13  C   UNL     1      46.571   3.222   6.223  0.00  0.00    +0.000 C 
ATOM     14  C   UNL     1      47.579   2.449   5.478  0.00  0.00    +0.000 C 
ATOM     15  N   UNL     1      47.975   1.387   6.117  0.00  0.00    +0.000 NA
ATOM     16  C   UNL     1      47.259   1.415   7.307  0.00  0.00    +0.000 C 
ENDBRANCH   9  12
ENDBRANCH   7  10
ENDBRANCH   1   7
BRANCH   4  17
ATOM     17  C   UNL     1      46.824   8.114  13.426  0.00  0.00    +0.000 C 
BRANCH  17  18
ATOM     18  N   UNL     1      47.329   7.421  14.582  0.00  0.00    +0.000 N 
ATOM     19  C   UNL     1      48.620   6.954  14.621  0.00  0.00    +0.000 C 
ATOM     20  O   UNL     1      49.409   7.149  13.698  0.00  0.00    +0.000 OA
ATOM     21  H   UNL     1      46.647   7.054  15.239  0.00  0.00    +0.000 HD
BRANCH  19  22
ATOM     22  C   UNL     1      49.036   6.260  15.848  0.00  0.00    +0.000 A 
ATOM     23  C   UNL     1      50.130   6.726  16.564  0.00  0.00    +0.000 A 
ATOM     24  S   UNL     1      50.443   5.841  17.988  0.00  0.00    +0.000 S 
ATOM     25  C   UNL     1      49.161   4.768  17.669  0.00  0.00    +0.000 A 
ATOM     26  N   UNL     1      48.893   3.732  18.506  0.00  0.00    +0.000 NA
ATOM     27  C   UNL     1      47.915   2.980  18.127  0.00  0.00    +0.000 A 
ATOM     28  N   UNL     1      47.178   3.175  16.988  0.00  0.00    +0.000 N 
ATOM     29  C   UNL     1      47.395   4.223  16.127  0.00  0.00    +0.000 A 
ATOM     30  O   UNL     1      46.692   4.390  15.135  0.00  0.00    +0.000 OA
ATOM     31  C   UNL     1      48.492   5.094  16.501  0.00  0.00    +0.000 A 
ATOM     32  H   UNL     1      46.419   2.552  16.750  0.00  0.00    +0.000 HD
ENDBRANCH  19  22
ENDBRANCH  17  18
ENDBRANCH   4  17
TORSDOF 6
ENDMDL
MODEL 2
REMARK VINA RESULT:    -7.756      1.749      1.903
REMARK INTER + INTRA:         -11.686
REMARK INTER:                 -10.894
REMARK INTRA:                  -0.792
REMARK UNBOUND:                -1.210
REMARK  Name = 
REMARK  6 active torsions:
REMARK  status: ('A' for Active; 'I' for Inactive)
REMARK    1  A    between atoms: C_2  and  C_25
REMARK    2  A    between atoms: N_3  and  C_4
REMARK    3  A    between atoms: C_4  and  C_5
REMARK    4  A    between atoms: C_8  and  C_9
REMARK    5  A    between atoms: C_9  and  N_10
REMARK    6  A    between atoms: C_11  and  C_13
REMARK                            x       y       z     vdW  Elec       q    Type
REMARK                         _______ _______ _______ _____ _____    ______ ____
ROOT
ATOM      1  C   UNL     1      45.341   4.675  11.677  0.00  0.00    +0.000 A 
ATOM      2  C   UNL     1      45.505   5.963  11.145  0.00  0.00    +0.000 A 
ATOM      3  C   UNL     1      46.337   6.895  11.777  0.00  0.00    +0.000 A 
ATOM      4  C   UNL     1      47.039   6.553  12.939  0.00  0.00    +0.000 A 
ATOM      5  C   UNL     1      46.869   5.268  13.473  0.00  0.00    +0.000 A 
ATOM      6  C   UNL     1      46.039   4.336  12.842  0.00  0.00    +0.000 A 
ENDROOT
BRANCH   1   7
ATOM      7  C   UNL     1      44.455   3.668  10.989  0.00  0.00    +0.000 C 
BRANCH   7  10
ATOM      8  O   UNL     1      44.599   4.399   8.285  0.00  0.00    +0.000 OA
ATOM      9  C   UNL     1      45.191   3.398   8.666  0.00  0.00    +0.000 C 
ATOM     10  N   UNL     1      45.170   2.948   9.963  0.00  0.00    +0.000 N 
ATOM     11  H   UNL     1      45.772   2.190  10.250  0.00  0.00    +0.000 HD
BRANCH   9  12
ATOM     12  C   UNL     1      46.030   2.593   7.761  0.00  0.00    +0.000 C 
ATOM     13  C   UNL     1      46.633   2.990   6.519  0.00  0.00    +0.000 C 
ATOM     14  C   UNL     1      47.377   1.782   6.127  0.00  0.00    +0.000 C 
ATOM     15  N   UNL     1      47.259   0.814   6.989  0.00  0.00    +0.000 NA
ATOM     16  C   UNL     1      46.444   1.337   7.984  0.00  0.00    +0.000 C 
ENDBRANCH   9  12
ENDBRANCH   7  10
ENDBRANCH   1   7
BRANCH   4  17
ATOM     17  C   UNL     1      47.939   7.550  13.624  0.00  0.00    +0.000 C 
BRANCH  17  18
ATOM     18  N   UNL     1      47.864   7.438  15.057  0.00  0.00    +0.000 N 
ATOM     19  C   UNL     1      48.932   6.982  15.789  0.00  0.00    +0.000 C 
ATOM     20  O   UNL     1      50.007   6.700  15.262  0.00  0.00    +0.000 OA
ATOM     21  H   UNL     1      46.939   7.442  15.476  0.00  0.00    +0.000 HD
BRANCH  19  22
ATOM     22  C   UNL     1      48.752   6.906  17.245  0.00  0.00    +0.000 A 
ATOM     23  C   UNL     1      48.553   8.069  17.976  0.00  0.00    +0.000 A 
ATOM     24  S   UNL     1      48.309   7.798  19.642  0.00  0.00    +0.000 S 
ATOM     25  C   UNL     1      48.515   6.118  19.456  0.00  0.00    +0.000 A 
ATOM     26  N   UNL     1      48.452   5.284  20.525  0.00  0.00    +0.000 NA
ATOM     27  C   UNL     1      48.659   4.041  20.245  0.00  0.00    +0.000 A 
ATOM     28  N   UNL     1      48.918   3.558  18.989  0.00  0.00    +0.000 N 
ATOM     29  C   UNL     1      48.965   4.360  17.874  0.00  0.00    +0.000 A 
ATOM     30  O   UNL     1      49.161   3.890  16.757  0.00  0.00    +0.000 OA
ATOM     31  C   UNL     1      48.749   5.770  18.136  0.00  0.00    +0.000 A 
ATOM     32  H   UNL     1      49.065   2.571  18.834  0.00  0.00    +0.000 HD
ENDBRANCH  19  22
ENDBRANCH  17  18
ENDBRANCH   4  17
TORSDOF 6
ENDMDL
MODEL 3
REMARK VINA RESULT:    -7.505      2.167      3.664
REMARK INTER + INTRA:         -11.347
REMARK INTER:                 -10.366
REMARK INTRA:                  -0.981
REMARK UNBOUND:                -1.210
REMARK  Name = 
REMARK  6 active torsions:
REMARK  status: ('A' for Active; 'I' for Inactive)
REMARK    1  A    between atoms: C_2  and  C_25
REMARK    2  A    between atoms: N_3  and  C_4
REMARK    3  A    between atoms: C_4  and  C_5
REMARK    4  A    between atoms: C_8  and  C_9
REMARK    5  A    between atoms: C_9  and  N_10
REMARK    6  A    between atoms: C_11  and  C_13
REMARK                            x       y       z     vdW  Elec       q    Type
REMARK                         _______ _______ _______ _____ _____    ______ ____
ROOT
ATOM      1  C   UNL     1      45.051   4.472  11.236  0.00  0.00    +0.000 A 
ATOM      2  C   UNL     1      45.423   5.725  11.744  0.00  0.00    +0.000 A 
ATOM      3  C   UNL     1      46.059   5.831  12.987  0.00  0.00    +0.000 A 
ATOM      4  C   UNL     1      46.355   4.686  13.737  0.00  0.00    +0.000 A 
ATOM      5  C   UNL     1      45.976   3.435  13.232  0.00  0.00    +0.000 A 
ATOM      6  C   UNL     1      45.343   3.328  11.990  0.00  0.00    +0.000 A 
ENDROOT
BRANCH   1   7
ATOM      7  C   UNL     1      44.378   4.358   9.892  0.00  0.00    +0.000 C 
BRANCH   7  10
ATOM      8  O   UNL     1      44.780   1.725   9.013  0.00  0.00    +0.000 OA
ATOM      9  C   UNL     1      45.421   2.632   8.498  0.00  0.00    +0.000 C 
ATOM     10  N   UNL     1      45.308   3.949   8.867  0.00  0.00    +0.000 N 
ATOM     11  H   UNL     1      45.766   4.671   8.329  0.00  0.00    +0.000 HD
BRANCH   9  12
ATOM     12  C   UNL     1      46.357   2.393   7.385  0.00  0.00    +0.000 C 
ATOM     13  C   UNL     1      46.574   3.200   6.217  0.00  0.00    +0.000 C 
ATOM     14  C   UNL     1      47.653   2.474   5.527  0.00  0.00    +0.000 C 
ATOM     15  N   UNL     1      48.038   1.410   6.169  0.00  0.00    +0.000 NA
ATOM     16  C   UNL     1      47.243   1.389   7.308  0.00  0.00    +0.000 C 
ENDBRANCH   9  12
ENDBRANCH   7  10
ENDBRANCH   1   7
BRANCH   4  17
ATOM     17  C   UNL     1      47.041   4.792  15.075  0.00  0.00    +0.000 C 
BRANCH  17  18
ATOM     18  N   UNL     1      47.797   6.012  15.191  0.00  0.00    +0.000 N 
ATOM     19  C   UNL     1      48.913   6.081  15.986  0.00  0.00    +0.000 C 
ATOM     20  O   UNL     1      49.342   5.100  16.590  0.00  0.00    +0.000 OA
ATOM     21  H   UNL     1      47.341   6.870  14.896  0.00  0.00    +0.000 HD
BRANCH  19  22
ATOM     22  C   UNL     1      49.612   7.373  16.035  0.00  0.00    +0.000 A 
ATOM     23  C   UNL     1      49.897   7.956  17.262  0.00  0.00    +0.000 A 
ATOM     24  S   UNL     1      50.758   9.423  17.140  0.00  0.00    +0.000 S 
ATOM     25  C   UNL     1      50.733   9.361  15.439  0.00  0.00    +0.000 A 
ATOM     26  N   UNL     1      51.290  10.351  14.696  0.00  0.00    +0.000 NA
ATOM     27  C   UNL     1      51.170  10.192  13.420  0.00  0.00    +0.000 A 
ATOM     28  N   UNL     1      50.547   9.128  12.822  0.00  0.00    +0.000 N 
ATOM     29  C   UNL     1      49.994   8.090  13.533  0.00  0.00    +0.000 A 
ATOM     30  O   UNL     1      49.477   7.132  12.965  0.00  0.00    +0.000 OA
ATOM     31  C   UNL     1      50.092   8.225  14.973  0.00  0.00    +0.000 A 
ATOM     32  H   UNL     1      50.493   9.059  11.816  0.00  0.00    +0.000 HD
ENDBRANCH  19  22
ENDBRANCH  17  18
ENDBRANCH   4  17
TORSDOF 6
ENDMDL
MODEL 4
REMARK VINA RESULT:    -7.323      1.789      2.469
REMARK INTER + INTRA:         -11.102
REMARK INTER:                 -10.357
REMARK INTRA:                  -0.745
REMARK UNBOUND:                -1.210
REMARK  Name = 
REMARK  6 active torsions:
REMARK  status: ('A' for Active; 'I' for Inactive)
REMARK    1  A    between atoms: C_2  and  C_25
REMARK    2  A    between atoms: N_3  and  C_4
REMARK    3  A    between atoms: C_4  and  C_5
REMARK    4  A    between atoms: C_8  and  C_9
REMARK    5  A    between atoms: C_9  and  N_10
REMARK    6  A    between atoms: C_11  and  C_13
REMARK                            x       y       z     vdW  Elec       q    Type
REMARK                         _______ _______ _______ _____ _____    ______ ____
ROOT
ATOM      1  C   UNL     1      45.157   5.082  10.917  0.00  0.00    +0.000 A 
ATOM      2  C   UNL     1      45.903   6.230  10.610  0.00  0.00    +0.000 A 
ATOM      3  C   UNL     1      46.617   6.905  11.607  0.00  0.00    +0.000 A 
ATOM      4  C   UNL     1      46.617   6.436  12.927  0.00  0.00    +0.000 A 
ATOM      5  C   UNL     1      45.865   5.294  13.234  0.00  0.00    +0.000 A 
ATOM      6  C   UNL     1      45.154   4.618  12.238  0.00  0.00    +0.000 A 
ENDROOT
BRANCH   1   7
ATOM      7  C   UNL     1      44.399   4.349   9.840  0.00  0.00    +0.000 C 
BRANCH   7  10
ATOM      8  O   UNL     1      45.404   1.770   9.382  0.00  0.00    +0.000 OA
ATOM      9  C   UNL     1      45.692   2.671   8.605  0.00  0.00    +0.000 C 
ATOM     10  N   UNL     1      45.265   3.967   8.750  0.00  0.00    +0.000 N 
ATOM     11  H   UNL     1      45.428   4.643   8.018  0.00  0.00    +0.000 HD
BRANCH   9  12
ATOM     12  C   UNL     1      46.504   2.433   7.400  0.00  0.00    +0.000 C 
ATOM     13  C   UNL     1      46.596   3.239   6.215  0.00  0.00    +0.000 C 
ATOM     14  C   UNL     1      47.594   2.513   5.413  0.00  0.00    +0.000 C 
ATOM     15  N   UNL     1      48.047   1.450   6.011  0.00  0.00    +0.000 NA
ATOM     16  C   UNL     1      47.378   1.429   7.228  0.00  0.00    +0.000 C 
ENDBRANCH   9  12
ENDBRANCH   7  10
ENDBRANCH   1   7
BRANCH   4  17
ATOM     17  C   UNL     1      47.385   7.156  14.006  0.00  0.00    +0.000 C 
BRANCH  17  18
ATOM     18  N   UNL     1      47.970   6.237  14.947  0.00  0.00    +0.000 N 
ATOM     19  C   UNL     1      48.740   6.686  15.991  0.00  0.00    +0.000 C 
ATOM     20  O   UNL     1      48.920   7.885  16.196  0.00  0.00    +0.000 OA
ATOM     21  H   UNL     1      48.026   5.262  14.669  0.00  0.00    +0.000 HD
BRANCH  19  22
ATOM     22  C   UNL     1      49.290   5.666  16.894  0.00  0.00    +0.000 A 
ATOM     23  C   UNL     1      48.429   4.858  17.625  0.00  0.00    +0.000 A 
ATOM     24  S   UNL     1      49.230   3.693  18.580  0.00  0.00    +0.000 S 
ATOM     25  C   UNL     1      50.758   4.264  18.094  0.00  0.00    +0.000 A 
ATOM     26  N   UNL     1      51.898   3.706  18.577  0.00  0.00    +0.000 NA
ATOM     27  C   UNL     1      52.984   4.258  18.150  0.00  0.00    +0.000 A 
ATOM     28  N   UNL     1      53.032   5.315  17.279  0.00  0.00    +0.000 N 
ATOM     29  C   UNL     1      51.906   5.894  16.744  0.00  0.00    +0.000 A 
ATOM     30  O   UNL     1      51.984   6.815  15.937  0.00  0.00    +0.000 OA
ATOM     31  C   UNL     1      50.656   5.317  17.200  0.00  0.00    +0.000 A 
ATOM     32  H   UNL     1      53.916   5.698  16.978  0.00  0.00    +0.000 HD
ENDBRANCH  19  22
ENDBRANCH  17  18
ENDBRANCH   4  17
TORSDOF 6
ENDMDL
MODEL 5
REMARK VINA RESULT:    -7.282      2.708      3.441
REMARK INTER + INTRA:         -11.045
REMARK INTER:                 -10.265
REMARK INTRA:                  -0.780
REMARK UNBOUND:                -1.210
REMARK  Name = 
REMARK  6 active torsions:
REMARK  status: ('A' for Active; 'I' for Inactive)
REMARK    1  A    between atoms: C_2  and  C_25
REMARK    2  A    between atoms: N_3  and  C_4
REMARK    3  A    between atoms: C_4  and  C_5
REMARK    4  A    between atoms: C_8  and  C_9
REMARK    5  A    between atoms: C_9  and  N_10
REMARK    6  A    between atoms: C_11  and  C_13
REMARK                            x       y       z     vdW  Elec       q    Type
REMARK                         _______ _______ _______ _____ _____    ______ ____
ROOT
ATOM      1  C   UNL     1      44.796   4.359  11.203  0.00  0.00    +0.000 A 
ATOM      2  C   UNL     1      45.164   5.595  11.753  0.00  0.00    +0.000 A 
ATOM      3  C   UNL     1      45.903   5.656  12.941  0.00  0.00    +0.000 A 
ATOM      4  C   UNL     1      46.307   4.483  13.592  0.00  0.00    +0.000 A 
ATOM      5  C   UNL     1      45.931   3.248  13.045  0.00  0.00    +0.000 A 
ATOM      6  C   UNL     1      45.195   3.187  11.858  0.00  0.00    +0.000 A 
ENDROOT
BRANCH   1   7
ATOM      7  C   UNL     1      44.011   4.294   9.918  0.00  0.00    +0.000 C 
BRANCH   7  10
ATOM      8  O   UNL     1      46.168   5.172   8.353  0.00  0.00    +0.000 OA
ATOM      9  C   UNL     1      45.755   4.028   8.214  0.00  0.00    +0.000 C 
ATOM     10  N   UNL     1      44.698   3.509   8.919  0.00  0.00    +0.000 N 
ATOM     11  H   UNL     1      44.476   2.526   8.857  0.00  0.00    +0.000 HD
BRANCH   9  12
ATOM     12  C   UNL     1      46.393   3.074   7.291  0.00  0.00    +0.000 C 
ATOM     13  C   UNL     1      46.831   3.298   5.942  0.00  0.00    +0.000 C 
ATOM     14  C   UNL     1      47.425   2.000   5.581  0.00  0.00    +0.000 C 
ATOM     15  N   UNL     1      47.372   1.133   6.550  0.00  0.00    +0.000 NA
ATOM     16  C   UNL     1      46.752   1.815   7.588  0.00  0.00    +0.000 C 
ENDBRANCH   9  12
ENDBRANCH   7  10
ENDBRANCH   1   7
BRANCH   4  17
ATOM     17  C   UNL     1      47.103   4.540  14.870  0.00  0.00    +0.000 C 
BRANCH  17  18
ATOM     18  N   UNL     1      47.529   5.882  15.172  0.00  0.00    +0.000 N 
ATOM     19  C   UNL     1      48.584   6.118  16.018  0.00  0.00    +0.000 C 
ATOM     20  O   UNL     1      49.238   5.200  16.511  0.00  0.00    +0.000 OA
ATOM     21  H   UNL     1      46.876   6.633  14.969  0.00  0.00    +0.000 HD
BRANCH  19  22
ATOM     22  C   UNL     1      48.938   7.523  16.260  0.00  0.00    +0.000 A 
ATOM     23  C   UNL     1      49.633   8.234  15.291  0.00  0.00    +0.000 A 
ATOM     24  S   UNL     1      49.915   9.863  15.708  0.00  0.00    +0.000 S 
ATOM     25  C   UNL     1      49.166   9.663  17.224  0.00  0.00    +0.000 A 
ATOM     26  N   UNL     1      49.090  10.692  18.107  0.00  0.00    +0.000 NA
ATOM     27  C   UNL     1      48.526  10.392  19.228  0.00  0.00    +0.000 A 
ATOM     28  N   UNL     1      48.027   9.155  19.543  0.00  0.00    +0.000 N 
ATOM     29  C   UNL     1      48.057   8.093  18.673  0.00  0.00    +0.000 A 
ATOM     30  O   UNL     1      47.567   7.008  18.971  0.00  0.00    +0.000 OA
ATOM     31  C   UNL     1      48.691   8.374  17.399  0.00  0.00    +0.000 A 
ATOM     32  H   UNL     1      47.590   8.986  20.438  0.00  0.00    +0.000 HD
ENDBRANCH  19  22
ENDBRANCH  17  18
ENDBRANCH   4  17
TORSDOF 6
ENDMDL
MODEL 6
REMARK VINA RESULT:    -6.820      3.150      8.621
REMARK INTER + INTRA:         -10.423
REMARK INTER:                  -9.436
REMARK INTRA:                  -0.987
REMARK UNBOUND:                -1.210
REMARK  Name = 
REMARK  6 active torsions:
REMARK  status: ('A' for Active; 'I' for Inactive)
REMARK    1  A    between atoms: C_2  and  C_25
REMARK    2  A    between atoms: N_3  and  C_4
REMARK    3  A    between atoms: C_4  and  C_5
REMARK    4  A    between atoms: C_8  and  C_9
REMARK    5  A    between atoms: C_9  and  N_10
REMARK    6  A    between atoms: C_11  and  C_13
REMARK                            x       y       z     vdW  Elec       q    Type
REMARK                         _______ _______ _______ _____ _____    ______ ____
ROOT
ATOM      1  C   UNL     1      50.047   7.079  15.591  0.00  0.00    +0.000 A 
ATOM      2  C   UNL     1      48.766   6.511  15.534  0.00  0.00    +0.000 A 
ATOM      3  C   UNL     1      47.955   6.688  14.406  0.00  0.00    +0.000 A 
ATOM      4  C   UNL     1      48.416   7.419  13.304  0.00  0.00    +0.000 A 
ATOM      5  C   UNL     1      49.694   7.993  13.365  0.00  0.00    +0.000 A 
ATOM      6  C   UNL     1      50.505   7.814  14.490  0.00  0.00    +0.000 A 
ENDROOT
BRANCH   1   7
ATOM      7  C   UNL     1      50.924   6.876  16.800  0.00  0.00    +0.000 C 
BRANCH   7  10
ATOM      8  O   UNL     1      49.983   4.973  18.633  0.00  0.00    +0.000 OA
ATOM      9  C   UNL     1      50.843   4.650  17.825  0.00  0.00    +0.000 C 
ATOM     10  N   UNL     1      51.380   5.510  16.899  0.00  0.00    +0.000 N 
ATOM     11  H   UNL     1      51.994   5.163  16.177  0.00  0.00    +0.000 HD
BRANCH   9  12
ATOM     12  C   UNL     1      51.361   3.273  17.743  0.00  0.00    +0.000 C 
ATOM     13  C   UNL     1      52.640   2.777  18.166  0.00  0.00    +0.000 C 
ATOM     14  C   UNL     1      52.535   1.338  17.874  0.00  0.00    +0.000 C 
ATOM     15  N   UNL     1      51.382   1.008  17.369  0.00  0.00    +0.000 NA
ATOM     16  C   UNL     1      50.677   2.202  17.312  0.00  0.00    +0.000 C 
ENDBRANCH   9  12
ENDBRANCH   7  10
ENDBRANCH   1   7
BRANCH   4  17
ATOM     17  C   UNL     1      47.550   7.614  12.085  0.00  0.00    +0.000 C 
BRANCH  17  18
ATOM     18  N   UNL     1      46.861   6.402  11.723  0.00  0.00    +0.000 N 
ATOM     19  C   UNL     1      45.496   6.305  11.829  0.00  0.00    +0.000 C 
ATOM     20  O   UNL     1      44.804   7.256  12.187  0.00  0.00    +0.000 OA
ATOM     21  H   UNL     1      47.418   5.556  11.652  0.00  0.00    +0.000 HD
BRANCH  19  22
ATOM     22  C   UNL     1      44.892   5.025  11.434  0.00  0.00    +0.000 A 
ATOM     23  C   UNL     1      44.127   4.314  12.349  0.00  0.00    +0.000 A 
ATOM     24  S   UNL     1      43.456   2.881  11.713  0.00  0.00    +0.000 S 
ATOM     25  C   UNL     1      44.210   3.130  10.207  0.00  0.00    +0.000 A 
ATOM     26  N   UNL     1      44.064   2.235   9.196  0.00  0.00    +0.000 NA
ATOM     27  C   UNL     1      44.717   2.532   8.123  0.00  0.00    +0.000 A 
ATOM     28  N   UNL     1      45.498   3.648   7.969  0.00  0.00    +0.000 N 
ATOM     29  C   UNL     1      45.654   4.593   8.953  0.00  0.00    +0.000 A 
ATOM     30  O   UNL     1      46.330   5.601   8.770  0.00  0.00    +0.000 OA
ATOM     31  C   UNL     1      44.949   4.302  10.187  0.00  0.00    +0.000 A 
ATOM     32  H   UNL     1      45.979   3.826   7.099  0.00  0.00    +0.000 HD
ENDBRANCH  19  22
ENDBRANCH  17  18
ENDBRANCH   4  17
TORSDOF 6
ENDMDL
MODEL 7
REMARK VINA RESULT:    -6.725      3.607      8.223
REMARK INTER + INTRA:         -10.293
REMARK INTER:                  -9.361
REMARK INTRA:                  -0.932
REMARK UNBOUND:                -1.210
REMARK  Name = 
REMARK  6 active torsions:
REMARK  status: ('A' for Active; 'I' for Inactive)
REMARK    1  A    between atoms: C_2  and  C_25
REMARK    2  A    between atoms: N_3  and  C_4
REMARK    3  A    between atoms: C_4  and  C_5
REMARK    4  A    between atoms: C_8  and  C_9
REMARK    5  A    between atoms: C_9  and  N_10
REMARK    6  A    between atoms: C_11  and  C_13
REMARK                            x       y       z     vdW  Elec       q    Type
REMARK                         _______ _______ _______ _____ _____    ______ ____
ROOT
ATOM      1  C   UNL     1      49.851   6.841  16.130  0.00  0.00    +0.000 A 
ATOM      2  C   UNL     1      48.555   6.504  15.712  0.00  0.00    +0.000 A 
ATOM      3  C   UNL     1      48.113   6.830  14.424  0.00  0.00    +0.000 A 
ATOM      4  C   UNL     1      48.964   7.480  13.520  0.00  0.00    +0.000 A 
ATOM      5  C   UNL     1      50.255   7.823  13.942  0.00  0.00    +0.000 A 
ATOM      6  C   UNL     1      50.698   7.496  15.227  0.00  0.00    +0.000 A 
ENDROOT
BRANCH   1   7
ATOM      7  C   UNL     1      50.330   6.479  17.512  0.00  0.00    +0.000 C 
BRANCH   7  10
ATOM      8  O   UNL     1      49.318   3.945  18.164  0.00  0.00    +0.000 OA
ATOM      9  C   UNL     1      50.490   4.052  17.827  0.00  0.00    +0.000 C 
ATOM     10  N   UNL     1      51.083   5.247  17.505  0.00  0.00    +0.000 N 
ATOM     11  H   UNL     1      52.015   5.266  17.115  0.00  0.00    +0.000 HD
BRANCH   9  12
ATOM     12  C   UNL     1      51.375   2.882  17.694  0.00  0.00    +0.000 C 
ATOM     13  C   UNL     1      52.762   2.771  18.049  0.00  0.00    +0.000 C 
ATOM     14  C   UNL     1      53.059   1.364  17.733  0.00  0.00    +0.000 C 
ATOM     15  N   UNL     1      52.026   0.720  17.273  0.00  0.00    +0.000 NA
ATOM     16  C   UNL     1      51.006   1.663  17.273  0.00  0.00    +0.000 C 
ENDBRANCH   9  12
ENDBRANCH   7  10
ENDBRANCH   1   7
BRANCH   4  17
ATOM     17  C   UNL     1      48.496   7.833  12.131  0.00  0.00    +0.000 C 
BRANCH  17  18
ATOM     18  N   UNL     1      47.737   6.762  11.537  0.00  0.00    +0.000 N 
ATOM     19  C   UNL     1      46.369   6.828  11.447  0.00  0.00    +0.000 C 
ATOM     20  O   UNL     1      45.741   7.817  11.821  0.00  0.00    +0.000 OA
ATOM     21  H   UNL     1      48.201   5.864  11.440  0.00  0.00    +0.000 HD
BRANCH  19  22
ATOM     22  C   UNL     1      45.691   5.683  10.824  0.00  0.00    +0.000 A 
ATOM     23  C   UNL     1      45.776   5.497   9.451  0.00  0.00    +0.000 A 
ATOM     24  S   UNL     1      44.979   4.094   8.899  0.00  0.00    +0.000 S 
ATOM     25  C   UNL     1      44.444   3.714  10.470  0.00  0.00    +0.000 A 
ATOM     26  N   UNL     1      43.671   2.620  10.699  0.00  0.00    +0.000 NA
ATOM     27  C   UNL     1      43.310   2.471  11.929  0.00  0.00    +0.000 A 
ATOM     28  N   UNL     1      43.658   3.314  12.952  0.00  0.00    +0.000 N 
ATOM     29  C   UNL     1      44.459   4.416  12.773  0.00  0.00    +0.000 A 
ATOM     30  O   UNL     1      44.784   5.130  13.717  0.00  0.00    +0.000 OA
ATOM     31  C   UNL     1      44.884   4.637  11.404  0.00  0.00    +0.000 A 
ATOM     32  H   UNL     1      43.348   3.137  13.896  0.00  0.00    +0.000 HD
ENDBRANCH  19  22
ENDBRANCH  17  18
ENDBRANCH   4  17
TORSDOF 6
ENDMDL
MODEL 8
REMARK VINA RESULT:    -6.547      2.627      3.747
REMARK INTER + INTRA:         -10.053
REMARK INTER:                  -9.221
REMARK INTRA:                  -0.832
REMARK UNBOUND:                -1.210
REMARK  Name = 
REMARK  6 active torsions:
REMARK  status: ('A' for Active; 'I' for Inactive)
REMARK    1  A    between atoms: C_2  and  C_25
REMARK    2  A    between atoms: N_3  and  C_4
REMARK    3  A    between atoms: C_4  and  C_5
REMARK    4  A    between atoms: C_8  and  C_9
REMARK    5  A    between atoms: C_9  and  N_10
REMARK    6  A    between atoms: C_11  and  C_13
REMARK                            x       y       z     vdW  Elec       q    Type
REMARK                         _______ _______ _______ _____ _____    ______ ____
ROOT
ATOM      1  C   UNL     1      45.762   5.233  11.921  0.00  0.00    +0.000 A 
ATOM      2  C   UNL     1      46.656   6.128  12.525  0.00  0.00    +0.000 A 
ATOM      3  C   UNL     1      47.245   5.826  13.760  0.00  0.00    +0.000 A 
ATOM      4  C   UNL     1      46.968   4.613  14.405  0.00  0.00    +0.000 A 
ATOM      5  C   UNL     1      46.068   3.723  13.803  0.00  0.00    +0.000 A 
ATOM      6  C   UNL     1      45.481   4.024  12.570  0.00  0.00    +0.000 A 
ENDROOT
BRANCH   1   7
ATOM      7  C   UNL     1      45.139   5.554  10.587  0.00  0.00    +0.000 C 
BRANCH   7  10
ATOM      8  O   UNL     1      44.275   3.080   9.585  0.00  0.00    +0.000 OA
ATOM      9  C   UNL     1      45.258   3.616   9.090  0.00  0.00    +0.000 C 
ATOM     10  N   UNL     1      45.768   4.816   9.518  0.00  0.00    +0.000 N 
ATOM     11  H   UNL     1      46.503   5.273   8.997  0.00  0.00    +0.000 HD
BRANCH   9  12
ATOM     12  C   UNL     1      45.971   3.031   7.940  0.00  0.00    +0.000 C 
ATOM     13  C   UNL     1      46.411   1.676   7.762  0.00  0.00    +0.000 C 
ATOM     14  C   UNL     1      46.997   1.707   6.412  0.00  0.00    +0.000 C 
ATOM     15  N   UNL     1      46.918   2.880   5.854  0.00  0.00    +0.000 NA
ATOM     16  C   UNL     1      46.274   3.668   6.799  0.00  0.00    +0.000 C 
ENDBRANCH   9  12
ENDBRANCH   7  10
ENDBRANCH   1   7
BRANCH   4  17
ATOM     17  C   UNL     1      47.599   4.280  15.732  0.00  0.00    +0.000 C 
BRANCH  17  18
ATOM     18  N   UNL     1      47.499   5.377  16.660  0.00  0.00    +0.000 N 
ATOM     19  C   UNL     1      48.622   5.989  17.156  0.00  0.00    +0.000 C 
ATOM     20  O   UNL     1      49.752   5.664  16.795  0.00  0.00    +0.000 OA
ATOM     21  H   UNL     1      46.611   5.503  17.136  0.00  0.00    +0.000 HD
BRANCH  19  22
ATOM     22  C   UNL     1      48.410   7.099  18.096  0.00  0.00    +0.000 A 
ATOM     23  C   UNL     1      48.350   6.844  19.459  0.00  0.00    +0.000 A 
ATOM     24  S   UNL     1      48.154   8.245  20.410  0.00  0.00    +0.000 S 
ATOM     25  C   UNL     1      48.086   9.240  19.030  0.00  0.00    +0.000 A 
ATOM     26  N   UNL     1      47.902  10.581  19.143  0.00  0.00    +0.000 NA
ATOM     27  C   UNL     1      47.838  11.207  18.017  0.00  0.00    +0.000 A 
ATOM     28  N   UNL     1      47.947  10.612  16.787  0.00  0.00    +0.000 N 
ATOM     29  C   UNL     1      48.161   9.265  16.624  0.00  0.00    +0.000 A 
ATOM     30  O   UNL     1      48.293   8.769  15.509  0.00  0.00    +0.000 OA
ATOM     31  C   UNL     1      48.230   8.511  17.861  0.00  0.00    +0.000 A 
ATOM     32  H   UNL     1      47.895  11.161  15.940  0.00  0.00    +0.000 HD
ENDBRANCH  19  22
ENDBRANCH  17  18
ENDBRANCH   4  17
TORSDOF 6
ENDMDL
MODEL 9
REMARK VINA RESULT:    -6.521      3.300      4.941
REMARK INTER + INTRA:         -10.018
REMARK INTER:                  -9.003
REMARK INTRA:                  -1.015
REMARK UNBOUND:                -1.210
REMARK  Name = 
REMARK  6 active torsions:
REMARK  status: ('A' for Active; 'I' for Inactive)
REMARK    1  A    between atoms: C_2  and  C_25
REMARK    2  A    between atoms: N_3  and  C_4
REMARK    3  A    between atoms: C_4  and  C_5
REMARK    4  A    between atoms: C_8  and  C_9
REMARK    5  A    between atoms: C_9  and  N_10
REMARK    6  A    between atoms: C_11  and  C_13
REMARK                            x       y       z     vdW  Elec       q    Type
REMARK                         _______ _______ _______ _____ _____    ______ ____
ROOT
ATOM      1  C   UNL     1      45.183   5.068  11.415  0.00  0.00    +0.000 A 
ATOM      2  C   UNL     1      45.360   4.420  12.646  0.00  0.00    +0.000 A 
ATOM      3  C   UNL     1      46.248   4.931  13.601  0.00  0.00    +0.000 A 
ATOM      4  C   UNL     1      46.962   6.111  13.353  0.00  0.00    +0.000 A 
ATOM      5  C   UNL     1      46.789   6.753  12.119  0.00  0.00    +0.000 A 
ATOM      6  C   UNL     1      45.901   6.245  11.167  0.00  0.00    +0.000 A 
ENDROOT
BRANCH   1   7
ATOM      7  C   UNL     1      44.217   4.525  10.394  0.00  0.00    +0.000 C 
BRANCH   7  10
ATOM      8  O   UNL     1      45.745   4.817   8.060  0.00  0.00    +0.000 OA
ATOM      9  C   UNL     1      45.549   3.696   8.509  0.00  0.00    +0.000 C 
ATOM     10  N   UNL     1      44.803   3.446   9.634  0.00  0.00    +0.000 N 
ATOM     11  H   UNL     1      44.774   2.518  10.032  0.00  0.00    +0.000 HD
BRANCH   9  12
ATOM     12  C   UNL     1      46.140   2.494   7.897  0.00  0.00    +0.000 C 
ATOM     13  C   UNL     1      47.018   2.413   6.763  0.00  0.00    +0.000 C 
ATOM     14  C   UNL     1      47.298   0.970   6.680  0.00  0.00    +0.000 C 
ATOM     15  N   UNL     1      46.702   0.286   7.612  0.00  0.00    +0.000 NA
ATOM     16  C   UNL     1      46.014   1.238   8.352  0.00  0.00    +0.000 C 
ENDBRANCH   9  12
ENDBRANCH   7  10
ENDBRANCH   1   7
BRANCH   4  17
ATOM     17  C   UNL     1      47.918   6.668  14.376  0.00  0.00    +0.000 C 
BRANCH  17  18
ATOM     18  N   UNL     1      49.073   7.265  13.755  0.00  0.00    +0.000 N 
ATOM     19  C   UNL     1      49.977   7.989  14.491  0.00  0.00    +0.000 C 
ATOM     20  O   UNL     1      49.870   8.116  15.709  0.00  0.00    +0.000 OA
ATOM     21  H   UNL     1      49.055   7.367  12.745  0.00  0.00    +0.000 HD
BRANCH  19  22
ATOM     22  C   UNL     1      51.120   8.556  13.762  0.00  0.00    +0.000 A 
ATOM     23  C   UNL     1      52.409   8.343  14.230  0.00  0.00    +0.000 A 
ATOM     24  S   UNL     1      53.619   9.023  13.239  0.00  0.00    +0.000 S 
ATOM     25  C   UNL     1      52.460   9.674  12.175  0.00  0.00    +0.000 A 
ATOM     26  N   UNL     1      52.836  10.412  11.099  0.00  0.00    +0.000 NA
ATOM     27  C   UNL     1      51.854  10.871  10.398  0.00  0.00    +0.000 A 
ATOM     28  N   UNL     1      50.529  10.653  10.675  0.00  0.00    +0.000 N 
ATOM     29  C   UNL     1      50.103   9.891  11.736  0.00  0.00    +0.000 A 
ATOM     30  O   UNL     1      48.909   9.684  11.934  0.00  0.00    +0.000 OA
ATOM     31  C   UNL     1      51.168   9.360  12.564  0.00  0.00    +0.000 A 
ATOM     32  H   UNL     1      49.807  11.035  10.082  0.00  0.00    +0.000 HD
ENDBRANCH  19  22
ENDBRANCH  17  18
ENDBRANCH   4  17
TORSDOF 6
ENDMDL
