MODEL 1
REMARK VINA RESULT:    -7.644      0.000      0.000
REMARK INTER + INTRA:         -11.351
REMARK INTER:                 -10.548
REMARK INTRA:                  -0.803
REMARK UNBOUND:                -0.803
REMARK  Name = 
REMARK  7 active torsions:
REMARK  status: ('A' for Active; 'I' for Inactive)
REMARK    1  A    between atoms: N_1  and  C_2
REMARK    2  A    between atoms: C_2  and  C_3
REMARK    3  A    between atoms: C_6  and  O_7
REMARK    4  A    between atoms: O_7  and  C_8
REMARK    5  A    between atoms: C_8  and  C_9
REMARK    6  A    between atoms: C_12  and  O_13
REMARK    7  A    between atoms: O_13  and  C_14
REMARK                            x       y       z     vdW  Elec       q    Type
REMARK                         _______ _______ _______ _____ _____    ______ ____
ROOT
ATOM      1  C   UNL     1      43.423   4.125  11.122  0.00  0.00    +0.000 C 
ENDROOT
BRANCH   1   2
ATOM      2  C   UNL     1      44.626   4.351  12.004  0.00  0.00    +0.000 A 
ATOM      3  C   UNL     1      44.975   5.645  12.416  0.00  0.00    +0.000 A 
ATOM      4  C   UNL     1      46.061   5.856  13.274  0.00  0.00    +0.000 A 
ATOM      5  C   UNL     1      46.788   4.771  13.759  0.00  0.00    +0.000 A 
ATOM      6  C   UNL     1      46.470   3.485  13.315  0.00  0.00    +0.000 A 
ATOM      7  C   UNL     1      45.396   3.272  12.450  0.00  0.00    +0.000 A 
BRANCH   5   8
ATOM      8  O   UNL     1      47.840   4.822  14.621  0.00  0.00    +0.000 OA
BRANCH   8   9
ATOM      9  C   UNL     1      47.711   4.266  15.922  0.00  0.00    +0.000 C 
ATOM     10  F   UNL     1      46.460   4.318  16.427  0.00  0.00    +0.000 F 
ATOM     11  F   UNL     1      48.073   2.964  15.863  0.00  0.00    +0.000 F 
ATOM     12  F   UNL     1      48.553   4.898  16.767  0.00  0.00    +0.000 F 
ENDBRANCH   8   9
ENDBRANCH   5   8
ENDBRANCH   1   2
BRANCH   1  13
ATOM     13  O   UNL     1      43.740   4.507   9.785  0.00  0.00    +0.000 OA
BRANCH  13  17
ATOM     14  C   UNL     1      46.611   2.333   7.658  0.00  0.00    +0.000 A 
ATOM     15  C   UNL     1      45.673   1.640   8.435  0.00  0.00    +0.000 A 
ATOM     16  C   UNL     1      44.695   2.326   9.161  0.00  0.00    +0.000 A 
ATOM     17  C   UNL     1      44.644   3.719   9.126  0.00  0.00    +0.000 A 
ATOM     18  C   UNL     1      45.580   4.413   8.358  0.00  0.00    +0.000 A 
ATOM     19  C   UNL     1      46.558   3.729   7.631  0.00  0.00    +0.000 A 
BRANCH  14  20
ATOM     20  C   UNL     1      47.660   1.575   6.884  0.00  0.00    +0.000 C 
BRANCH  20  21
ATOM     21  N   UNL     1      48.632   2.478   6.278  0.00  0.00    +0.000 NA
ATOM     22  H   UNL     1      48.349   2.684   5.322  0.00  0.00    +0.000 HD
ATOM     23  H   UNL     1      49.530   1.999   6.217  0.00  0.00    +0.000 HD
ENDBRANCH  20  21
ENDBRANCH  14  20
ENDBRANCH  13  17
ENDBRANCH   1  13
TORSDOF 7
ENDMDL
MODEL 2
REMARK VINA RESULT:    -7.524      1.860      2.154
REMARK INTER + INTRA:         -11.185
REMARK INTER:                 -10.222
REMARK INTRA:                  -0.963
REMARK UNBOUND:                -0.803
REMARK  Name = 
REMARK  7 active torsions:
REMARK  status: ('A' for Active; 'I' for Inactive)
REMARK    1  A    between atoms: N_1  and  C_2
REMARK    2  A    between atoms: C_2  and  C_3
REMARK    3  A    between atoms: C_6  and  O_7
REMARK    4  A    between atoms: O_7  and  C_8
REMARK    5  A    between atoms: C_8  and  C_9
REMARK    6  A    between atoms: C_12  and  O_13
REMARK    7  A    between atoms: O_13  and  C_14
REMARK                            x       y       z     vdW  Elec       q    Type
REMARK                         _______ _______ _______ _____ _____    ______ ____
ROOT
ATOM      1  C   UNL     1      43.608   4.127  11.285  0.00  0.00    +0.000 C 
ENDROOT
BRANCH   1   2
ATOM      2  C   UNL     1      44.825   4.674  11.990  0.00  0.00    +0.000 A 
ATOM      3  C   UNL     1      45.152   6.034  11.895  0.00  0.00    +0.000 A 
ATOM      4  C   UNL     1      46.251   6.558  12.586  0.00  0.00    +0.000 A 
ATOM      5  C   UNL     1      47.014   5.733  13.409  0.00  0.00    +0.000 A 
ATOM      6  C   UNL     1      46.718   4.369  13.471  0.00  0.00    +0.000 A 
ATOM      7  C   UNL     1      45.630   3.841  12.773  0.00  0.00    +0.000 A 
BRANCH   5   8
ATOM      8  O   UNL     1      48.083   6.108  14.163  0.00  0.00    +0.000 OA
BRANCH   8   9
ATOM      9  C   UNL     1      49.041   7.009  13.627  0.00  0.00    +0.000 C 
ATOM     10  F   UNL     1      49.413   6.735  12.359  0.00  0.00    +0.000 F 
ATOM     11  F   UNL     1      48.505   8.251  13.636  0.00  0.00    +0.000 F 
ATOM     12  F   UNL     1      50.139   7.021  14.414  0.00  0.00    +0.000 F 
ENDBRANCH   8   9
ENDBRANCH   5   8
ENDBRANCH   1   2
BRANCH   1  13
ATOM     13  O   UNL     1      43.710   4.397   9.889  0.00  0.00    +0.000 OA
BRANCH  13  17
ATOM     14  C   UNL     1      46.546   2.320   7.624  0.00  0.00    +0.000 A 
ATOM     15  C   UNL     1      45.675   1.596   8.449  0.00  0.00    +0.000 A 
ATOM     16  C   UNL     1      44.711   2.249   9.223  0.00  0.00    +0.000 A 
ATOM     17  C   UNL     1      44.607   3.640   9.186  0.00  0.00    +0.000 A 
ATOM     18  C   UNL     1      45.477   4.364   8.370  0.00  0.00    +0.000 A 
ATOM     19  C   UNL     1      46.441   3.712   7.595  0.00  0.00    +0.000 A 
BRANCH  14  20
ATOM     20  C   UNL     1      47.581   1.597   6.798  0.00  0.00    +0.000 C 
BRANCH  20  21
ATOM     21  N   UNL     1      48.626   2.505   6.340  0.00  0.00    +0.000 NA
ATOM     22  H   UNL     1      48.649   3.323   6.945  0.00  0.00    +0.000 HD
ATOM     23  H   UNL     1      48.383   2.840   5.408  0.00  0.00    +0.000 HD
ENDBRANCH  20  21
ENDBRANCH  14  20
ENDBRANCH  13  17
ENDBRANCH   1  13
TORSDOF 7
ENDMDL
MODEL 3
REMARK VINA RESULT:    -7.096      4.581      7.037
REMARK INTER + INTRA:         -10.594
REMARK INTER:                  -9.990
REMARK INTRA:                  -0.605
REMARK UNBOUND:                -0.803
REMARK  Name = 
REMARK  7 active torsions:
REMARK  status: ('A' for Active; 'I' for Inactive)
REMARK    1  A    between atoms: N_1  and  C_2
REMARK    2  A    between atoms: C_2  and  C_3
REMARK    3  A    between atoms: C_6  and  O_7
REMARK    4  A    between atoms: O_7  and  C_8
REMARK    5  A    between atoms: C_8  and  C_9
REMARK    6  A    between atoms: C_12  and  O_13
REMARK    7  A    between atoms: O_13  and  C_14
REMARK                            x       y       z     vdW  Elec       q    Type
REMARK                         _______ _______ _______ _____ _____    ______ ____
ROOT
ATOM      1  C   UNL     1      43.382   3.290  11.474  0.00  0.00    +0.000 C 
ENDROOT
BRANCH   1   2
ATOM      2  C   UNL     1      44.197   3.220  10.205  0.00  0.00    +0.000 A 
ATOM      3  C   UNL     1      44.633   1.984   9.706  0.00  0.00    +0.000 A 
ATOM      4  C   UNL     1      45.347   1.908   8.504  0.00  0.00    +0.000 A 
ATOM      5  C   UNL     1      45.601   3.063   7.769  0.00  0.00    +0.000 A 
ATOM      6  C   UNL     1      45.207   4.300   8.287  0.00  0.00    +0.000 A 
ATOM      7  C   UNL     1      44.505   4.381   9.491  0.00  0.00    +0.000 A 
BRANCH   5   8
ATOM      8  O   UNL     1      46.249   3.137   6.575  0.00  0.00    +0.000 OA
BRANCH   8   9
ATOM      9  C   UNL     1      47.322   2.248   6.300  0.00  0.00    +0.000 C 
ATOM     10  F   UNL     1      48.295   2.245   7.236  0.00  0.00    +0.000 F 
ATOM     11  F   UNL     1      46.823   0.992   6.227  0.00  0.00    +0.000 F 
ATOM     12  F   UNL     1      47.865   2.553   5.102  0.00  0.00    +0.000 F 
ENDBRANCH   8   9
ENDBRANCH   5   8
ENDBRANCH   1   2
BRANCH   1  13
ATOM     13  O   UNL     1      44.258   3.269  12.598  0.00  0.00    +0.000 OA
BRANCH  13  17
ATOM     14  C   UNL     1      46.698   6.579  13.358  0.00  0.00    +0.000 A 
ATOM     15  C   UNL     1      45.361   6.791  12.994  0.00  0.00    +0.000 A 
ATOM     16  C   UNL     1      44.509   5.714  12.732  0.00  0.00    +0.000 A 
ATOM     17  C   UNL     1      44.985   4.406  12.825  0.00  0.00    +0.000 A 
ATOM     18  C   UNL     1      46.317   4.191  13.181  0.00  0.00    +0.000 A 
ATOM     19  C   UNL     1      47.169   5.268  13.444  0.00  0.00    +0.000 A 
BRANCH  14  20
ATOM     20  C   UNL     1      47.602   7.755  13.634  0.00  0.00    +0.000 C 
BRANCH  20  21
ATOM     21  N   UNL     1      46.855   8.887  14.171  0.00  0.00    +0.000 NA
ATOM     22  H   UNL     1      47.444   9.716  14.153  0.00  0.00    +0.000 HD
ATOM     23  H   UNL     1      46.644   8.703  15.152  0.00  0.00    +0.000 HD
ENDBRANCH  20  21
ENDBRANCH  14  20
ENDBRANCH  13  17
ENDBRANCH   1  13
TORSDOF 7
ENDMDL
MODEL 4
REMARK VINA RESULT:    -6.565      1.540      2.186
REMARK INTER + INTRA:          -9.862
REMARK INTER:                  -9.266
REMARK INTRA:                  -0.597
REMARK UNBOUND:                -0.803
REMARK  Name = 
REMARK  7 active torsions:
REMARK  status: ('A' for Active; 'I' for Inactive)
REMARK    1  A    between atoms: N_1  and  C_2
REMARK    2  A    between atoms: C_2  and  C_3
REMARK    3  A    between atoms: C_6  and  O_7
REMARK    4  A    between atoms: O_7  and  C_8
REMARK    5  A    between atoms: C_8  and  C_9
REMARK    6  A    between atoms: C_12  and  O_13
REMARK    7  A    between atoms: O_13  and  C_14
REMARK                            x       y       z     vdW  Elec       q    Type
REMARK                         _______ _______ _______ _____ _____    ______ ____
ROOT
ATOM      1  C   UNL     1      45.223   6.118  10.854  0.00  0.00    +0.000 C 
ENDROOT
BRANCH   1   2
ATOM      2  C   UNL     1      46.052   5.858  12.088  0.00  0.00    +0.000 A 
ATOM      3  C   UNL     1      47.185   6.638  12.362  0.00  0.00    +0.000 A 
ATOM      4  C   UNL     1      47.930   6.435  13.530  0.00  0.00    +0.000 A 
ATOM      5  C   UNL     1      47.530   5.473  14.454  0.00  0.00    +0.000 A 
ATOM      6  C   UNL     1      46.428   4.664  14.162  0.00  0.00    +0.000 A 
ATOM      7  C   UNL     1      45.690   4.856  12.993  0.00  0.00    +0.000 A 
BRANCH   5   8
ATOM      8  O   UNL     1      48.133   5.190  15.641  0.00  0.00    +0.000 OA
BRANCH   8   9
ATOM      9  C   UNL     1      48.922   6.180  16.283  0.00  0.00    +0.000 C 
ATOM     10  F   UNL     1      50.022   6.548  15.593  0.00  0.00    +0.000 F 
ATOM     11  F   UNL     1      48.158   7.285  16.452  0.00  0.00    +0.000 F 
ATOM     12  F   UNL     1      49.295   5.738  17.503  0.00  0.00    +0.000 F 
ENDBRANCH   8   9
ENDBRANCH   5   8
ENDBRANCH   1   2
BRANCH   1  13
ATOM     13  O   UNL     1      44.571   4.912  10.462  0.00  0.00    +0.000 OA
BRANCH  13  17
ATOM     14  C   UNL     1      46.348   2.455   7.582  0.00  0.00    +0.000 A 
ATOM     15  C   UNL     1      46.478   3.845   7.460  0.00  0.00    +0.000 A 
ATOM     16  C   UNL     1      45.901   4.704   8.401  0.00  0.00    +0.000 A 
ATOM     17  C   UNL     1      45.179   4.184   9.476  0.00  0.00    +0.000 A 
ATOM     18  C   UNL     1      45.044   2.801   9.596  0.00  0.00    +0.000 A 
ATOM     19  C   UNL     1      45.621   1.941   8.657  0.00  0.00    +0.000 A 
BRANCH  14  20
ATOM     20  C   UNL     1      46.976   1.545   6.556  0.00  0.00    +0.000 C 
BRANCH  20  21
ATOM     21  N   UNL     1      48.390   1.848   6.368  0.00  0.00    +0.000 NA
ATOM     22  H   UNL     1      48.833   1.960   7.278  0.00  0.00    +0.000 HD
ATOM     23  H   UNL     1      48.472   2.748   5.895  0.00  0.00    +0.000 HD
ENDBRANCH  20  21
ENDBRANCH  14  20
ENDBRANCH  13  17
ENDBRANCH   1  13
TORSDOF 7
ENDMDL
MODEL 5
REMARK VINA RESULT:    -6.343      4.862      8.173
REMARK INTER + INTRA:          -9.556
REMARK INTER:                  -8.872
REMARK INTRA:                  -0.684
REMARK UNBOUND:                -0.803
REMARK  Name = 
REMARK  7 active torsions:
REMARK  status: ('A' for Active; 'I' for Inactive)
REMARK    1  A    between atoms: N_1  and  C_2
REMARK    2  A    between atoms: C_2  and  C_3
REMARK    3  A    between atoms: C_6  and  O_7
REMARK    4  A    between atoms: O_7  and  C_8
REMARK    5  A    between atoms: C_8  and  C_9
REMARK    6  A    between atoms: C_12  and  O_13
REMARK    7  A    between atoms: O_13  and  C_14
REMARK                            x       y       z     vdW  Elec       q    Type
REMARK                         _______ _______ _______ _____ _____    ______ ____
ROOT
ATOM      1  C   UNL     1      46.999   5.072  14.145  0.00  0.00    +0.000 C 
ENDROOT
BRANCH   1   2
ATOM      2  C   UNL     1      46.214   4.856  12.874  0.00  0.00    +0.000 A 
ATOM      3  C   UNL     1      46.196   5.838  11.873  0.00  0.00    +0.000 A 
ATOM      4  C   UNL     1      45.510   5.623  10.671  0.00  0.00    +0.000 A 
ATOM      5  C   UNL     1      44.864   4.411  10.444  0.00  0.00    +0.000 A 
ATOM      6  C   UNL     1      44.842   3.450  11.458  0.00  0.00    +0.000 A 
ATOM      7  C   UNL     1      45.515   3.664  12.662  0.00  0.00    +0.000 A 
BRANCH   5   8
ATOM      8  O   UNL     1      44.190   4.051   9.317  0.00  0.00    +0.000 OA
BRANCH   8   9
ATOM      9  C   UNL     1      44.768   3.114   8.421  0.00  0.00    +0.000 C 
ATOM     10  F   UNL     1      44.475   3.334   7.121  0.00  0.00    +0.000 F 
ATOM     11  F   UNL     1      46.113   3.177   8.552  0.00  0.00    +0.000 F 
ATOM     12  F   UNL     1      44.372   1.867   8.755  0.00  0.00    +0.000 F 
ENDBRANCH   8   9
ENDBRANCH   5   8
ENDBRANCH   1   2
BRANCH   1  13
ATOM     13  O   UNL     1      47.048   3.852  14.882  0.00  0.00    +0.000 OA
BRANCH  13  17
ATOM     14  C   UNL     1      48.608   4.364  18.728  0.00  0.00    +0.000 A 
ATOM     15  C   UNL     1      48.224   3.080  18.317  0.00  0.00    +0.000 A 
ATOM     16  C   UNL     1      47.699   2.863  17.040  0.00  0.00    +0.000 A 
ATOM     17  C   UNL     1      47.544   3.930  16.154  0.00  0.00    +0.000 A 
ATOM     18  C   UNL     1      47.920   5.211  16.562  0.00  0.00    +0.000 A 
ATOM     19  C   UNL     1      48.446   5.429  17.839  0.00  0.00    +0.000 A 
BRANCH  14  20
ATOM     20  C   UNL     1      49.171   4.578  20.111  0.00  0.00    +0.000 C 
BRANCH  20  21
ATOM     21  N   UNL     1      48.162   4.344  21.139  0.00  0.00    +0.000 NA
ATOM     22  H   UNL     1      47.927   5.227  21.586  0.00  0.00    +0.000 HD
ATOM     23  H   UNL     1      48.567   3.751  21.864  0.00  0.00    +0.000 HD
ENDBRANCH  20  21
ENDBRANCH  14  20
ENDBRANCH  13  17
ENDBRANCH   1  13
TORSDOF 7
ENDMDL
MODEL 6
REMARK VINA RESULT:    -6.231      4.804      7.247
REMARK INTER + INTRA:          -9.402
REMARK INTER:                  -8.673
REMARK INTRA:                  -0.729
REMARK UNBOUND:                -0.803
REMARK  Name = 
REMARK  7 active torsions:
REMARK  status: ('A' for Active; 'I' for Inactive)
REMARK    1  A    between atoms: N_1  and  C_2
REMARK    2  A    between atoms: C_2  and  C_3
REMARK    3  A    between atoms: C_6  and  O_7
REMARK    4  A    between atoms: O_7  and  C_8
REMARK    5  A    between atoms: C_8  and  C_9
REMARK    6  A    between atoms: C_12  and  O_13
REMARK    7  A    between atoms: O_13  and  C_14
REMARK                            x       y       z     vdW  Elec       q    Type
REMARK                         _______ _______ _______ _____ _____    ______ ____
ROOT
ATOM      1  C   UNL     1      44.878   5.022  12.151  0.00  0.00    +0.000 C 
ENDROOT
BRANCH   1   2
ATOM      2  C   UNL     1      45.119   4.460  10.771  0.00  0.00    +0.000 A 
ATOM      3  C   UNL     1      44.771   3.136  10.470  0.00  0.00    +0.000 A 
ATOM      4  C   UNL     1      44.946   2.624   9.179  0.00  0.00    +0.000 A 
ATOM      5  C   UNL     1      45.438   3.442   8.165  0.00  0.00    +0.000 A 
ATOM      6  C   UNL     1      45.827   4.749   8.473  0.00  0.00    +0.000 A 
ATOM      7  C   UNL     1      45.665   5.259   9.762  0.00  0.00    +0.000 A 
BRANCH   5   8
ATOM      8  O   UNL     1      45.627   3.093   6.863  0.00  0.00    +0.000 OA
BRANCH   8   9
ATOM      9  C   UNL     1      46.879   2.565   6.452  0.00  0.00    +0.000 C 
ATOM     10  F   UNL     1      47.902   2.844   7.287  0.00  0.00    +0.000 F 
ATOM     11  F   UNL     1      46.767   1.218   6.381  0.00  0.00    +0.000 F 
ATOM     12  F   UNL     1      47.180   3.026   5.219  0.00  0.00    +0.000 F 
ENDBRANCH   8   9
ENDBRANCH   5   8
ENDBRANCH   1   2
BRANCH   1  13
ATOM     13  O   UNL     1      46.129   5.357  12.749  0.00  0.00    +0.000 OA
BRANCH  13  17
ATOM     14  C   UNL     1      47.597   9.253  12.353  0.00  0.00    +0.000 A 
ATOM     15  C   UNL     1      46.258   9.067  12.723  0.00  0.00    +0.000 A 
ATOM     16  C   UNL     1      45.725   7.783  12.868  0.00  0.00    +0.000 A 
ATOM     17  C   UNL     1      46.524   6.662  12.639  0.00  0.00    +0.000 A 
ATOM     18  C   UNL     1      47.857   6.844  12.265  0.00  0.00    +0.000 A 
ATOM     19  C   UNL     1      48.390   8.128  12.121  0.00  0.00    +0.000 A 
BRANCH  14  20
ATOM     20  C   UNL     1      48.152  10.647  12.200  0.00  0.00    +0.000 C 
BRANCH  20  21
ATOM     21  N   UNL     1      48.085  11.098  10.814  0.00  0.00    +0.000 NA
ATOM     22  H   UNL     1      47.806  12.076  10.793  0.00  0.00    +0.000 HD
ATOM     23  H   UNL     1      47.350  10.577  10.336  0.00  0.00    +0.000 HD
ENDBRANCH  20  21
ENDBRANCH  14  20
ENDBRANCH  13  17
ENDBRANCH   1  13
TORSDOF 7
ENDMDL
MODEL 7
REMARK VINA RESULT:    -6.226      4.481      7.365
REMARK INTER + INTRA:          -9.394
REMARK INTER:                  -8.680
REMARK INTRA:                  -0.714
REMARK UNBOUND:                -0.803
REMARK  Name = 
REMARK  7 active torsions:
REMARK  status: ('A' for Active; 'I' for Inactive)
REMARK    1  A    between atoms: N_1  and  C_2
REMARK    2  A    between atoms: C_2  and  C_3
REMARK    3  A    between atoms: C_6  and  O_7
REMARK    4  A    between atoms: O_7  and  C_8
REMARK    5  A    between atoms: C_8  and  C_9
REMARK    6  A    between atoms: C_12  and  O_13
REMARK    7  A    between atoms: O_13  and  C_14
REMARK                            x       y       z     vdW  Elec       q    Type
REMARK                         _______ _______ _______ _____ _____    ______ ____
ROOT
ATOM      1  C   UNL     1      44.968   5.058  13.135  0.00  0.00    +0.000 C 
ENDROOT
BRANCH   1   2
ATOM      2  C   UNL     1      45.063   4.637  11.689  0.00  0.00    +0.000 A 
ATOM      3  C   UNL     1      44.554   3.398  11.272  0.00  0.00    +0.000 A 
ATOM      4  C   UNL     1      44.595   3.023   9.924  0.00  0.00    +0.000 A 
ATOM      5  C   UNL     1      45.112   3.897   8.972  0.00  0.00    +0.000 A 
ATOM      6  C   UNL     1      45.661   5.113   9.390  0.00  0.00    +0.000 A 
ATOM      7  C   UNL     1      45.632   5.486  10.735  0.00  0.00    +0.000 A 
BRANCH   5   8
ATOM      8  O   UNL     1      45.184   3.683   7.630  0.00  0.00    +0.000 OA
BRANCH   8   9
ATOM      9  C   UNL     1      46.341   3.073   7.076  0.00  0.00    +0.000 C 
ATOM     10  F   UNL     1      46.705   1.921   7.679  0.00  0.00    +0.000 F 
ATOM     11  F   UNL     1      46.090   2.792   5.777  0.00  0.00    +0.000 F 
ATOM     12  F   UNL     1      47.375   3.940   7.125  0.00  0.00    +0.000 F 
ENDBRANCH   8   9
ENDBRANCH   5   8
ENDBRANCH   1   2
BRANCH   1  13
ATOM     13  O   UNL     1      45.757   4.180  13.934  0.00  0.00    +0.000 OA
BRANCH  13  17
ATOM     14  C   UNL     1      48.904   6.109  15.900  0.00  0.00    +0.000 A 
ATOM     15  C   UNL     1      48.262   5.038  16.536  0.00  0.00    +0.000 A 
ATOM     16  C   UNL     1      47.206   4.363  15.916  0.00  0.00    +0.000 A 
ATOM     17  C   UNL     1      46.772   4.755  14.649  0.00  0.00    +0.000 A 
ATOM     18  C   UNL     1      47.406   5.825  14.015  0.00  0.00    +0.000 A 
ATOM     19  C   UNL     1      48.462   6.499  14.634  0.00  0.00    +0.000 A 
BRANCH  14  20
ATOM     20  C   UNL     1      50.040   6.825  16.587  0.00  0.00    +0.000 C 
BRANCH  20  21
ATOM     21  N   UNL     1      50.861   7.562  15.632  0.00  0.00    +0.000 NA
ATOM     22  H   UNL     1      50.570   7.324  14.686  0.00  0.00    +0.000 HD
ATOM     23  H   UNL     1      51.828   7.250  15.724  0.00  0.00    +0.000 HD
ENDBRANCH  20  21
ENDBRANCH  14  20
ENDBRANCH  13  17
ENDBRANCH   1  13
TORSDOF 7
ENDMDL
MODEL 8
REMARK VINA RESULT:    -5.269      5.042      8.265
REMARK INTER + INTRA:          -8.073
REMARK INTER:                  -7.228
REMARK INTRA:                  -0.846
REMARK UNBOUND:                -0.803
REMARK  Name = 
REMARK  7 active torsions:
REMARK  status: ('A' for Active; 'I' for Inactive)
REMARK    1  A    between atoms: N_1  and  C_2
REMARK    2  A    between atoms: C_2  and  C_3
REMARK    3  A    between atoms: C_6  and  O_7
REMARK    4  A    between atoms: O_7  and  C_8
REMARK    5  A    between atoms: C_8  and  C_9
REMARK    6  A    between atoms: C_12  and  O_13
REMARK    7  A    between atoms: O_13  and  C_14
REMARK                            x       y       z     vdW  Elec       q    Type
REMARK                         _______ _______ _______ _____ _____    ______ ____
ROOT
ATOM      1  C   UNL     1      48.612   7.556  14.441  0.00  0.00    +0.000 C 
ENDROOT
BRANCH   1   2
ATOM      2  C   UNL     1      47.414   7.051  13.676  0.00  0.00    +0.000 A 
ATOM      3  C   UNL     1      46.389   7.929  13.295  0.00  0.00    +0.000 A 
ATOM      4  C   UNL     1      45.298   7.476  12.543  0.00  0.00    +0.000 A 
ATOM      5  C   UNL     1      45.239   6.146  12.132  0.00  0.00    +0.000 A 
ATOM      6  C   UNL     1      46.236   5.260  12.547  0.00  0.00    +0.000 A 
ATOM      7  C   UNL     1      47.319   5.705  13.307  0.00  0.00    +0.000 A 
BRANCH   5   8
ATOM      8  O   UNL     1      44.263   5.576  11.373  0.00  0.00    +0.000 OA
BRANCH   8   9
ATOM      9  C   UNL     1      42.989   5.318  11.943  0.00  0.00    +0.000 C 
ATOM     10  F   UNL     1      42.974   5.317  13.293  0.00  0.00    +0.000 F 
ATOM     11  F   UNL     1      42.136   6.282  11.526  0.00  0.00    +0.000 F 
ATOM     12  F   UNL     1      42.528   4.129  11.498  0.00  0.00    +0.000 F 
ENDBRANCH   8   9
ENDBRANCH   5   8
ENDBRANCH   1   2
BRANCH   1  13
ATOM     13  O   UNL     1      49.311   6.450  15.007  0.00  0.00    +0.000 OA
BRANCH  13  17
ATOM     14  C   UNL     1      48.458   5.665  19.025  0.00  0.00    +0.000 A 
ATOM     15  C   UNL     1      48.009   4.766  18.048  0.00  0.00    +0.000 A 
ATOM     16  C   UNL     1      48.272   4.989  16.693  0.00  0.00    +0.000 A 
ATOM     17  C   UNL     1      48.986   6.119  16.293  0.00  0.00    +0.000 A 
ATOM     18  C   UNL     1      49.430   7.019  17.263  0.00  0.00    +0.000 A 
ATOM     19  C   UNL     1      49.167   6.797  18.618  0.00  0.00    +0.000 A 
BRANCH  14  20
ATOM     20  C   UNL     1      48.161   5.409  20.481  0.00  0.00    +0.000 C 
BRANCH  20  21
ATOM     21  N   UNL     1      48.430   4.022  20.844  0.00  0.00    +0.000 NA
ATOM     22  H   UNL     1      48.578   3.476  19.998  0.00  0.00    +0.000 HD
ATOM     23  H   UNL     1      47.601   3.636  21.296  0.00  0.00    +0.000 HD
ENDBRANCH  20  21
ENDBRANCH  14  20
ENDBRANCH  13  17
ENDBRANCH   1  13
TORSDOF 7
ENDMDL
MODEL 9
REMARK VINA RESULT:    -5.039      2.417      3.730
REMARK INTER + INTRA:          -7.756
REMARK INTER:                  -6.949
REMARK INTRA:                  -0.807
REMARK UNBOUND:                -0.803
REMARK  Name = 
REMARK  7 active torsions:
REMARK  status: ('A' for Active; 'I' for Inactive)
REMARK    1  A    between atoms: N_1  and  C_2
REMARK    2  A    between atoms: C_2  and  C_3
REMARK    3  A    between atoms: C_6  and  O_7
REMARK    4  A    between atoms: O_7  and  C_8
REMARK    5  A    between atoms: C_8  and  C_9
REMARK    6  A    between atoms: C_12  and  O_13
REMARK    7  A    between atoms: O_13  and  C_14
REMARK                            x       y       z     vdW  Elec       q    Type
REMARK                         _______ _______ _______ _____ _____    ______ ____
ROOT
ATOM      1  C   UNL     1      47.197   6.800  12.437  0.00  0.00    +0.000 C 
ENDROOT
BRANCH   1   2
ATOM      2  C   UNL     1      47.792   6.514  13.794  0.00  0.00    +0.000 A 
ATOM      3  C   UNL     1      48.709   7.405  14.372  0.00  0.00    +0.000 A 
ATOM      4  C   UNL     1      49.227   7.171  15.651  0.00  0.00    +0.000 A 
ATOM      5  C   UNL     1      48.807   6.062  16.381  0.00  0.00    +0.000 A 
ATOM      6  C   UNL     1      47.929   5.149  15.791  0.00  0.00    +0.000 A 
ATOM      7  C   UNL     1      47.419   5.373  14.511  0.00  0.00    +0.000 A 
BRANCH   5   8
ATOM      8  O   UNL     1      49.197   5.728  17.642  0.00  0.00    +0.000 OA
BRANCH   8   9
ATOM      9  C   UNL     1      48.373   6.069  18.747  0.00  0.00    +0.000 C 
ATOM     10  F   UNL     1      47.522   7.090  18.511  0.00  0.00    +0.000 F 
ATOM     11  F   UNL     1      47.631   4.985  19.072  0.00  0.00    +0.000 F 
ATOM     12  F   UNL     1      49.148   6.380  19.808  0.00  0.00    +0.000 F 
ENDBRANCH   8   9
ENDBRANCH   5   8
ENDBRANCH   1   2
BRANCH   1  13
ATOM     13  O   UNL     1      45.845   6.348  12.410  0.00  0.00    +0.000 OA
BRANCH  13  17
ATOM     14  C   UNL     1      44.873   3.244   9.782  0.00  0.00    +0.000 A 
ATOM     15  C   UNL     1      45.257   4.484   9.254  0.00  0.00    +0.000 A 
ATOM     16  C   UNL     1      45.592   5.550  10.096  0.00  0.00    +0.000 A 
ATOM     17  C   UNL     1      45.541   5.391  11.481  0.00  0.00    +0.000 A 
ATOM     18  C   UNL     1      45.153   4.159  12.010  0.00  0.00    +0.000 A 
ATOM     19  C   UNL     1      44.819   3.094  11.169  0.00  0.00    +0.000 A 
BRANCH  14  20
ATOM     20  C   UNL     1      44.513   2.108   8.857  0.00  0.00    +0.000 C 
BRANCH  20  21
ATOM     21  N   UNL     1      45.621   1.172   8.707  0.00  0.00    +0.000 NA
ATOM     22  H   UNL     1      45.252   0.241   8.528  0.00  0.00    +0.000 HD
ATOM     23  H   UNL     1      46.125   1.118   9.593  0.00  0.00    +0.000 HD
ENDBRANCH  20  21
ENDBRANCH  14  20
ENDBRANCH  13  17
ENDBRANCH   1  13
TORSDOF 7
ENDMDL
