MODEL 1
REMARK VINA RESULT:    -6.949      0.000      0.000
REMARK INTER + INTRA:          -8.644
REMARK INTER:                  -8.168
REMARK INTRA:                  -0.475
REMARK UNBOUND:                -0.475
REMARK  Name = 
REMARK  3 active torsions:
REMARK  status: ('A' for Active; 'I' for Inactive)
REMARK    1  A    between atoms: C_2  and  C_3
REMARK    2  A    between atoms: N_5  and  C_6
REMARK    3  A    between atoms: C_6  and  C_7
REMARK                            x       y       z     vdW  Elec       q    Type
REMARK                         _______ _______ _______ _____ _____    ______ ____
ROOT
ATOM      1  C   UNL     1      45.998   5.911  11.109  0.00  0.00    +0.000 A 
ATOM      2  C   UNL     1      45.970   5.662   9.749  0.00  0.00    +0.000 A 
ATOM      3  N   UNL     1      45.100   4.619   9.532  0.00  0.00    +0.000 N 
ATOM      4  C   UNL     1      44.525   4.240  10.721  0.00  0.00    +0.000 A 
ATOM      5  N   UNL     1      43.598   3.272  10.862  0.00  0.00    +0.000 NA
ATOM      6  C   UNL     1      43.204   3.094  12.145  0.00  0.00    +0.000 A 
ATOM      7  C   UNL     1      43.677   3.798  13.243  0.00  0.00    +0.000 A 
ATOM      8  C   UNL     1      44.641   4.787  13.048  0.00  0.00    +0.000 A 
ATOM      9  C   UNL     1      45.080   5.023  11.733  0.00  0.00    +0.000 A 
ENDROOT
BRANCH   1  11
ATOM     10  N   UNL     1      47.465   7.697  12.279  0.00  0.00    +0.000 NA
ATOM     11  C   UNL     1      46.807   6.900  11.754  0.00  0.00    +0.000 C 
ENDBRANCH   1  11
BRANCH   3  12
ATOM     12  C   UNL     1      44.807   4.017   8.237  0.00  0.00    +0.000 C 
BRANCH  12  13
ATOM     13  C   UNL     1      45.799   2.951   7.900  0.00  0.00    +0.000 A 
ATOM     14  C   UNL     1      46.861   3.173   7.046  0.00  0.00    +0.000 A 
ATOM     15  N   UNL     1      47.739   2.218   6.677  0.00  0.00    +0.000 NA
ATOM     16  C   UNL     1      47.520   0.998   7.187  0.00  0.00    +0.000 A 
ATOM     17  N   UNL     1      46.538   0.663   8.038  0.00  0.00    +0.000 NA
ATOM     18  C   UNL     1      45.695   1.659   8.375  0.00  0.00    +0.000 A 
ENDBRANCH  12  13
ENDBRANCH   3  12
TORSDOF 3
ENDMDL
MODEL 2
REMARK VINA RESULT:    -6.854      1.988      3.074
REMARK INTER + INTRA:          -8.532
REMARK INTER:                  -8.067
REMARK INTRA:                  -0.464
REMARK UNBOUND:                -0.475
REMARK  Name = 
REMARK  3 active torsions:
REMARK  status: ('A' for Active; 'I' for Inactive)
REMARK    1  A    between atoms: C_2  and  C_3
REMARK    2  A    between atoms: N_5  and  C_6
REMARK    3  A    between atoms: C_6  and  C_7
REMARK                            x       y       z     vdW  Elec       q    Type
REMARK                         _______ _______ _______ _____ _____    ______ ____
ROOT
ATOM      1  C   UNL     1      46.167   4.115  13.221  0.00  0.00    +0.000 A 
ATOM      2  C   UNL     1      45.608   3.241  12.308  0.00  0.00    +0.000 A 
ATOM      3  N   UNL     1      44.914   3.987  11.384  0.00  0.00    +0.000 N 
ATOM      4  C   UNL     1      45.073   5.324  11.654  0.00  0.00    +0.000 A 
ATOM      5  N   UNL     1      44.558   6.331  10.922  0.00  0.00    +0.000 NA
ATOM      6  C   UNL     1      44.860   7.556  11.413  0.00  0.00    +0.000 A 
ATOM      7  C   UNL     1      45.609   7.810  12.554  0.00  0.00    +0.000 A 
ATOM      8  C   UNL     1      46.117   6.734  13.282  0.00  0.00    +0.000 A 
ATOM      9  C   UNL     1      45.844   5.438  12.811  0.00  0.00    +0.000 A 
ENDROOT
BRANCH   1  11
ATOM     10  N   UNL     1      47.568   3.427  15.288  0.00  0.00    +0.000 NA
ATOM     11  C   UNL     1      46.943   3.738  14.363  0.00  0.00    +0.000 C 
ENDBRANCH   1  11
BRANCH   3  12
ATOM     12  C   UNL     1      44.145   3.449  10.268  0.00  0.00    +0.000 C 
BRANCH  12  13
ATOM     13  C   UNL     1      45.028   3.143   9.102  0.00  0.00    +0.000 A 
ATOM     14  C   UNL     1      45.522   1.876   8.862  0.00  0.00    +0.000 A 
ATOM     15  N   UNL     1      46.366   1.579   7.852  0.00  0.00    +0.000 NA
ATOM     16  C   UNL     1      46.726   2.608   7.072  0.00  0.00    +0.000 A 
ATOM     17  N   UNL     1      46.301   3.875   7.193  0.00  0.00    +0.000 NA
ATOM     18  C   UNL     1      45.454   4.111   8.215  0.00  0.00    +0.000 A 
ENDBRANCH  12  13
ENDBRANCH   3  12
TORSDOF 3
ENDMDL
MODEL 3
REMARK VINA RESULT:    -6.042      2.312      4.178
REMARK INTER + INTRA:          -7.577
REMARK INTER:                  -7.113
REMARK INTRA:                  -0.464
REMARK UNBOUND:                -0.475
REMARK  Name = 
REMARK  3 active torsions:
REMARK  status: ('A' for Active; 'I' for Inactive)
REMARK    1  A    between atoms: C_2  and  C_3
REMARK    2  A    between atoms: N_5  and  C_6
REMARK    3  A    between atoms: C_6  and  C_7
REMARK                            x       y       z     vdW  Elec       q    Type
REMARK                         _______ _______ _______ _____ _____    ______ ____
ROOT
ATOM      1  C   UNL     1      46.726   4.729  14.121  0.00  0.00    +0.000 A 
ATOM      2  C   UNL     1      45.641   4.448  13.312  0.00  0.00    +0.000 A 
ATOM      3  N   UNL     1      45.555   5.442  12.365  0.00  0.00    +0.000 N 
ATOM      4  C   UNL     1      46.603   6.317  12.516  0.00  0.00    +0.000 A 
ATOM      5  N   UNL     1      46.842   7.385  11.730  0.00  0.00    +0.000 NA
ATOM      6  C   UNL     1      47.938   8.087  12.103  0.00  0.00    +0.000 A 
ATOM      7  C   UNL     1      48.762   7.791  13.179  0.00  0.00    +0.000 A 
ATOM      8  C   UNL     1      48.471   6.678  13.968  0.00  0.00    +0.000 A 
ATOM      9  C   UNL     1      47.349   5.904  13.620  0.00  0.00    +0.000 A 
ENDROOT
BRANCH   1  11
ATOM     10  N   UNL     1      47.479   3.331  16.168  0.00  0.00    +0.000 NA
ATOM     11  C   UNL     1      47.142   3.954  15.250  0.00  0.00    +0.000 C 
ENDBRANCH   1  11
BRANCH   3  12
ATOM     12  C   UNL     1      44.526   5.544  11.338  0.00  0.00    +0.000 C 
BRANCH  12  13
ATOM     13  C   UNL     1      44.866   4.705  10.148  0.00  0.00    +0.000 A 
ATOM     14  C   UNL     1      45.726   5.139   9.159  0.00  0.00    +0.000 A 
ATOM     15  N   UNL     1      46.008   4.430   8.047  0.00  0.00    +0.000 NA
ATOM     16  C   UNL     1      45.385   3.249   7.935  0.00  0.00    +0.000 A 
ATOM     17  N   UNL     1      44.544   2.713   8.833  0.00  0.00    +0.000 NA
ATOM     18  C   UNL     1      44.305   3.463   9.927  0.00  0.00    +0.000 A 
ENDBRANCH  12  13
ENDBRANCH   3  12
TORSDOF 3
ENDMDL
MODEL 4
REMARK VINA RESULT:    -6.031      2.154      3.503
REMARK INTER + INTRA:          -7.565
REMARK INTER:                  -7.123
REMARK INTRA:                  -0.442
REMARK UNBOUND:                -0.475
REMARK  Name = 
REMARK  3 active torsions:
REMARK  status: ('A' for Active; 'I' for Inactive)
REMARK    1  A    between atoms: C_2  and  C_3
REMARK    2  A    between atoms: N_5  and  C_6
REMARK    3  A    between atoms: C_6  and  C_7
REMARK                            x       y       z     vdW  Elec       q    Type
REMARK                         _______ _______ _______ _____ _____    ______ ____
ROOT
ATOM      1  C   UNL     1      46.886   6.258  13.292  0.00  0.00    +0.000 A 
ATOM      2  C   UNL     1      46.274   5.126  12.788  0.00  0.00    +0.000 A 
ATOM      3  N   UNL     1      45.208   5.533  12.020  0.00  0.00    +0.000 N 
ATOM      4  C   UNL     1      45.167   6.906  11.973  0.00  0.00    +0.000 A 
ATOM      5  N   UNL     1      44.272   7.634  11.277  0.00  0.00    +0.000 NA
ATOM      6  C   UNL     1      44.452   8.969  11.410  0.00  0.00    +0.000 A 
ATOM      7  C   UNL     1      45.432   9.582  12.177  0.00  0.00    +0.000 A 
ATOM      8  C   UNL     1      46.333   8.787  12.885  0.00  0.00    +0.000 A 
ATOM      9  C   UNL     1      46.201   7.391  12.775  0.00  0.00    +0.000 A 
ENDROOT
BRANCH   1  11
ATOM     10  N   UNL     1      48.935   6.282  14.878  0.00  0.00    +0.000 NA
ATOM     11  C   UNL     1      48.018   6.268  14.168  0.00  0.00    +0.000 C 
ENDBRANCH   1  11
BRANCH   3  12
ATOM     12  C   UNL     1      44.273   4.650  11.334  0.00  0.00    +0.000 C 
BRANCH  12  13
ATOM     13  C   UNL     1      44.896   4.043  10.118  0.00  0.00    +0.000 A 
ATOM     14  C   UNL     1      45.470   4.809   9.122  0.00  0.00    +0.000 A 
ATOM     15  N   UNL     1      45.989   4.296   7.988  0.00  0.00    +0.000 NA
ATOM     16  C   UNL     1      45.910   2.964   7.861  0.00  0.00    +0.000 A 
ATOM     17  N   UNL     1      45.393   2.116   8.763  0.00  0.00    +0.000 NA
ATOM     18  C   UNL     1      44.895   2.684   9.879  0.00  0.00    +0.000 A 
ENDBRANCH  12  13
ENDBRANCH   3  12
TORSDOF 3
ENDMDL
MODEL 5
REMARK VINA RESULT:    -5.721      1.815      5.229
REMARK INTER + INTRA:          -7.200
REMARK INTER:                  -6.721
REMARK INTRA:                  -0.479
REMARK UNBOUND:                -0.475
REMARK  Name = 
REMARK  3 active torsions:
REMARK  status: ('A' for Active; 'I' for Inactive)
REMARK    1  A    between atoms: C_2  and  C_3
REMARK    2  A    between atoms: N_5  and  C_6
REMARK    3  A    between atoms: C_6  and  C_7
REMARK                            x       y       z     vdW  Elec       q    Type
REMARK                         _______ _______ _______ _____ _____    ______ ____
ROOT
ATOM      1  C   UNL     1      45.605   4.649   9.161  0.00  0.00    +0.000 A 
ATOM      2  C   UNL     1      46.016   5.874   9.654  0.00  0.00    +0.000 A 
ATOM      3  N   UNL     1      45.455   6.034  10.899  0.00  0.00    +0.000 N 
ATOM      4  C   UNL     1      44.744   4.908  11.236  0.00  0.00    +0.000 A 
ATOM      5  N   UNL     1      44.100   4.716  12.404  0.00  0.00    +0.000 NA
ATOM      6  C   UNL     1      43.471   3.519  12.475  0.00  0.00    +0.000 A 
ATOM      7  C   UNL     1      43.449   2.554  11.478  0.00  0.00    +0.000 A 
ATOM      8  C   UNL     1      44.126   2.801  10.284  0.00  0.00    +0.000 A 
ATOM      9  C   UNL     1      44.808   4.024  10.158  0.00  0.00    +0.000 A 
ENDROOT
BRANCH   1  11
ATOM     10  N   UNL     1      46.211   3.685   6.834  0.00  0.00    +0.000 NA
ATOM     11  C   UNL     1      45.943   4.116   7.876  0.00  0.00    +0.000 C 
ENDBRANCH   1  11
BRANCH   3  12
ATOM     12  C   UNL     1      45.606   7.208  11.750  0.00  0.00    +0.000 C 
BRANCH  12  13
ATOM     13  C   UNL     1      46.990   7.295  12.309  0.00  0.00    +0.000 A 
ATOM     14  C   UNL     1      47.829   8.358  12.041  0.00  0.00    +0.000 A 
ATOM     15  N   UNL     1      49.101   8.438  12.483  0.00  0.00    +0.000 NA
ATOM     16  C   UNL     1      49.533   7.398  13.209  0.00  0.00    +0.000 A 
ATOM     17  N   UNL     1      48.809   6.320  13.549  0.00  0.00    +0.000 NA
ATOM     18  C   UNL     1      47.544   6.297  13.085  0.00  0.00    +0.000 A 
ENDBRANCH  12  13
ENDBRANCH   3  12
TORSDOF 3
ENDMDL
MODEL 6
REMARK VINA RESULT:    -5.409      1.975      5.725
REMARK INTER + INTRA:          -6.834
REMARK INTER:                  -6.581
REMARK INTRA:                  -0.252
REMARK UNBOUND:                -0.475
REMARK  Name = 
REMARK  3 active torsions:
REMARK  status: ('A' for Active; 'I' for Inactive)
REMARK    1  A    between atoms: C_2  and  C_3
REMARK    2  A    between atoms: N_5  and  C_6
REMARK    3  A    between atoms: C_6  and  C_7
REMARK                            x       y       z     vdW  Elec       q    Type
REMARK                         _______ _______ _______ _____ _____    ______ ____
ROOT
ATOM      1  C   UNL     1      44.158   3.427  10.902  0.00  0.00    +0.000 A 
ATOM      2  C   UNL     1      44.279   4.647  11.541  0.00  0.00    +0.000 A 
ATOM      3  N   UNL     1      45.092   5.445  10.769  0.00  0.00    +0.000 N 
ATOM      4  C   UNL     1      45.439   4.779   9.620  0.00  0.00    +0.000 A 
ATOM      5  N   UNL     1      46.196   5.286   8.627  0.00  0.00    +0.000 NA
ATOM      6  C   UNL     1      46.395   4.414   7.610  0.00  0.00    +0.000 A 
ATOM      7  C   UNL     1      45.903   3.118   7.545  0.00  0.00    +0.000 A 
ATOM      8  C   UNL     1      45.128   2.636   8.600  0.00  0.00    +0.000 A 
ATOM      9  C   UNL     1      44.880   3.502   9.680  0.00  0.00    +0.000 A 
ENDROOT
BRANCH   1  11
ATOM     10  N   UNL     1      42.818   1.395  11.790  0.00  0.00    +0.000 NA
ATOM     11  C   UNL     1      43.421   2.303  11.394  0.00  0.00    +0.000 C 
ENDBRANCH   1  11
BRANCH   3  12
ATOM     12  C   UNL     1      45.505   6.803  11.102  0.00  0.00    +0.000 C 
BRANCH  12  13
ATOM     13  C   UNL     1      46.769   6.802  11.900  0.00  0.00    +0.000 A 
ATOM     14  C   UNL     1      46.993   5.909  12.929  0.00  0.00    +0.000 A 
ATOM     15  N   UNL     1      48.097   5.919  13.703  0.00  0.00    +0.000 NA
ATOM     16  C   UNL     1      48.994   6.876  13.427  0.00  0.00    +0.000 A 
ATOM     17  N   UNL     1      48.899   7.786  12.446  0.00  0.00    +0.000 NA
ATOM     18  C   UNL     1      47.778   7.724  11.700  0.00  0.00    +0.000 A 
ENDBRANCH  12  13
ENDBRANCH   3  12
TORSDOF 3
ENDMDL
MODEL 7
REMARK VINA RESULT:    -5.243      4.272      6.501
REMARK INTER + INTRA:          -6.638
REMARK INTER:                  -6.238
REMARK INTRA:                  -0.400
REMARK UNBOUND:                -0.475
REMARK  Name = 
REMARK  3 active torsions:
REMARK  status: ('A' for Active; 'I' for Inactive)
REMARK    1  A    between atoms: C_2  and  C_3
REMARK    2  A    between atoms: N_5  and  C_6
REMARK    3  A    between atoms: C_6  and  C_7
REMARK                            x       y       z     vdW  Elec       q    Type
REMARK                         _______ _______ _______ _____ _____    ______ ____
ROOT
ATOM      1  C   UNL     1      47.898   6.355  13.230  0.00  0.00    +0.000 A 
ATOM      2  C   UNL     1      48.085   5.917  14.527  0.00  0.00    +0.000 A 
ATOM      3  N   UNL     1      47.076   5.028  14.819  0.00  0.00    +0.000 N 
ATOM      4  C   UNL     1      46.286   4.844  13.711  0.00  0.00    +0.000 A 
ATOM      5  N   UNL     1      45.231   4.009  13.639  0.00  0.00    +0.000 NA
ATOM      6  C   UNL     1      44.620   4.024  12.432  0.00  0.00    +0.000 A 
ATOM      7  C   UNL     1      44.991   4.804  11.345  0.00  0.00    +0.000 A 
ATOM      8  C   UNL     1      46.087   5.657  11.469  0.00  0.00    +0.000 A 
ATOM      9  C   UNL     1      46.768   5.675  12.699  0.00  0.00    +0.000 A 
ENDROOT
BRANCH   1  11
ATOM     10  N   UNL     1      49.380   8.094  12.009  0.00  0.00    +0.000 NA
ATOM     11  C   UNL     1      48.715   7.315  12.552  0.00  0.00    +0.000 C 
ENDBRANCH   1  11
BRANCH   3  12
ATOM     12  C   UNL     1      46.883   4.359  16.100  0.00  0.00    +0.000 C 
BRANCH  12  13
ATOM     13  C   UNL     1      48.109   3.607  16.507  0.00  0.00    +0.000 A 
ATOM     14  C   UNL     1      49.020   4.114  17.413  0.00  0.00    +0.000 A 
ATOM     15  N   UNL     1      50.163   3.486  17.757  0.00  0.00    +0.000 NA
ATOM     16  C   UNL     1      50.389   2.313  17.151  0.00  0.00    +0.000 A 
ATOM     17  N   UNL     1      49.575   1.711  16.270  0.00  0.00    +0.000 NA
ATOM     18  C   UNL     1      48.445   2.381  15.969  0.00  0.00    +0.000 A 
ENDBRANCH  12  13
ENDBRANCH   3  12
TORSDOF 3
ENDMDL
MODEL 8
REMARK VINA RESULT:    -5.154      3.810      6.325
REMARK INTER + INTRA:          -6.534
REMARK INTER:                  -6.273
REMARK INTRA:                  -0.261
REMARK UNBOUND:                -0.475
REMARK  Name = 
REMARK  3 active torsions:
REMARK  status: ('A' for Active; 'I' for Inactive)
REMARK    1  A    between atoms: C_2  and  C_3
REMARK    2  A    between atoms: N_5  and  C_6
REMARK    3  A    between atoms: C_6  and  C_7
REMARK                            x       y       z     vdW  Elec       q    Type
REMARK                         _______ _______ _______ _____ _____    ______ ____
ROOT
ATOM      1  C   UNL     1      45.578   6.780  12.580  0.00  0.00    +0.000 A 
ATOM      2  C   UNL     1      46.663   6.315  13.300  0.00  0.00    +0.000 A 
ATOM      3  N   UNL     1      46.487   4.966  13.501  0.00  0.00    +0.000 N 
ATOM      4  C   UNL     1      45.341   4.549  12.869  0.00  0.00    +0.000 A 
ATOM      5  N   UNL     1      44.891   3.279  12.832  0.00  0.00    +0.000 NA
ATOM      6  C   UNL     1      43.731   3.144  12.147  0.00  0.00    +0.000 A 
ATOM      7  C   UNL     1      43.028   4.171  11.533  0.00  0.00    +0.000 A 
ATOM      8  C   UNL     1      43.530   5.470  11.602  0.00  0.00    +0.000 A 
ATOM      9  C   UNL     1      44.739   5.669  12.293  0.00  0.00    +0.000 A 
ENDROOT
BRANCH   1  11
ATOM     10  N   UNL     1      45.182   9.243  11.882  0.00  0.00    +0.000 NA
ATOM     11  C   UNL     1      45.362   8.140  12.192  0.00  0.00    +0.000 C 
ENDBRANCH   1  11
BRANCH   3  12
ATOM     12  C   UNL     1      47.388   4.097  14.248  0.00  0.00    +0.000 C 
BRANCH  12  13
ATOM     13  C   UNL     1      47.540   4.564  15.660  0.00  0.00    +0.000 A 
ATOM     14  C   UNL     1      48.451   5.535  16.023  0.00  0.00    +0.000 A 
ATOM     15  N   UNL     1      48.652   5.937  17.295  0.00  0.00    +0.000 NA
ATOM     16  C   UNL     1      47.909   5.321  18.225  0.00  0.00    +0.000 A 
ATOM     17  N   UNL     1      46.982   4.379  17.996  0.00  0.00    +0.000 NA
ATOM     18  C   UNL     1      46.820   4.022  16.706  0.00  0.00    +0.000 A 
ENDBRANCH  12  13
ENDBRANCH   3  12
TORSDOF 3
ENDMDL
MODEL 9
REMARK VINA RESULT:    -4.969      3.345      5.846
REMARK INTER + INTRA:          -6.316
REMARK INTER:                  -6.161
REMARK INTRA:                  -0.156
REMARK UNBOUND:                -0.475
REMARK  Name = 
REMARK  3 active torsions:
REMARK  status: ('A' for Active; 'I' for Inactive)
REMARK    1  A    between atoms: C_2  and  C_3
REMARK    2  A    between atoms: N_5  and  C_6
REMARK    3  A    between atoms: C_6  and  C_7
REMARK                            x       y       z     vdW  Elec       q    Type
REMARK                         _______ _______ _______ _____ _____    ______ ____
ROOT
ATOM      1  C   UNL     1      46.589   4.595  13.534  0.00  0.00    +0.000 A 
ATOM      2  C   UNL     1      46.826   5.957  13.514  0.00  0.00    +0.000 A 
ATOM      3  N   UNL     1      46.051   6.504  12.518  0.00  0.00    +0.000 N 
ATOM      4  C   UNL     1      45.276   5.525  11.945  0.00  0.00    +0.000 A 
ATOM      5  N   UNL     1      44.374   5.724  10.963  0.00  0.00    +0.000 NA
ATOM      6  C   UNL     1      43.752   4.587  10.573  0.00  0.00    +0.000 A 
ATOM      7  C   UNL     1      43.983   3.319  11.086  0.00  0.00    +0.000 A 
ATOM      8  C   UNL     1      44.931   3.162  12.098  0.00  0.00    +0.000 A 
ATOM      9  C   UNL     1      45.601   4.312  12.551  0.00  0.00    +0.000 A 
ENDROOT
BRANCH   1  11
ATOM     10  N   UNL     1      47.738   2.897  15.117  0.00  0.00    +0.000 NA
ATOM     11  C   UNL     1      47.224   3.655  14.406  0.00  0.00    +0.000 C 
ENDBRANCH   1  11
BRANCH   3  12
ATOM     12  C   UNL     1      46.029   7.911  12.139  0.00  0.00    +0.000 C 
BRANCH  12  13
ATOM     13  C   UNL     1      47.405   8.495  12.154  0.00  0.00    +0.000 A 
ATOM     14  C   UNL     1      47.686   9.711  12.746  0.00  0.00    +0.000 A 
ATOM     15  N   UNL     1      48.904  10.291  12.726  0.00  0.00    +0.000 NA
ATOM     16  C   UNL     1      49.860   9.616  12.074  0.00  0.00    +0.000 A 
ATOM     17  N   UNL     1      49.715   8.423  11.477  0.00  0.00    +0.000 NA
ATOM     18  C   UNL     1      48.479   7.889  11.534  0.00  0.00    +0.000 A 
ENDBRANCH  12  13
ENDBRANCH   3  12
TORSDOF 3
ENDMDL
