MODEL 1
REMARK VINA RESULT:    -7.715      0.000      0.000
REMARK INTER + INTRA:         -10.173
REMARK INTER:                  -9.519
REMARK INTRA:                  -0.654
REMARK UNBOUND:                -0.654
REMARK  Name = 
REMARK  4 active torsions:
REMARK  status: ('A' for Active; 'I' for Inactive)
REMARK    1  A    between atoms: C_2  and  C_4
REMARK    2  A    between atoms: C_7  and  N_8
REMARK    3  A    between atoms: N_8  and  C_9
REMARK    4  A    between atoms: C_9  and  C_10
REMARK                            x       y       z     vdW  Elec       q    Type
REMARK                         _______ _______ _______ _____ _____    ______ ____
ROOT
ATOM      1  C   UNL     1      46.326   2.328   7.777  0.00  0.00    +0.000 A 
ATOM      2  C   UNL     1      45.401   1.765   8.662  0.00  0.00    +0.000 A 
ATOM      3  C   UNL     1      44.536   2.591   9.391  0.00  0.00    +0.000 A 
ATOM      4  C   UNL     1      44.593   3.982   9.261  0.00  0.00    +0.000 A 
ATOM      5  C   UNL     1      45.481   4.527   8.327  0.00  0.00    +0.000 A 
ATOM      6  C   UNL     1      46.360   3.713   7.608  0.00  0.00    +0.000 A 
ENDROOT
BRANCH   1   8
ATOM      7  N   UNL     1      48.430   2.125   6.566  0.00  0.00    +0.000 N 
ATOM      8  C   UNL     1      47.311   1.499   7.038  0.00  0.00    +0.000 C 
ATOM      9  O   UNL     1      47.151   0.295   6.881  0.00  0.00    +0.000 OA
ATOM     10  H   UNL     1      49.137   1.526   6.158  0.00  0.00    +0.000 HD
ATOM     11  H   UNL     1      48.718   3.037   6.891  0.00  0.00    +0.000 HD
ENDBRANCH   1   8
BRANCH   4  12
ATOM     12  N   UNL     1      43.798   4.864   9.992  0.00  0.00    +0.000 N 
ATOM     13  H   UNL     1      42.915   5.057   9.521  0.00  0.00    +0.000 HD
BRANCH  12  14
ATOM     14  C   UNL     1      43.638   4.657  11.424  0.00  0.00    +0.000 C 
BRANCH  14  15
ATOM     15  C   UNL     1      44.970   4.843  12.107  0.00  0.00    +0.000 A 
ATOM     16  C   UNL     1      45.626   6.075  12.094  0.00  0.00    +0.000 A 
ATOM     17  C   UNL     1      46.826   6.194  12.781  0.00  0.00    +0.000 A 
ATOM     18  N   UNL     1      47.406   5.186  13.466  0.00  0.00    +0.000 NA
ATOM     19  C   UNL     1      46.758   4.002  13.464  0.00  0.00    +0.000 A 
ATOM     20  C   UNL     1      45.558   3.785  12.811  0.00  0.00    +0.000 A 
ENDBRANCH  14  15
ENDBRANCH  12  14
ENDBRANCH   4  12
TORSDOF 4
ENDMDL
MODEL 2
REMARK VINA RESULT:    -7.311      2.450      5.955
REMARK INTER + INTRA:          -9.675
REMARK INTER:                  -9.162
REMARK INTRA:                  -0.513
REMARK UNBOUND:                -0.654
REMARK  Name = 
REMARK  4 active torsions:
REMARK  status: ('A' for Active; 'I' for Inactive)
REMARK    1  A    between atoms: C_2  and  C_4
REMARK    2  A    between atoms: C_7  and  N_8
REMARK    3  A    between atoms: N_8  and  C_9
REMARK    4  A    between atoms: C_9  and  C_10
REMARK                            x       y       z     vdW  Elec       q    Type
REMARK                         _______ _______ _______ _____ _____    ______ ____
ROOT
ATOM      1  C   UNL     1      46.332   4.850  13.168  0.00  0.00    +0.000 A 
ATOM      2  C   UNL     1      46.595   5.961  12.360  0.00  0.00    +0.000 A 
ATOM      3  C   UNL     1      46.149   5.984  11.033  0.00  0.00    +0.000 A 
ATOM      4  C   UNL     1      45.454   4.898  10.491  0.00  0.00    +0.000 A 
ATOM      5  C   UNL     1      45.145   3.821  11.329  0.00  0.00    +0.000 A 
ATOM      6  C   UNL     1      45.601   3.781  12.649  0.00  0.00    +0.000 A 
ENDROOT
BRANCH   1   8
ATOM      7  N   UNL     1      47.517   5.829  15.058  0.00  0.00    +0.000 N 
ATOM      8  C   UNL     1      46.848   4.749  14.557  0.00  0.00    +0.000 C 
ATOM      9  O   UNL     1      46.658   3.753  15.243  0.00  0.00    +0.000 OA
ATOM     10  H   UNL     1      47.769   5.781  16.038  0.00  0.00    +0.000 HD
ATOM     11  H   UNL     1      47.470   6.742  14.629  0.00  0.00    +0.000 HD
ENDBRANCH   1   8
BRANCH   4  12
ATOM     12  N   UNL     1      45.025   4.833   9.166  0.00  0.00    +0.000 N 
ATOM     13  H   UNL     1      45.668   5.311   8.536  0.00  0.00    +0.000 HD
BRANCH  12  14
ATOM     14  C   UNL     1      44.555   3.563   8.633  0.00  0.00    +0.000 C 
BRANCH  14  15
ATOM     15  C   UNL     1      45.708   2.835   7.987  0.00  0.00    +0.000 A 
ATOM     16  C   UNL     1      46.613   3.499   7.157  0.00  0.00    +0.000 A 
ATOM     17  C   UNL     1      47.678   2.783   6.631  0.00  0.00    +0.000 A 
ATOM     18  N   UNL     1      47.899   1.473   6.871  0.00  0.00    +0.000 NA
ATOM     19  C   UNL     1      47.011   0.847   7.673  0.00  0.00    +0.000 A 
ATOM     20  C   UNL     1      45.919   1.475   8.246  0.00  0.00    +0.000 A 
ENDBRANCH  14  15
ENDBRANCH  12  14
ENDBRANCH   4  12
TORSDOF 4
ENDMDL
MODEL 3
REMARK VINA RESULT:    -6.768      2.709      5.987
REMARK INTER + INTRA:          -9.005
REMARK INTER:                  -8.504
REMARK INTRA:                  -0.500
REMARK UNBOUND:                -0.654
REMARK  Name = 
REMARK  4 active torsions:
REMARK  status: ('A' for Active; 'I' for Inactive)
REMARK    1  A    between atoms: C_2  and  C_4
REMARK    2  A    between atoms: C_7  and  N_8
REMARK    3  A    between atoms: N_8  and  C_9
REMARK    4  A    between atoms: C_9  and  C_10
REMARK                            x       y       z     vdW  Elec       q    Type
REMARK                         _______ _______ _______ _____ _____    ______ ____
ROOT
ATOM      1  C   UNL     1      46.135   5.876  12.385  0.00  0.00    +0.000 A 
ATOM      2  C   UNL     1      45.678   4.612  12.771  0.00  0.00    +0.000 A 
ATOM      3  C   UNL     1      45.126   3.745  11.819  0.00  0.00    +0.000 A 
ATOM      4  C   UNL     1      45.006   4.132  10.480  0.00  0.00    +0.000 A 
ATOM      5  C   UNL     1      45.523   5.376  10.099  0.00  0.00    +0.000 A 
ATOM      6  C   UNL     1      46.060   6.254  11.043  0.00  0.00    +0.000 A 
ENDROOT
BRANCH   1   8
ATOM      7  N   UNL     1      47.485   6.382  14.348  0.00  0.00    +0.000 N 
ATOM      8  C   UNL     1      46.659   6.856  13.369  0.00  0.00    +0.000 C 
ATOM      9  O   UNL     1      46.392   8.049  13.295  0.00  0.00    +0.000 OA
ATOM     10  H   UNL     1      47.915   7.079  14.944  0.00  0.00    +0.000 HD
ATOM     11  H   UNL     1      47.927   5.476  14.292  0.00  0.00    +0.000 HD
ENDBRANCH   1   8
BRANCH   4  12
ATOM     12  N   UNL     1      44.422   3.341   9.492  0.00  0.00    +0.000 N 
ATOM     13  H   UNL     1      43.439   3.157   9.687  0.00  0.00    +0.000 HD
BRANCH  12  14
ATOM     14  C   UNL     1      44.669   3.656   8.092  0.00  0.00    +0.000 C 
BRANCH  14  15
ATOM     15  C   UNL     1      45.828   2.830   7.592  0.00  0.00    +0.000 A 
ATOM     16  C   UNL     1      46.755   3.353   6.689  0.00  0.00    +0.000 A 
ATOM     17  C   UNL     1      47.825   2.559   6.303  0.00  0.00    +0.000 A 
ATOM     18  N   UNL     1      48.029   1.300   6.747  0.00  0.00    +0.000 NA
ATOM     19  C   UNL     1      47.120   0.811   7.617  0.00  0.00    +0.000 A 
ATOM     20  C   UNL     1      46.022   1.526   8.062  0.00  0.00    +0.000 A 
ENDBRANCH  14  15
ENDBRANCH  12  14
ENDBRANCH   4  12
TORSDOF 4
ENDMDL
MODEL 4
REMARK VINA RESULT:    -6.756      2.826      6.200
REMARK INTER + INTRA:          -8.990
REMARK INTER:                  -8.484
REMARK INTRA:                  -0.506
REMARK UNBOUND:                -0.654
REMARK  Name = 
REMARK  4 active torsions:
REMARK  status: ('A' for Active; 'I' for Inactive)
REMARK    1  A    between atoms: C_2  and  C_4
REMARK    2  A    between atoms: C_7  and  N_8
REMARK    3  A    between atoms: N_8  and  C_9
REMARK    4  A    between atoms: C_9  and  C_10
REMARK                            x       y       z     vdW  Elec       q    Type
REMARK                         _______ _______ _______ _____ _____    ______ ____
ROOT
ATOM      1  C   UNL     1      46.357   6.416  12.605  0.00  0.00    +0.000 A 
ATOM      2  C   UNL     1      46.093   5.147  13.130  0.00  0.00    +0.000 A 
ATOM      3  C   UNL     1      45.536   4.153  12.316  0.00  0.00    +0.000 A 
ATOM      4  C   UNL     1      45.220   4.415  10.979  0.00  0.00    +0.000 A 
ATOM      5  C   UNL     1      45.546   5.670  10.452  0.00  0.00    +0.000 A 
ATOM      6  C   UNL     1      46.085   6.673  11.260  0.00  0.00    +0.000 A 
ENDROOT
BRANCH   1   8
ATOM      7  N   UNL     1      46.162   8.685  13.469  0.00  0.00    +0.000 N 
ATOM      8  C   UNL     1      46.878   7.522  13.447  0.00  0.00    +0.000 C 
ATOM      9  O   UNL     1      47.892   7.395  14.122  0.00  0.00    +0.000 OA
ATOM     10  H   UNL     1      46.474   9.388  14.127  0.00  0.00    +0.000 HD
ATOM     11  H   UNL     1      45.209   8.741  13.140  0.00  0.00    +0.000 HD
ENDBRANCH   1   8
BRANCH   4  12
ATOM     12  N   UNL     1      44.618   3.489  10.128  0.00  0.00    +0.000 N 
ATOM     13  H   UNL     1      43.691   3.221  10.454  0.00  0.00    +0.000 HD
BRANCH  12  14
ATOM     14  C   UNL     1      44.666   3.711   8.690  0.00  0.00    +0.000 C 
BRANCH  14  15
ATOM     15  C   UNL     1      45.780   2.887   8.094  0.00  0.00    +0.000 A 
ATOM     16  C   UNL     1      45.860   1.511   8.310  0.00  0.00    +0.000 A 
ATOM     17  C   UNL     1      46.883   0.802   7.696  0.00  0.00    +0.000 A 
ATOM     18  N   UNL     1      47.815   1.363   6.897  0.00  0.00    +0.000 NA
ATOM     19  C   UNL     1      47.723   2.695   6.703  0.00  0.00    +0.000 A 
ATOM     20  C   UNL     1      46.740   3.487   7.269  0.00  0.00    +0.000 A 
ENDBRANCH  14  15
ENDBRANCH  12  14
ENDBRANCH   4  12
TORSDOF 4
ENDMDL
MODEL 5
REMARK VINA RESULT:    -5.685      3.104      5.950
REMARK INTER + INTRA:          -7.669
REMARK INTER:                  -7.213
REMARK INTRA:                  -0.455
REMARK UNBOUND:                -0.654
REMARK  Name = 
REMARK  4 active torsions:
REMARK  status: ('A' for Active; 'I' for Inactive)
REMARK    1  A    between atoms: C_2  and  C_4
REMARK    2  A    between atoms: C_7  and  N_8
REMARK    3  A    between atoms: N_8  and  C_9
REMARK    4  A    between atoms: C_9  and  C_10
REMARK                            x       y       z     vdW  Elec       q    Type
REMARK                         _______ _______ _______ _____ _____    ______ ____
ROOT
ATOM      1  C   UNL     1      47.888   6.830  12.904  0.00  0.00    +0.000 A 
ATOM      2  C   UNL     1      47.532   5.685  13.625  0.00  0.00    +0.000 A 
ATOM      3  C   UNL     1      46.452   4.899  13.205  0.00  0.00    +0.000 A 
ATOM      4  C   UNL     1      45.703   5.253  12.077  0.00  0.00    +0.000 A 
ATOM      5  C   UNL     1      46.108   6.367  11.333  0.00  0.00    +0.000 A 
ATOM      6  C   UNL     1      47.174   7.166  11.753  0.00  0.00    +0.000 A 
ENDROOT
BRANCH   1   8
ATOM      7  N   UNL     1      50.250   7.420  12.966  0.00  0.00    +0.000 N 
ATOM      8  C   UNL     1      48.978   7.733  13.352  0.00  0.00    +0.000 C 
ATOM      9  O   UNL     1      48.750   8.737  14.015  0.00  0.00    +0.000 OA
ATOM     10  H   UNL     1      50.964   8.102  13.192  0.00  0.00    +0.000 HD
ATOM     11  H   UNL     1      50.445   6.765  12.223  0.00  0.00    +0.000 HD
ENDBRANCH   1   8
BRANCH   4  12
ATOM     12  N   UNL     1      44.587   4.547  11.633  0.00  0.00    +0.000 N 
ATOM     13  H   UNL     1      43.834   4.558  12.319  0.00  0.00    +0.000 HD
BRANCH  12  14
ATOM     14  C   UNL     1      44.111   4.752  10.272  0.00  0.00    +0.000 C 
BRANCH  14  15
ATOM     15  C   UNL     1      44.885   3.861   9.333  0.00  0.00    +0.000 A 
ATOM     16  C   UNL     1      45.673   4.394   8.311  0.00  0.00    +0.000 A 
ATOM     17  C   UNL     1      46.397   3.523   7.510  0.00  0.00    +0.000 A 
ATOM     18  N   UNL     1      46.387   2.181   7.654  0.00  0.00    +0.000 NA
ATOM     19  C   UNL     1      45.616   1.685   8.645  0.00  0.00    +0.000 A 
ATOM     20  C   UNL     1      44.860   2.471   9.496  0.00  0.00    +0.000 A 
ENDBRANCH  14  15
ENDBRANCH  12  14
ENDBRANCH   4  12
TORSDOF 4
ENDMDL
MODEL 6
REMARK VINA RESULT:    -5.331      4.964      8.411
REMARK INTER + INTRA:          -7.233
REMARK INTER:                  -6.899
REMARK INTRA:                  -0.334
REMARK UNBOUND:                -0.654
REMARK  Name = 
REMARK  4 active torsions:
REMARK  status: ('A' for Active; 'I' for Inactive)
REMARK    1  A    between atoms: C_2  and  C_4
REMARK    2  A    between atoms: C_7  and  N_8
REMARK    3  A    between atoms: N_8  and  C_9
REMARK    4  A    between atoms: C_9  and  C_10
REMARK                            x       y       z     vdW  Elec       q    Type
REMARK                         _______ _______ _______ _____ _____    ______ ____
ROOT
ATOM      1  C   UNL     1      48.591   4.458  18.316  0.00  0.00    +0.000 A 
ATOM      2  C   UNL     1      48.126   3.179  17.991  0.00  0.00    +0.000 A 
ATOM      3  C   UNL     1      47.570   2.935  16.729  0.00  0.00    +0.000 A 
ATOM      4  C   UNL     1      47.453   3.961  15.786  0.00  0.00    +0.000 A 
ATOM      5  C   UNL     1      47.977   5.220  16.104  0.00  0.00    +0.000 A 
ATOM      6  C   UNL     1      48.518   5.477  17.365  0.00  0.00    +0.000 A 
ENDROOT
BRANCH   1   8
ATOM      7  N   UNL     1      48.652   4.048  20.716  0.00  0.00    +0.000 N 
ATOM      8  C   UNL     1      49.120   4.783  19.665  0.00  0.00    +0.000 C 
ATOM      9  O   UNL     1      49.966   5.652  19.832  0.00  0.00    +0.000 OA
ATOM     10  H   UNL     1      49.100   4.212  21.609  0.00  0.00    +0.000 HD
ATOM     11  H   UNL     1      48.163   3.173  20.591  0.00  0.00    +0.000 HD
ENDBRANCH   1   8
BRANCH   4  12
ATOM     12  N   UNL     1      46.865   3.801  14.532  0.00  0.00    +0.000 N 
ATOM     13  H   UNL     1      46.205   3.025  14.521  0.00  0.00    +0.000 HD
BRANCH  12  14
ATOM     14  C   UNL     1      46.368   4.972  13.826  0.00  0.00    +0.000 C 
BRANCH  14  15
ATOM     15  C   UNL     1      45.189   4.578  12.971  0.00  0.00    +0.000 A 
ATOM     16  C   UNL     1      45.193   3.395  12.230  0.00  0.00    +0.000 A 
ATOM     17  C   UNL     1      44.059   3.066  11.501  0.00  0.00    +0.000 A 
ATOM     18  N   UNL     1      42.942   3.824  11.460  0.00  0.00    +0.000 NA
ATOM     19  C   UNL     1      42.959   4.965  12.181  0.00  0.00    +0.000 A 
ATOM     20  C   UNL     1      44.040   5.378  12.939  0.00  0.00    +0.000 A 
ENDBRANCH  14  15
ENDBRANCH  12  14
ENDBRANCH   4  12
TORSDOF 4
ENDMDL
MODEL 7
REMARK VINA RESULT:    -5.217      2.895      4.431
REMARK INTER + INTRA:          -7.092
REMARK INTER:                  -6.668
REMARK INTRA:                  -0.424
REMARK UNBOUND:                -0.654
REMARK  Name = 
REMARK  4 active torsions:
REMARK  status: ('A' for Active; 'I' for Inactive)
REMARK    1  A    between atoms: C_2  and  C_4
REMARK    2  A    between atoms: C_7  and  N_8
REMARK    3  A    between atoms: N_8  and  C_9
REMARK    4  A    between atoms: C_9  and  C_10
REMARK                            x       y       z     vdW  Elec       q    Type
REMARK                         _______ _______ _______ _____ _____    ______ ____
ROOT
ATOM      1  C   UNL     1      45.094   4.292  10.379  0.00  0.00    +0.000 A 
ATOM      2  C   UNL     1      44.931   3.541  11.547  0.00  0.00    +0.000 A 
ATOM      3  C   UNL     1      45.326   4.070  12.782  0.00  0.00    +0.000 A 
ATOM      4  C   UNL     1      45.902   5.342  12.866  0.00  0.00    +0.000 A 
ATOM      5  C   UNL     1      46.002   6.105  11.697  0.00  0.00    +0.000 A 
ATOM      6  C   UNL     1      45.627   5.579  10.459  0.00  0.00    +0.000 A 
ENDROOT
BRANCH   1   8
ATOM      7  N   UNL     1      44.203   2.498   8.993  0.00  0.00    +0.000 N 
ATOM      8  C   UNL     1      44.758   3.745   9.040  0.00  0.00    +0.000 C 
ATOM      9  O   UNL     1      44.940   4.391   8.016  0.00  0.00    +0.000 OA
ATOM     10  H   UNL     1      43.886   2.185   8.083  0.00  0.00    +0.000 HD
ATOM     11  H   UNL     1      43.808   2.050   9.807  0.00  0.00    +0.000 HD
ENDBRANCH   1   8
BRANCH   4  12
ATOM     12  N   UNL     1      46.363   5.910  14.053  0.00  0.00    +0.000 N 
ATOM     13  H   UNL     1      45.750   5.695  14.838  0.00  0.00    +0.000 HD
BRANCH  12  14
ATOM     14  C   UNL     1      47.774   5.797  14.393  0.00  0.00    +0.000 C 
BRANCH  14  15
ATOM     15  C   UNL     1      47.910   5.157  15.753  0.00  0.00    +0.000 A 
ATOM     16  C   UNL     1      48.603   5.790  16.786  0.00  0.00    +0.000 A 
ATOM     17  C   UNL     1      48.653   5.171  18.027  0.00  0.00    +0.000 A 
ATOM     18  N   UNL     1      48.071   3.984  18.301  0.00  0.00    +0.000 NA
ATOM     19  C   UNL     1      47.408   3.387  17.289  0.00  0.00    +0.000 A 
ATOM     20  C   UNL     1      47.302   3.925  16.018  0.00  0.00    +0.000 A 
ENDBRANCH  14  15
ENDBRANCH  12  14
ENDBRANCH   4  12
TORSDOF 4
ENDMDL
MODEL 8
REMARK VINA RESULT:    -5.152      3.723      5.875
REMARK INTER + INTRA:          -7.011
REMARK INTER:                  -6.437
REMARK INTRA:                  -0.574
REMARK UNBOUND:                -0.654
REMARK  Name = 
REMARK  4 active torsions:
REMARK  status: ('A' for Active; 'I' for Inactive)
REMARK    1  A    between atoms: C_2  and  C_4
REMARK    2  A    between atoms: C_7  and  N_8
REMARK    3  A    between atoms: N_8  and  C_9
REMARK    4  A    between atoms: C_9  and  C_10
REMARK                            x       y       z     vdW  Elec       q    Type
REMARK                         _______ _______ _______ _____ _____    ______ ____
ROOT
ATOM      1  C   UNL     1      48.646   7.522  12.487  0.00  0.00    +0.000 A 
ATOM      2  C   UNL     1      48.199   6.268  12.918  0.00  0.00    +0.000 A 
ATOM      3  C   UNL     1      46.827   5.993  12.970  0.00  0.00    +0.000 A 
ATOM      4  C   UNL     1      45.886   6.965  12.613  0.00  0.00    +0.000 A 
ATOM      5  C   UNL     1      46.351   8.192  12.126  0.00  0.00    +0.000 A 
ATOM      6  C   UNL     1      47.716   8.482  12.086  0.00  0.00    +0.000 A 
ENDROOT
BRANCH   1   8
ATOM      7  N   UNL     1      50.856   7.389  11.471  0.00  0.00    +0.000 N 
ATOM      8  C   UNL     1      50.086   7.884  12.485  0.00  0.00    +0.000 C 
ATOM      9  O   UNL     1      50.566   8.621  13.337  0.00  0.00    +0.000 OA
ATOM     10  H   UNL     1      51.809   7.731  11.428  0.00  0.00    +0.000 HD
ATOM     11  H   UNL     1      50.458   7.002  10.628  0.00  0.00    +0.000 HD
ENDBRANCH   1   8
BRANCH   4  12
ATOM     12  N   UNL     1      44.507   6.776  12.688  0.00  0.00    +0.000 N 
ATOM     13  H   UNL     1      44.069   7.440  13.325  0.00  0.00    +0.000 HD
BRANCH  12  14
ATOM     14  C   UNL     1      43.747   6.588  11.461  0.00  0.00    +0.000 C 
BRANCH  14  15
ATOM     15  C   UNL     1      43.766   5.128  11.082  0.00  0.00    +0.000 A 
ATOM     16  C   UNL     1      44.339   4.696   9.885  0.00  0.00    +0.000 A 
ATOM     17  C   UNL     1      44.365   3.335   9.616  0.00  0.00    +0.000 A 
ATOM     18  N   UNL     1      43.866   2.392  10.444  0.00  0.00    +0.000 NA
ATOM     19  C   UNL     1      43.313   2.830  11.594  0.00  0.00    +0.000 A 
ATOM     20  C   UNL     1      43.240   4.165  11.952  0.00  0.00    +0.000 A 
ENDBRANCH  14  15
ENDBRANCH  12  14
ENDBRANCH   4  12
TORSDOF 4
ENDMDL
MODEL 9
REMARK VINA RESULT:    -5.056      3.345      5.229
REMARK INTER + INTRA:          -6.893
REMARK INTER:                  -6.483
REMARK INTRA:                  -0.410
REMARK UNBOUND:                -0.654
REMARK  Name = 
REMARK  4 active torsions:
REMARK  status: ('A' for Active; 'I' for Inactive)
REMARK    1  A    between atoms: C_2  and  C_4
REMARK    2  A    between atoms: C_7  and  N_8
REMARK    3  A    between atoms: N_8  and  C_9
REMARK    4  A    between atoms: C_9  and  C_10
REMARK                            x       y       z     vdW  Elec       q    Type
REMARK                         _______ _______ _______ _____ _____    ______ ____
ROOT
ATOM      1  C   UNL     1      44.880   4.042  11.513  0.00  0.00    +0.000 A 
ATOM      2  C   UNL     1      45.042   5.272  10.867  0.00  0.00    +0.000 A 
ATOM      3  C   UNL     1      45.716   6.318  11.509  0.00  0.00    +0.000 A 
ATOM      4  C   UNL     1      46.219   6.160  12.804  0.00  0.00    +0.000 A 
ATOM      5  C   UNL     1      46.102   4.905  13.414  0.00  0.00    +0.000 A 
ATOM      6  C   UNL     1      45.417   3.861  12.789  0.00  0.00    +0.000 A 
ENDROOT
BRANCH   1   8
ATOM      7  N   UNL     1      44.678   2.280   9.844  0.00  0.00    +0.000 N 
ATOM      8  C   UNL     1      44.111   2.929  10.903  0.00  0.00    +0.000 C 
ATOM      9  O   UNL     1      43.023   2.579  11.345  0.00  0.00    +0.000 OA
ATOM     10  H   UNL     1      44.187   1.460   9.509  0.00  0.00    +0.000 HD
ATOM     11  H   UNL     1      45.659   2.364   9.619  0.00  0.00    +0.000 HD
ENDBRANCH   1   8
BRANCH   4  12
ATOM     12  N   UNL     1      46.854   7.173  13.521  0.00  0.00    +0.000 N 
ATOM     13  H   UNL     1      47.846   6.981  13.649  0.00  0.00    +0.000 HD
BRANCH  12  14
ATOM     14  C   UNL     1      46.590   8.562  13.173  0.00  0.00    +0.000 C 
BRANCH  14  15
ATOM     15  C   UNL     1      47.765   9.116  12.406  0.00  0.00    +0.000 A 
ATOM     16  C   UNL     1      47.696  10.355  11.768  0.00  0.00    +0.000 A 
ATOM     17  C   UNL     1      48.826  10.831  11.118  0.00  0.00    +0.000 A 
ATOM     18  N   UNL     1      49.999  10.165  11.061  0.00  0.00    +0.000 NA
ATOM     19  C   UNL     1      50.045   8.967  11.681  0.00  0.00    +0.000 A 
ATOM     20  C   UNL     1      48.973   8.410  12.356  0.00  0.00    +0.000 A 
ENDBRANCH  14  15
ENDBRANCH  12  14
ENDBRANCH   4  12
TORSDOF 4
ENDMDL
