MODEL 1
REMARK VINA RESULT:    -7.490      0.000      0.000
REMARK INTER + INTRA:         -10.840
REMARK INTER:                 -10.118
REMARK INTRA:                  -0.723
REMARK UNBOUND:                -0.723
REMARK  Name = 
REMARK  10 active torsions:
REMARK  status: ('A' for Active; 'I' for Inactive)
REMARK    1  A    between atoms: C_1  and  N_2
REMARK    2  A    between atoms: N_2  and  C_3
REMARK    3  A    between atoms: N_2  and  C_4
REMARK    4  A    between atoms: C_4  and  C_5
REMARK    5  A    between atoms: C_5  and  C_6
REMARK    6  A    between atoms: C_5  and  C_7
REMARK    7  A    between atoms: C_5  and  C_8
REMARK    8  A    between atoms: C_11  and  C_12
REMARK    9  A    between atoms: C_12  and  N_13
REMARK   10  A    between atoms: C_18  and  C_19
REMARK                            x       y       z     vdW  Elec       q    Type
REMARK                         _______ _______ _______ _____ _____    ______ ____
ROOT
ATOM      1  C   UNL     1      43.782   5.729  11.284  0.00  0.00    +0.000 C 
ENDROOT
BRANCH   1   2
ATOM      2  N   UNL     1      44.060   4.382  10.801  0.00  0.00    +0.000 N 
ATOM      3  C   UNL     1      43.499   3.248  11.335  0.00  0.00    +0.000 A 
ATOM      4  C   UNL     1      43.929   2.173  10.595  0.00  0.00    +0.000 A 
ATOM      5  C   UNL     1      44.780   2.665   9.569  0.00  0.00    +0.000 A 
ATOM      6  C   UNL     1      45.486   2.042   8.516  0.00  0.00    +0.000 A 
ATOM      7  C   UNL     1      46.257   2.821   7.640  0.00  0.00    +0.000 A 
ATOM      8  C   UNL     1      46.340   4.204   7.835  0.00  0.00    +0.000 A 
ATOM      9  C   UNL     1      45.647   4.842   8.871  0.00  0.00    +0.000 A 
ATOM     10  C   UNL     1      44.862   4.051   9.724  0.00  0.00    +0.000 A 
BRANCH   7  11
ATOM     11  C   UNL     1      47.000   2.244   6.486  0.00  0.00    +0.000 C 
ATOM     12  N   UNL     1      47.160   2.999   5.355  0.00  0.00    +0.000 N 
ATOM     13  O   UNL     1      47.481   1.116   6.526  0.00  0.00    +0.000 OA
ATOM     14  H   UNL     1      46.813   3.936   5.222  0.00  0.00    +0.000 HD
ATOM     15  H   UNL     1      47.680   2.577   4.595  0.00  0.00    +0.000 HD
ENDBRANCH   7  11
ENDBRANCH   1   2
BRANCH   1  19
ATOM     16  C   UNL     1      47.152   7.430  13.157  0.00  0.00    +0.000 A 
ATOM     17  N   UNL     1      46.861   6.140  13.411  0.00  0.00    +0.000 NA
ATOM     18  C   UNL     1      45.791   5.618  12.790  0.00  0.00    +0.000 A 
ATOM     19  C   UNL     1      44.984   6.328  11.931  0.00  0.00    +0.000 A 
ATOM     20  C   UNL     1      45.350   7.646  11.752  0.00  0.00    +0.000 A 
ATOM     21  N   UNL     1      46.421   8.214  12.337  0.00  0.00    +0.000 NA
BRANCH  16  22
ATOM     22  C   UNL     1      48.386   8.039  13.809  0.00  0.00    +0.000 C 
ATOM     23  C   UNL     1      48.398   9.577  13.710  0.00  0.00    +0.000 C 
ATOM     24  C   UNL     1      49.602   7.510  13.011  0.00  0.00    +0.000 C 
BRANCH  22  25
ATOM     25  C   UNL     1      48.526   7.597  15.306  0.00  0.00    +0.000 C 
BRANCH  25  27
ATOM     26  C   UNL     1      50.621   6.785  16.301  0.00  0.00    +0.000 C 
ATOM     27  N   UNL     1      49.366   6.414  15.639  0.00  0.00    +0.000 NA
ATOM     28  C   UNL     1      48.621   5.507  16.519  0.00  0.00    +0.000 C 
ENDBRANCH  25  27
ENDBRANCH  22  25
ENDBRANCH  16  22
ENDBRANCH   1  19
TORSDOF 6
ENDMDL
MODEL 2
REMARK VINA RESULT:    -7.244      1.066      2.062
REMARK INTER + INTRA:         -10.507
REMARK INTER:                  -9.769
REMARK INTRA:                  -0.738
REMARK UNBOUND:                -0.723
REMARK  Name = 
REMARK  10 active torsions:
REMARK  status: ('A' for Active; 'I' for Inactive)
REMARK    1  A    between atoms: C_1  and  N_2
REMARK    2  A    between atoms: N_2  and  C_3
REMARK    3  A    between atoms: N_2  and  C_4
REMARK    4  A    between atoms: C_4  and  C_5
REMARK    5  A    between atoms: C_5  and  C_6
REMARK    6  A    between atoms: C_5  and  C_7
REMARK    7  A    between atoms: C_5  and  C_8
REMARK    8  A    between atoms: C_11  and  C_12
REMARK    9  A    between atoms: C_12  and  N_13
REMARK   10  A    between atoms: C_18  and  C_19
REMARK                            x       y       z     vdW  Elec       q    Type
REMARK                         _______ _______ _______ _____ _____    ______ ____
ROOT
ATOM      1  C   UNL     1      44.200   6.181  11.238  0.00  0.00    +0.000 C 
ENDROOT
BRANCH   1   2
ATOM      2  N   UNL     1      44.337   4.804  10.781  0.00  0.00    +0.000 N 
ATOM      3  C   UNL     1      43.689   3.739  11.357  0.00  0.00    +0.000 A 
ATOM      4  C   UNL     1      43.995   2.613  10.632  0.00  0.00    +0.000 A 
ATOM      5  C   UNL     1      44.858   3.002   9.571  0.00  0.00    +0.000 A 
ATOM      6  C   UNL     1      45.471   2.292   8.514  0.00  0.00    +0.000 A 
ATOM      7  C   UNL     1      46.286   2.977   7.599  0.00  0.00    +0.000 A 
ATOM      8  C   UNL     1      46.502   4.350   7.758  0.00  0.00    +0.000 A 
ATOM      9  C   UNL     1      45.903   5.072   8.797  0.00  0.00    +0.000 A 
ATOM     10  C   UNL     1      45.073   4.377   9.690  0.00  0.00    +0.000 A 
BRANCH   7  11
ATOM     11  C   UNL     1      46.938   2.309   6.439  0.00  0.00    +0.000 C 
ATOM     12  N   UNL     1      47.216   3.045   5.319  0.00  0.00    +0.000 N 
ATOM     13  O   UNL     1      47.240   1.120   6.465  0.00  0.00    +0.000 OA
ATOM     14  H   UNL     1      47.016   4.025   5.198  0.00  0.00    +0.000 HD
ATOM     15  H   UNL     1      47.669   2.558   4.555  0.00  0.00    +0.000 HD
ENDBRANCH   7  11
ENDBRANCH   1   2
BRANCH   1  19
ATOM     16  C   UNL     1      47.448   7.307  13.676  0.00  0.00    +0.000 A 
ATOM     17  N   UNL     1      47.334   6.014  13.318  0.00  0.00    +0.000 NA
ATOM     18  C   UNL     1      46.298   5.684  12.528  0.00  0.00    +0.000 A 
ATOM     19  C   UNL     1      45.358   6.585  12.086  0.00  0.00    +0.000 A 
ATOM     20  C   UNL     1      45.547   7.880  12.524  0.00  0.00    +0.000 A 
ATOM     21  N   UNL     1      46.575   8.266  13.302  0.00  0.00    +0.000 NA
BRANCH  16  22
ATOM     22  C   UNL     1      48.636   7.722  14.533  0.00  0.00    +0.000 C 
ATOM     23  C   UNL     1      48.975   6.670  15.608  0.00  0.00    +0.000 C 
ATOM     24  C   UNL     1      48.210   9.018  15.265  0.00  0.00    +0.000 C 
BRANCH  22  25
ATOM     25  C   UNL     1      49.903   8.021  13.660  0.00  0.00    +0.000 C 
BRANCH  25  27
ATOM     26  C   UNL     1      50.145   9.948  12.155  0.00  0.00    +0.000 C 
ATOM     27  N   UNL     1      49.725   8.549  12.279  0.00  0.00    +0.000 NA
ATOM     28  C   UNL     1      50.502   7.739  11.334  0.00  0.00    +0.000 C 
ENDBRANCH  25  27
ENDBRANCH  22  25
ENDBRANCH  16  22
ENDBRANCH   1  19
TORSDOF 6
ENDMDL
MODEL 3
REMARK VINA RESULT:    -6.256      3.567      8.752
REMARK INTER + INTRA:          -9.172
REMARK INTER:                  -8.353
REMARK INTRA:                  -0.819
REMARK UNBOUND:                -0.723
REMARK  Name = 
REMARK  10 active torsions:
REMARK  status: ('A' for Active; 'I' for Inactive)
REMARK    1  A    between atoms: C_1  and  N_2
REMARK    2  A    between atoms: N_2  and  C_3
REMARK    3  A    between atoms: N_2  and  C_4
REMARK    4  A    between atoms: C_4  and  C_5
REMARK    5  A    between atoms: C_5  and  C_6
REMARK    6  A    between atoms: C_5  and  C_7
REMARK    7  A    between atoms: C_5  and  C_8
REMARK    8  A    between atoms: C_11  and  C_12
REMARK    9  A    between atoms: C_12  and  N_13
REMARK   10  A    between atoms: C_18  and  C_19
REMARK                            x       y       z     vdW  Elec       q    Type
REMARK                         _______ _______ _______ _____ _____    ______ ____
ROOT
ATOM      1  C   UNL     1      48.792   6.751  13.514  0.00  0.00    +0.000 C 
ENDROOT
BRANCH   1   2
ATOM      2  N   UNL     1      48.651   7.360  14.830  0.00  0.00    +0.000 N 
ATOM      3  C   UNL     1      48.377   8.691  15.031  0.00  0.00    +0.000 A 
ATOM      4  C   UNL     1      48.246   8.898  16.383  0.00  0.00    +0.000 A 
ATOM      5  C   UNL     1      48.442   7.650  17.034  0.00  0.00    +0.000 A 
ATOM      6  C   UNL     1      48.409   7.250  18.389  0.00  0.00    +0.000 A 
ATOM      7  C   UNL     1      48.644   5.907  18.723  0.00  0.00    +0.000 A 
ATOM      8  C   UNL     1      48.934   4.984  17.711  0.00  0.00    +0.000 A 
ATOM      9  C   UNL     1      48.969   5.359  16.363  0.00  0.00    +0.000 A 
ATOM     10  C   UNL     1      48.710   6.701  16.044  0.00  0.00    +0.000 A 
BRANCH   7  11
ATOM     11  C   UNL     1      48.592   5.400  20.121  0.00  0.00    +0.000 C 
ATOM     12  N   UNL     1      48.627   4.049  20.339  0.00  0.00    +0.000 N 
ATOM     13  O   UNL     1      48.527   6.160  21.081  0.00  0.00    +0.000 OA
ATOM     14  H   UNL     1      48.687   3.341  19.625  0.00  0.00    +0.000 HD
ATOM     15  H   UNL     1      48.600   3.743  21.304  0.00  0.00    +0.000 HD
ENDBRANCH   7  11
ENDBRANCH   1   2
BRANCH   1  19
ATOM     16  C   UNL     1      45.148   5.154  12.125  0.00  0.00    +0.000 A 
ATOM     17  N   UNL     1      45.816   4.487  13.087  0.00  0.00    +0.000 NA
ATOM     18  C   UNL     1      46.966   5.025  13.522  0.00  0.00    +0.000 A 
ATOM     19  C   UNL     1      47.494   6.197  13.033  0.00  0.00    +0.000 A 
ATOM     20  C   UNL     1      46.751   6.795  12.036  0.00  0.00    +0.000 A 
ATOM     21  N   UNL     1      45.585   6.306  11.576  0.00  0.00    +0.000 NA
BRANCH  16  22
ATOM     22  C   UNL     1      43.817   4.594  11.643  0.00  0.00    +0.000 C 
ATOM     23  C   UNL     1      42.641   5.543  11.949  0.00  0.00    +0.000 C 
ATOM     24  C   UNL     1      43.584   3.287  12.439  0.00  0.00    +0.000 C 
BRANCH  22  25
ATOM     25  C   UNL     1      43.850   4.261  10.112  0.00  0.00    +0.000 C 
BRANCH  25  27
ATOM     26  C   UNL     1      44.642   2.158   9.117  0.00  0.00    +0.000 C 
ATOM     27  N   UNL     1      45.009   3.508   9.558  0.00  0.00    +0.000 NA
ATOM     28  C   UNL     1      45.576   4.236   8.417  0.00  0.00    +0.000 C 
ENDBRANCH  25  27
ENDBRANCH  22  25
ENDBRANCH  16  22
ENDBRANCH   1  19
TORSDOF 6
ENDMDL
MODEL 4
REMARK VINA RESULT:    -5.806      2.873      5.153
REMARK INTER + INTRA:          -8.566
REMARK INTER:                  -7.654
REMARK INTRA:                  -0.912
REMARK UNBOUND:                -0.723
REMARK  Name = 
REMARK  10 active torsions:
REMARK  status: ('A' for Active; 'I' for Inactive)
REMARK    1  A    between atoms: C_1  and  N_2
REMARK    2  A    between atoms: N_2  and  C_3
REMARK    3  A    between atoms: N_2  and  C_4
REMARK    4  A    between atoms: C_4  and  C_5
REMARK    5  A    between atoms: C_5  and  C_6
REMARK    6  A    between atoms: C_5  and  C_7
REMARK    7  A    between atoms: C_5  and  C_8
REMARK    8  A    between atoms: C_11  and  C_12
REMARK    9  A    between atoms: C_12  and  N_13
REMARK   10  A    between atoms: C_18  and  C_19
REMARK                            x       y       z     vdW  Elec       q    Type
REMARK                         _______ _______ _______ _____ _____    ______ ____
ROOT
ATOM      1  C   UNL     1      48.462   9.272  12.762  0.00  0.00    +0.000 C 
ENDROOT
BRANCH   1   2
ATOM      2  N   UNL     1      47.050   9.100  12.442  0.00  0.00    +0.000 N 
ATOM      3  C   UNL     1      46.142  10.129  12.417  0.00  0.00    +0.000 A 
ATOM      4  C   UNL     1      44.932   9.617  12.012  0.00  0.00    +0.000 A 
ATOM      5  C   UNL     1      45.107   8.226  11.777  0.00  0.00    +0.000 A 
ATOM      6  C   UNL     1      44.237   7.203  11.337  0.00  0.00    +0.000 A 
ATOM      7  C   UNL     1      44.721   5.894  11.194  0.00  0.00    +0.000 A 
ATOM      8  C   UNL     1      46.053   5.611  11.515  0.00  0.00    +0.000 A 
ATOM      9  C   UNL     1      46.932   6.609  11.951  0.00  0.00    +0.000 A 
ATOM     10  C   UNL     1      46.438   7.918  12.066  0.00  0.00    +0.000 A 
BRANCH   7  11
ATOM     11  C   UNL     1      43.879   4.769  10.701  0.00  0.00    +0.000 C 
ATOM     12  N   UNL     1      43.816   4.527   9.356  0.00  0.00    +0.000 N 
ATOM     13  O   UNL     1      43.249   4.050  11.470  0.00  0.00    +0.000 OA
ATOM     14  H   UNL     1      44.298   5.050   8.643  0.00  0.00    +0.000 HD
ATOM     15  H   UNL     1      43.241   3.747   9.060  0.00  0.00    +0.000 HD
ENDBRANCH   7  11
ENDBRANCH   1   2
BRANCH   1  19
ATOM     16  C   UNL     1      49.537   7.181  16.259  0.00  0.00    +0.000 A 
ATOM     17  N   UNL     1      48.622   8.164  16.356  0.00  0.00    +0.000 NA
ATOM     18  C   UNL     1      48.286   8.804  15.224  0.00  0.00    +0.000 A 
ATOM     19  C   UNL     1      48.831   8.518  13.995  0.00  0.00    +0.000 A 
ATOM     20  C   UNL     1      49.775   7.513  14.000  0.00  0.00    +0.000 A 
ATOM     21  N   UNL     1      50.136   6.829  15.102  0.00  0.00    +0.000 NA
BRANCH  16  22
ATOM     22  C   UNL     1      49.906   6.404  17.516  0.00  0.00    +0.000 C 
ATOM     23  C   UNL     1      49.999   7.314  18.757  0.00  0.00    +0.000 C 
ATOM     24  C   UNL     1      51.314   5.814  17.261  0.00  0.00    +0.000 C 
BRANCH  22  25
ATOM     25  C   UNL     1      48.902   5.231  17.787  0.00  0.00    +0.000 C 
BRANCH  25  27
ATOM     26  C   UNL     1      48.978   2.839  17.232  0.00  0.00    +0.000 C 
ATOM     27  N   UNL     1      48.700   4.192  16.740  0.00  0.00    +0.000 NA
ATOM     28  C   UNL     1      47.317   4.239  16.253  0.00  0.00    +0.000 C 
ENDBRANCH  25  27
ENDBRANCH  22  25
ENDBRANCH  16  22
ENDBRANCH   1  19
TORSDOF 6
ENDMDL
MODEL 5
REMARK VINA RESULT:    -5.722      3.283      5.794
REMARK INTER + INTRA:          -8.452
REMARK INTER:                  -7.518
REMARK INTRA:                  -0.934
REMARK UNBOUND:                -0.723
REMARK  Name = 
REMARK  10 active torsions:
REMARK  status: ('A' for Active; 'I' for Inactive)
REMARK    1  A    between atoms: C_1  and  N_2
REMARK    2  A    between atoms: N_2  and  C_3
REMARK    3  A    between atoms: N_2  and  C_4
REMARK    4  A    between atoms: C_4  and  C_5
REMARK    5  A    between atoms: C_5  and  C_6
REMARK    6  A    between atoms: C_5  and  C_7
REMARK    7  A    between atoms: C_5  and  C_8
REMARK    8  A    between atoms: C_11  and  C_12
REMARK    9  A    between atoms: C_12  and  N_13
REMARK   10  A    between atoms: C_18  and  C_19
REMARK                            x       y       z     vdW  Elec       q    Type
REMARK                         _______ _______ _______ _____ _____    ______ ____
ROOT
ATOM      1  C   UNL     1      48.851   7.219  14.190  0.00  0.00    +0.000 C 
ENDROOT
BRANCH   1   2
ATOM      2  N   UNL     1      47.519   7.296  13.603  0.00  0.00    +0.000 N 
ATOM      3  C   UNL     1      46.912   8.472  13.237  0.00  0.00    +0.000 A 
ATOM      4  C   UNL     1      45.703   8.164  12.660  0.00  0.00    +0.000 A 
ATOM      5  C   UNL     1      45.567   6.749  12.668  0.00  0.00    +0.000 A 
ATOM      6  C   UNL     1      44.562   5.872  12.202  0.00  0.00    +0.000 A 
ATOM      7  C   UNL     1      44.725   4.487  12.354  0.00  0.00    +0.000 A 
ATOM      8  C   UNL     1      45.868   3.991  12.990  0.00  0.00    +0.000 A 
ATOM      9  C   UNL     1      46.876   4.842  13.458  0.00  0.00    +0.000 A 
ATOM     10  C   UNL     1      46.709   6.223  13.277  0.00  0.00    +0.000 A 
BRANCH   7  11
ATOM     11  C   UNL     1      43.730   3.496  11.858  0.00  0.00    +0.000 C 
ATOM     12  N   UNL     1      43.687   2.254  12.432  0.00  0.00    +0.000 N 
ATOM     13  O   UNL     1      42.944   3.767  10.956  0.00  0.00    +0.000 OA
ATOM     14  H   UNL     1      44.280   1.934  13.181  0.00  0.00    +0.000 HD
ATOM     15  H   UNL     1      42.990   1.612  12.075  0.00  0.00    +0.000 HD
ENDBRANCH   7  11
ENDBRANCH   1   2
BRANCH   1  19
ATOM     16  C   UNL     1      48.605   7.095  18.395  0.00  0.00    +0.000 A 
ATOM     17  N   UNL     1      48.569   5.932  17.716  0.00  0.00    +0.000 NA
ATOM     18  C   UNL     1      48.664   5.998  16.379  0.00  0.00    +0.000 A 
ATOM     19  C   UNL     1      48.782   7.177  15.679  0.00  0.00    +0.000 A 
ATOM     20  C   UNL     1      48.787   8.314  16.459  0.00  0.00    +0.000 A 
ATOM     21  N   UNL     1      48.711   8.302  17.803  0.00  0.00    +0.000 NA
BRANCH  16  22
ATOM     22  C   UNL     1      48.546   7.050  19.916  0.00  0.00    +0.000 C 
ATOM     23  C   UNL     1      47.884   5.759  20.436  0.00  0.00    +0.000 C 
ATOM     24  C   UNL     1      47.655   8.240  20.348  0.00  0.00    +0.000 C 
BRANCH  22  25
ATOM     25  C   UNL     1      49.967   7.218  20.556  0.00  0.00    +0.000 C 
BRANCH  25  27
ATOM     26  C   UNL     1      52.251   7.803  19.863  0.00  0.00    +0.000 C 
ATOM     27  N   UNL     1      51.168   6.818  19.772  0.00  0.00    +0.000 NA
ATOM     28  C   UNL     1      51.668   5.526  20.253  0.00  0.00    +0.000 C 
ENDBRANCH  25  27
ENDBRANCH  22  25
ENDBRANCH  16  22
ENDBRANCH   1  19
TORSDOF 6
ENDMDL
MODEL 6
REMARK VINA RESULT:    -5.717      3.258      5.516
REMARK INTER + INTRA:          -8.445
REMARK INTER:                  -7.522
REMARK INTRA:                  -0.923
REMARK UNBOUND:                -0.723
REMARK  Name = 
REMARK  10 active torsions:
REMARK  status: ('A' for Active; 'I' for Inactive)
REMARK    1  A    between atoms: C_1  and  N_2
REMARK    2  A    between atoms: N_2  and  C_3
REMARK    3  A    between atoms: N_2  and  C_4
REMARK    4  A    between atoms: C_4  and  C_5
REMARK    5  A    between atoms: C_5  and  C_6
REMARK    6  A    between atoms: C_5  and  C_7
REMARK    7  A    between atoms: C_5  and  C_8
REMARK    8  A    between atoms: C_11  and  C_12
REMARK    9  A    between atoms: C_12  and  N_13
REMARK   10  A    between atoms: C_18  and  C_19
REMARK                            x       y       z     vdW  Elec       q    Type
REMARK                         _______ _______ _______ _____ _____    ______ ____
ROOT
ATOM      1  C   UNL     1      48.539   8.282  13.271  0.00  0.00    +0.000 C 
ENDROOT
BRANCH   1   2
ATOM      2  N   UNL     1      47.167   8.126  12.805  0.00  0.00    +0.000 N 
ATOM      3  C   UNL     1      46.389   9.166  12.357  0.00  0.00    +0.000 A 
ATOM      4  C   UNL     1      45.188   8.646  11.937  0.00  0.00    +0.000 A 
ATOM      5  C   UNL     1      45.233   7.239  12.130  0.00  0.00    +0.000 A 
ATOM      6  C   UNL     1      44.314   6.197  11.869  0.00  0.00    +0.000 A 
ATOM      7  C   UNL     1      44.662   4.872  12.173  0.00  0.00    +0.000 A 
ATOM      8  C   UNL     1      45.905   4.600  12.756  0.00  0.00    +0.000 A 
ATOM      9  C   UNL     1      46.830   5.616  13.020  0.00  0.00    +0.000 A 
ATOM     10  C   UNL     1      46.476   6.933  12.689  0.00  0.00    +0.000 A 
BRANCH   7  11
ATOM     11  C   UNL     1      43.766   3.716  11.896  0.00  0.00    +0.000 C 
ATOM     12  N   UNL     1      44.029   2.513  12.493  0.00  0.00    +0.000 N 
ATOM     13  O   UNL     1      42.793   3.817  11.155  0.00  0.00    +0.000 OA
ATOM     14  H   UNL     1      44.794   2.326  13.122  0.00  0.00    +0.000 HD
ATOM     15  H   UNL     1      43.392   1.754  12.289  0.00  0.00    +0.000 HD
ENDBRANCH   7  11
ENDBRANCH   1   2
BRANCH   1  19
ATOM     16  C   UNL     1      48.842   7.795  17.446  0.00  0.00    +0.000 A 
ATOM     17  N   UNL     1      48.283   8.925  16.971  0.00  0.00    +0.000 NA
ATOM     18  C   UNL     1      48.185   9.048  15.638  0.00  0.00    +0.000 A 
ATOM     19  C   UNL     1      48.631   8.099  14.748  0.00  0.00    +0.000 A 
ATOM     20  C   UNL     1      49.208   6.989  15.328  0.00  0.00    +0.000 A 
ATOM     21  N   UNL     1      49.317   6.808  16.658  0.00  0.00    +0.000 NA
BRANCH  16  22
ATOM     22  C   UNL     1      48.925   7.603  18.954  0.00  0.00    +0.000 C 
ATOM     23  C   UNL     1      47.562   7.809  19.644  0.00  0.00    +0.000 C 
ATOM     24  C   UNL     1      49.884   8.701  19.476  0.00  0.00    +0.000 C 
BRANCH  22  25
ATOM     25  C   UNL     1      49.507   6.197  19.328  0.00  0.00    +0.000 C 
BRANCH  25  27
ATOM     26  C   UNL     1      48.629   3.957  18.831  0.00  0.00    +0.000 C 
ATOM     27  N   UNL     1      48.575   5.110  19.735  0.00  0.00    +0.000 NA
ATOM     28  C   UNL     1      48.901   4.658  21.092  0.00  0.00    +0.000 C 
ENDBRANCH  25  27
ENDBRANCH  22  25
ENDBRANCH  16  22
ENDBRANCH   1  19
TORSDOF 6
ENDMDL
MODEL 7
REMARK VINA RESULT:    -5.686      3.485      5.501
REMARK INTER + INTRA:          -8.403
REMARK INTER:                  -7.491
REMARK INTRA:                  -0.912
REMARK UNBOUND:                -0.723
REMARK  Name = 
REMARK  10 active torsions:
REMARK  status: ('A' for Active; 'I' for Inactive)
REMARK    1  A    between atoms: C_1  and  N_2
REMARK    2  A    between atoms: N_2  and  C_3
REMARK    3  A    between atoms: N_2  and  C_4
REMARK    4  A    between atoms: C_4  and  C_5
REMARK    5  A    between atoms: C_5  and  C_6
REMARK    6  A    between atoms: C_5  and  C_7
REMARK    7  A    between atoms: C_5  and  C_8
REMARK    8  A    between atoms: C_11  and  C_12
REMARK    9  A    between atoms: C_12  and  N_13
REMARK   10  A    between atoms: C_18  and  C_19
REMARK                            x       y       z     vdW  Elec       q    Type
REMARK                         _______ _______ _______ _____ _____    ______ ____
ROOT
ATOM      1  C   UNL     1      47.388   8.095  13.706  0.00  0.00    +0.000 C 
ENDROOT
BRANCH   1   2
ATOM      2  N   UNL     1      46.272   7.753  12.834  0.00  0.00    +0.000 N 
ATOM      3  C   UNL     1      45.549   8.678  12.120  0.00  0.00    +0.000 A 
ATOM      4  C   UNL     1      44.627   7.999  11.360  0.00  0.00    +0.000 A 
ATOM      5  C   UNL     1      44.794   6.610  11.612  0.00  0.00    +0.000 A 
ATOM      6  C   UNL     1      44.155   5.453  11.113  0.00  0.00    +0.000 A 
ATOM      7  C   UNL     1      44.560   4.187  11.564  0.00  0.00    +0.000 A 
ATOM      8  C   UNL     1      45.574   4.087  12.523  0.00  0.00    +0.000 A 
ATOM      9  C   UNL     1      46.221   5.220  13.029  0.00  0.00    +0.000 A 
ATOM     10  C   UNL     1      45.820   6.477  12.550  0.00  0.00    +0.000 A 
BRANCH   7  11
ATOM     11  C   UNL     1      43.962   2.920  11.061  0.00  0.00    +0.000 C 
ATOM     12  N   UNL     1      44.542   2.291   9.992  0.00  0.00    +0.000 N 
ATOM     13  O   UNL     1      42.971   2.421  11.584  0.00  0.00    +0.000 OA
ATOM     14  H   UNL     1      45.359   2.610   9.497  0.00  0.00    +0.000 HD
ATOM     15  H   UNL     1      44.114   1.426   9.685  0.00  0.00    +0.000 HD
ENDBRANCH   7  11
ENDBRANCH   1   2
BRANCH   1  19
ATOM     16  C   UNL     1      50.931   8.768  11.527  0.00  0.00    +0.000 A 
ATOM     17  N   UNL     1      50.443   7.514  11.586  0.00  0.00    +0.000 NA
ATOM     18  C   UNL     1      49.305   7.329  12.274  0.00  0.00    +0.000 A 
ATOM     19  C   UNL     1      48.632   8.339  12.921  0.00  0.00    +0.000 A 
ATOM     20  C   UNL     1      49.221   9.583  12.823  0.00  0.00    +0.000 A 
ATOM     21  N   UNL     1      50.351   9.825  12.133  0.00  0.00    +0.000 NA
BRANCH  16  22
ATOM     22  C   UNL     1      52.195   9.019  10.716  0.00  0.00    +0.000 C 
ATOM     23  C   UNL     1      53.440   9.182  11.612  0.00  0.00    +0.000 C 
ATOM     24  C   UNL     1      51.974  10.360   9.974  0.00  0.00    +0.000 C 
BRANCH  22  25
ATOM     25  C   UNL     1      52.440   7.886   9.661  0.00  0.00    +0.000 C 
BRANCH  25  27
ATOM     26  C   UNL     1      53.696   5.774   9.667  0.00  0.00    +0.000 C 
ATOM     27  N   UNL     1      53.778   7.236   9.590  0.00  0.00    +0.000 NA
ATOM     28  C   UNL     1      54.443   7.603   8.335  0.00  0.00    +0.000 C 
ENDBRANCH  25  27
ENDBRANCH  22  25
ENDBRANCH  16  22
ENDBRANCH   1  19
TORSDOF 6
ENDMDL
MODEL 8
REMARK VINA RESULT:    -5.672      4.150      8.837
REMARK INTER + INTRA:          -8.384
REMARK INTER:                  -7.488
REMARK INTRA:                  -0.895
REMARK UNBOUND:                -0.723
REMARK  Name = 
REMARK  10 active torsions:
REMARK  status: ('A' for Active; 'I' for Inactive)
REMARK    1  A    between atoms: C_1  and  N_2
REMARK    2  A    between atoms: N_2  and  C_3
REMARK    3  A    between atoms: N_2  and  C_4
REMARK    4  A    between atoms: C_4  and  C_5
REMARK    5  A    between atoms: C_5  and  C_6
REMARK    6  A    between atoms: C_5  and  C_7
REMARK    7  A    between atoms: C_5  and  C_8
REMARK    8  A    between atoms: C_11  and  C_12
REMARK    9  A    between atoms: C_12  and  N_13
REMARK   10  A    between atoms: C_18  and  C_19
REMARK                            x       y       z     vdW  Elec       q    Type
REMARK                         _______ _______ _______ _____ _____    ______ ____
ROOT
ATOM      1  C   UNL     1      49.153   5.432  18.169  0.00  0.00    +0.000 C 
ENDROOT
BRANCH   1   2
ATOM      2  N   UNL     1      50.562   5.060  18.210  0.00  0.00    +0.000 N 
ATOM      3  C   UNL     1      51.569   5.919  18.574  0.00  0.00    +0.000 A 
ATOM      4  C   UNL     1      52.750   5.216  18.566  0.00  0.00    +0.000 A 
ATOM      5  C   UNL     1      52.455   3.878  18.188  0.00  0.00    +0.000 A 
ATOM      6  C   UNL     1      53.250   2.721  18.029  0.00  0.00    +0.000 A 
ATOM      7  C   UNL     1      52.650   1.513  17.642  0.00  0.00    +0.000 A 
ATOM      8  C   UNL     1      51.274   1.475  17.391  0.00  0.00    +0.000 A 
ATOM      9  C   UNL     1      50.468   2.609  17.544  0.00  0.00    +0.000 A 
ATOM     10  C   UNL     1      51.080   3.803  17.955  0.00  0.00    +0.000 A 
BRANCH   7  11
ATOM     11  C   UNL     1      53.412   0.244  17.488  0.00  0.00    +0.000 C 
ATOM     12  N   UNL     1      53.343  -0.697  18.481  0.00  0.00    +0.000 N 
ATOM     13  O   UNL     1      54.091   0.015  16.492  0.00  0.00    +0.000 OA
ATOM     14  H   UNL     1      52.811  -0.612  19.332  0.00  0.00    +0.000 HD
ATOM     15  H   UNL     1      53.866  -1.551  18.335  0.00  0.00    +0.000 HD
ENDBRANCH   7  11
ENDBRANCH   1   2
BRANCH   1  19
ATOM     16  C   UNL     1      47.936   6.538  14.289  0.00  0.00    +0.000 A 
ATOM     17  N   UNL     1      48.613   7.437  15.029  0.00  0.00    +0.000 NA
ATOM     18  C   UNL     1      49.003   7.054  16.256  0.00  0.00    +0.000 A 
ATOM     19  C   UNL     1      48.737   5.815  16.789  0.00  0.00    +0.000 A 
ATOM     20  C   UNL     1      48.018   4.973  15.966  0.00  0.00    +0.000 A 
ATOM     21  N   UNL     1      47.618   5.301  14.724  0.00  0.00    +0.000 NA
BRANCH  16  22
ATOM     22  C   UNL     1      47.520   6.925  12.877  0.00  0.00    +0.000 C 
ATOM     23  C   UNL     1      48.731   7.282  11.990  0.00  0.00    +0.000 C 
ATOM     24  C   UNL     1      46.651   8.198  13.015  0.00  0.00    +0.000 C 
BRANCH  22  25
ATOM     25  C   UNL     1      46.671   5.799  12.194  0.00  0.00    +0.000 C 
BRANCH  25  27
ATOM     26  C   UNL     1      44.760   5.545  10.671  0.00  0.00    +0.000 C 
ATOM     27  N   UNL     1      45.213   6.015  11.984  0.00  0.00    +0.000 NA
ATOM     28  C   UNL     1      44.452   5.313  13.023  0.00  0.00    +0.000 C 
ENDBRANCH  25  27
ENDBRANCH  22  25
ENDBRANCH  16  22
ENDBRANCH   1  19
TORSDOF 6
ENDMDL
MODEL 9
REMARK VINA RESULT:    -5.467      4.503      6.403
REMARK INTER + INTRA:          -8.108
REMARK INTER:                  -7.304
REMARK INTRA:                  -0.803
REMARK UNBOUND:                -0.723
REMARK  Name = 
REMARK  10 active torsions:
REMARK  status: ('A' for Active; 'I' for Inactive)
REMARK    1  A    between atoms: C_1  and  N_2
REMARK    2  A    between atoms: N_2  and  C_3
REMARK    3  A    between atoms: N_2  and  C_4
REMARK    4  A    between atoms: C_4  and  C_5
REMARK    5  A    between atoms: C_5  and  C_6
REMARK    6  A    between atoms: C_5  and  C_7
REMARK    7  A    between atoms: C_5  and  C_8
REMARK    8  A    between atoms: C_11  and  C_12
REMARK    9  A    between atoms: C_12  and  N_13
REMARK   10  A    between atoms: C_18  and  C_19
REMARK                            x       y       z     vdW  Elec       q    Type
REMARK                         _______ _______ _______ _____ _____    ______ ____
ROOT
ATOM      1  C   UNL     1      47.822   6.767  12.212  0.00  0.00    +0.000 C 
ENDROOT
BRANCH   1   2
ATOM      2  N   UNL     1      47.168   8.070  12.219  0.00  0.00    +0.000 N 
ATOM      3  C   UNL     1      47.795   9.238  12.579  0.00  0.00    +0.000 A 
ATOM      4  C   UNL     1      46.904  10.269  12.403  0.00  0.00    +0.000 A 
ATOM      5  C   UNL     1      45.690   9.715  11.914  0.00  0.00    +0.000 A 
ATOM      6  C   UNL     1      44.451  10.280  11.539  0.00  0.00    +0.000 A 
ATOM      7  C   UNL     1      43.419   9.449  11.076  0.00  0.00    +0.000 A 
ATOM      8  C   UNL     1      43.622   8.065  11.016  0.00  0.00    +0.000 A 
ATOM      9  C   UNL     1      44.842   7.485  11.380  0.00  0.00    +0.000 A 
ATOM     10  C   UNL     1      45.871   8.333  11.819  0.00  0.00    +0.000 A 
BRANCH   7  11
ATOM     11  C   UNL     1      42.099   9.970  10.629  0.00  0.00    +0.000 C 
ATOM     12  N   UNL     1      40.962   9.510  11.238  0.00  0.00    +0.000 N 
ATOM     13  O   UNL     1      42.004  10.807   9.737  0.00  0.00    +0.000 OA
ATOM     14  H   UNL     1      40.930   8.832  11.982  0.00  0.00    +0.000 HD
ATOM     15  H   UNL     1      40.084   9.896  10.914  0.00  0.00    +0.000 HD
ENDBRANCH   7  11
ENDBRANCH   1   2
BRANCH   1  19
ATOM     16  C   UNL     1      47.981   5.070  16.066  0.00  0.00    +0.000 A 
ATOM     17  N   UNL     1      48.833   6.071  15.771  0.00  0.00    +0.000 NA
ATOM     18  C   UNL     1      48.751   6.605  14.541  0.00  0.00    +0.000 A 
ATOM     19  C   UNL     1      47.864   6.177  13.580  0.00  0.00    +0.000 A 
ATOM     20  C   UNL     1      47.050   5.134  13.968  0.00  0.00    +0.000 A 
ATOM     21  N   UNL     1      47.080   4.575  15.192  0.00  0.00    +0.000 NA
BRANCH  16  22
ATOM     22  C   UNL     1      48.016   4.475  17.467  0.00  0.00    +0.000 C 
ATOM     23  C   UNL     1      49.447   4.114  17.910  0.00  0.00    +0.000 C 
ATOM     24  C   UNL     1      47.201   3.161  17.399  0.00  0.00    +0.000 C 
BRANCH  22  25
ATOM     25  C   UNL     1      47.356   5.432  18.519  0.00  0.00    +0.000 C 
BRANCH  25  27
ATOM     26  C   UNL     1      48.487   7.470  19.295  0.00  0.00    +0.000 C 
ATOM     27  N   UNL     1      48.207   6.056  19.568  0.00  0.00    +0.000 NA
ATOM     28  C   UNL     1      47.545   5.952  20.873  0.00  0.00    +0.000 C 
ENDBRANCH  25  27
ENDBRANCH  22  25
ENDBRANCH  16  22
ENDBRANCH   1  19
TORSDOF 6
ENDMDL
