MODEL 1
REMARK VINA RESULT:    -7.911      0.000      0.000
REMARK INTER + INTRA:          -8.873
REMARK INTER:                  -9.298
REMARK INTRA:                   0.424
REMARK UNBOUND:                 0.424
REMARK  Name = 
REMARK  3 active torsions:
REMARK  status: ('A' for Active; 'I' for Inactive)
REMARK    1  A    between atoms: C_2  and  C_4
REMARK    2  A    between atoms: N_8  and  C_9
REMARK    3  A    between atoms: C_9  and  C_10
REMARK                            x       y       z     vdW  Elec       q    Type
REMARK                         _______ _______ _______ _____ _____    ______ ____
ROOT
ATOM      1  C   UNL     1      46.407   2.608   7.533  0.00  0.00    +0.000 A 
ATOM      2  C   UNL     1      45.776   1.630   8.258  0.00  0.00    +0.000 A 
ATOM      3  N   UNL     1      44.951   1.881   9.297  0.00  0.00    +0.000 NA
ATOM      4  C   UNL     1      44.781   3.167   9.644  0.00  0.00    +0.000 A 
ATOM      5  N   UNL     1      43.919   3.391  10.707  0.00  0.00    +0.000 N 
ATOM      6  N   UNL     1      45.405   4.189   9.030  0.00  0.00    +0.000 NA
ATOM      7  C   UNL     1      46.200   3.892   7.978  0.00  0.00    +0.000 A 
ATOM      8  H   UNL     1      43.595   2.527  11.111  0.00  0.00    +0.000 HD
ENDROOT
BRANCH   1  10
ATOM      9  N   UNL     1      47.212   3.246   5.343  0.00  0.00    +0.000 N 
ATOM     10  C   UNL     1      47.254   2.341   6.366  0.00  0.00    +0.000 C 
ATOM     11  O   UNL     1      48.001   1.374   6.335  0.00  0.00    +0.000 OA
ATOM     12  H   UNL     1      47.889   3.110   4.598  0.00  0.00    +0.000 HD
ATOM     13  H   UNL     1      46.829   4.175   5.442  0.00  0.00    +0.000 HD
ENDBRANCH   1  10
BRANCH   5  14
ATOM     14  C   UNL     1      43.921   4.648  11.460  0.00  0.00    +0.000 C 
ATOM     15  C   UNL     1      42.605   5.112  12.065  0.00  0.00    +0.000 C 
ATOM     16  C   UNL     1      43.164   5.837  10.885  0.00  0.00    +0.000 C 
BRANCH  14  17
ATOM     17  C   UNL     1      45.247   4.923  12.182  0.00  0.00    +0.000 A 
ATOM     18  C   UNL     1      46.039   6.012  11.809  0.00  0.00    +0.000 A 
ATOM     19  C   UNL     1      47.121   6.395  12.594  0.00  0.00    +0.000 A 
ATOM     20  C   UNL     1      47.415   5.668  13.736  0.00  0.00    +0.000 A 
ATOM     21  C   UNL     1      46.631   4.564  14.019  0.00  0.00    +0.000 A 
ATOM     22  N   UNL     1      45.572   4.173  13.272  0.00  0.00    +0.000 NA
ENDBRANCH  14  17
ENDBRANCH   5  14
TORSDOF 3
ENDMDL
MODEL 2
REMARK VINA RESULT:    -7.347      2.935      6.177
REMARK INTER + INTRA:          -8.212
REMARK INTER:                  -8.271
REMARK INTRA:                   0.059
REMARK UNBOUND:                 0.424
REMARK  Name = 
REMARK  3 active torsions:
REMARK  status: ('A' for Active; 'I' for Inactive)
REMARK    1  A    between atoms: C_2  and  C_4
REMARK    2  A    between atoms: N_8  and  C_9
REMARK    3  A    between atoms: C_9  and  C_10
REMARK                            x       y       z     vdW  Elec       q    Type
REMARK                         _______ _______ _______ _____ _____    ______ ____
ROOT
ATOM      1  C   UNL     1      47.766   5.829  14.574  0.00  0.00    +0.000 A 
ATOM      2  C   UNL     1      47.237   4.638  15.000  0.00  0.00    +0.000 A 
ATOM      3  N   UNL     1      46.414   3.873  14.250  0.00  0.00    +0.000 NA
ATOM      4  C   UNL     1      46.081   4.342  13.036  0.00  0.00    +0.000 A 
ATOM      5  N   UNL     1      45.244   3.528  12.288  0.00  0.00    +0.000 N 
ATOM      6  N   UNL     1      46.503   5.528  12.560  0.00  0.00    +0.000 NA
ATOM      7  C   UNL     1      47.347   6.246  13.334  0.00  0.00    +0.000 A 
ATOM      8  H   UNL     1      44.951   2.718  12.810  0.00  0.00    +0.000 HD
ENDROOT
BRANCH   1  10
ATOM      9  N   UNL     1      48.380   7.936  15.590  0.00  0.00    +0.000 N 
ATOM     10  C   UNL     1      48.709   6.630  15.362  0.00  0.00    +0.000 C 
ATOM     11  O   UNL     1      49.721   6.133  15.834  0.00  0.00    +0.000 OA
ATOM     12  H   UNL     1      48.981   8.443  16.233  0.00  0.00    +0.000 HD
ATOM     13  H   UNL     1      47.449   8.304  15.457  0.00  0.00    +0.000 HD
ENDBRANCH   1  10
BRANCH   5  14
ATOM     14  C   UNL     1      44.477   4.038  11.148  0.00  0.00    +0.000 C 
ATOM     15  C   UNL     1      43.841   5.412  11.281  0.00  0.00    +0.000 C 
ATOM     16  C   UNL     1      42.972   4.198  11.304  0.00  0.00    +0.000 C 
BRANCH  14  17
ATOM     17  C   UNL     1      45.012   3.557   9.792  0.00  0.00    +0.000 A 
ATOM     18  C   UNL     1      45.510   4.477   8.865  0.00  0.00    +0.000 A 
ATOM     19  C   UNL     1      46.192   4.036   7.737  0.00  0.00    +0.000 A 
ATOM     20  C   UNL     1      46.351   2.675   7.534  0.00  0.00    +0.000 A 
ATOM     21  C   UNL     1      45.784   1.814   8.456  0.00  0.00    +0.000 A 
ATOM     22  N   UNL     1      45.117   2.218   9.562  0.00  0.00    +0.000 NA
ENDBRANCH  14  17
ENDBRANCH   5  14
TORSDOF 3
ENDMDL
MODEL 3
REMARK VINA RESULT:    -6.231      2.855      4.578
REMARK INTER + INTRA:          -6.900
REMARK INTER:                  -6.873
REMARK INTRA:                  -0.027
REMARK UNBOUND:                 0.424
REMARK  Name = 
REMARK  3 active torsions:
REMARK  status: ('A' for Active; 'I' for Inactive)
REMARK    1  A    between atoms: C_2  and  C_4
REMARK    2  A    between atoms: N_8  and  C_9
REMARK    3  A    between atoms: C_9  and  C_10
REMARK                            x       y       z     vdW  Elec       q    Type
REMARK                         _______ _______ _______ _____ _____    ______ ____
ROOT
ATOM      1  C   UNL     1      44.985   3.930  10.297  0.00  0.00    +0.000 A 
ATOM      2  C   UNL     1      44.804   3.604  11.617  0.00  0.00    +0.000 A 
ATOM      3  N   UNL     1      45.193   4.391  12.644  0.00  0.00    +0.000 NA
ATOM      4  C   UNL     1      45.821   5.536  12.331  0.00  0.00    +0.000 A 
ATOM      5  N   UNL     1      46.197   6.326  13.407  0.00  0.00    +0.000 N 
ATOM      6  N   UNL     1      46.096   5.909  11.068  0.00  0.00    +0.000 NA
ATOM      7  C   UNL     1      45.664   5.104  10.072  0.00  0.00    +0.000 A 
ATOM      8  H   UNL     1      45.996   5.875  14.286  0.00  0.00    +0.000 HD
ENDROOT
BRANCH   1  10
ATOM      9  N   UNL     1      44.234   3.747   8.006  0.00  0.00    +0.000 N 
ATOM     10  C   UNL     1      44.508   3.107   9.181  0.00  0.00    +0.000 C 
ATOM     11  O   UNL     1      44.409   1.894   9.287  0.00  0.00    +0.000 OA
ATOM     12  H   UNL     1      44.019   3.151   7.212  0.00  0.00    +0.000 HD
ATOM     13  H   UNL     1      44.555   4.681   7.797  0.00  0.00    +0.000 HD
ENDBRANCH   1  10
BRANCH   5  14
ATOM     14  C   UNL     1      47.212   7.376  13.287  0.00  0.00    +0.000 C 
ATOM     15  C   UNL     1      48.628   6.951  12.931  0.00  0.00    +0.000 C 
ATOM     16  C   UNL     1      48.332   7.420  14.317  0.00  0.00    +0.000 C 
BRANCH  14  17
ATOM     17  C   UNL     1      46.650   8.710  12.780  0.00  0.00    +0.000 A 
ATOM     18  C   UNL     1      47.496   9.649  12.183  0.00  0.00    +0.000 A 
ATOM     19  C   UNL     1      46.965  10.755  11.528  0.00  0.00    +0.000 A 
ATOM     20  C   UNL     1      45.590  10.923  11.495  0.00  0.00    +0.000 A 
ATOM     21  C   UNL     1      44.809   9.991  12.156  0.00  0.00    +0.000 A 
ATOM     22  N   UNL     1      45.301   8.907  12.798  0.00  0.00    +0.000 NA
ENDBRANCH  14  17
ENDBRANCH   5  14
TORSDOF 3
ENDMDL
MODEL 4
REMARK VINA RESULT:    -6.217      3.446      6.047
REMARK INTER + INTRA:          -6.883
REMARK INTER:                  -7.588
REMARK INTRA:                   0.706
REMARK UNBOUND:                 0.424
REMARK  Name = 
REMARK  3 active torsions:
REMARK  status: ('A' for Active; 'I' for Inactive)
REMARK    1  A    between atoms: C_2  and  C_4
REMARK    2  A    between atoms: N_8  and  C_9
REMARK    3  A    between atoms: C_9  and  C_10
REMARK                            x       y       z     vdW  Elec       q    Type
REMARK                         _______ _______ _______ _____ _____    ______ ____
ROOT
ATOM      1  C   UNL     1      45.372   8.572  11.880  0.00  0.00    +0.000 A 
ATOM      2  C   UNL     1      44.181   8.513  11.203  0.00  0.00    +0.000 A 
ATOM      3  N   UNL     1      43.524   7.363  10.940  0.00  0.00    +0.000 NA
ATOM      4  C   UNL     1      44.106   6.221  11.343  0.00  0.00    +0.000 A 
ATOM      5  N   UNL     1      43.400   5.060  11.068  0.00  0.00    +0.000 N 
ATOM      6  N   UNL     1      45.301   6.177  11.959  0.00  0.00    +0.000 NA
ATOM      7  C   UNL     1      45.909   7.354  12.226  0.00  0.00    +0.000 A 
ATOM      8  H   UNL     1      42.568   5.250  10.533  0.00  0.00    +0.000 HD
ENDROOT
BRANCH   1  10
ATOM      9  N   UNL     1      45.309  10.967  12.207  0.00  0.00    +0.000 N 
ATOM     10  C   UNL     1      46.056   9.823  12.221  0.00  0.00    +0.000 C 
ATOM     11  O   UNL     1      47.233   9.831  12.551  0.00  0.00    +0.000 OA
ATOM     12  H   UNL     1      45.766  11.803  12.559  0.00  0.00    +0.000 HD
ATOM     13  H   UNL     1      44.300  10.968  12.209  0.00  0.00    +0.000 HD
ENDBRANCH   1  10
BRANCH   5  14
ATOM     14  C   UNL     1      44.039   3.741  11.070  0.00  0.00    +0.000 C 
ATOM     15  C   UNL     1      43.397   2.646  11.907  0.00  0.00    +0.000 C 
ATOM     16  C   UNL     1      44.685   3.253  12.358  0.00  0.00    +0.000 C 
BRANCH  14  17
ATOM     17  C   UNL     1      44.733   3.400   9.745  0.00  0.00    +0.000 A 
ATOM     18  C   UNL     1      45.253   4.417   8.940  0.00  0.00    +0.000 A 
ATOM     19  C   UNL     1      46.071   4.108   7.858  0.00  0.00    +0.000 A 
ATOM     20  C   UNL     1      46.343   2.779   7.578  0.00  0.00    +0.000 A 
ATOM     21  C   UNL     1      45.750   1.815   8.375  0.00  0.00    +0.000 A 
ATOM     22  N   UNL     1      44.953   2.091   9.433  0.00  0.00    +0.000 NA
ENDBRANCH  14  17
ENDBRANCH   5  14
TORSDOF 3
ENDMDL
MODEL 5
REMARK VINA RESULT:    -6.055      4.084      6.632
REMARK INTER + INTRA:          -6.693
REMARK INTER:                  -6.726
REMARK INTRA:                   0.033
REMARK UNBOUND:                 0.424
REMARK  Name = 
REMARK  3 active torsions:
REMARK  status: ('A' for Active; 'I' for Inactive)
REMARK    1  A    between atoms: C_2  and  C_4
REMARK    2  A    between atoms: N_8  and  C_9
REMARK    3  A    between atoms: C_9  and  C_10
REMARK                            x       y       z     vdW  Elec       q    Type
REMARK                         _______ _______ _______ _____ _____    ______ ____
ROOT
ATOM      1  C   UNL     1      46.034   4.568  12.608  0.00  0.00    +0.000 A 
ATOM      2  C   UNL     1      46.416   5.862  12.853  0.00  0.00    +0.000 A 
ATOM      3  N   UNL     1      47.147   6.238  13.924  0.00  0.00    +0.000 NA
ATOM      4  C   UNL     1      47.477   5.279  14.805  0.00  0.00    +0.000 A 
ATOM      5  N   UNL     1      48.237   5.696  15.887  0.00  0.00    +0.000 N 
ATOM      6  N   UNL     1      47.095   3.995  14.679  0.00  0.00    +0.000 NA
ATOM      7  C   UNL     1      46.388   3.659  13.577  0.00  0.00    +0.000 A 
ATOM      8  H   UNL     1      48.372   6.694  15.883  0.00  0.00    +0.000 HD
ENDROOT
BRANCH   1  10
ATOM      9  N   UNL     1      44.821   2.866  11.390  0.00  0.00    +0.000 N 
ATOM     10  C   UNL     1      45.293   4.148  11.414  0.00  0.00    +0.000 C 
ATOM     11  O   UNL     1      45.068   4.930  10.502  0.00  0.00    +0.000 OA
ATOM     12  H   UNL     1      44.212   2.628  10.613  0.00  0.00    +0.000 HD
ATOM     13  H   UNL     1      44.748   2.288  12.215  0.00  0.00    +0.000 HD
ENDBRANCH   1  10
BRANCH   5  14
ATOM     14  C   UNL     1      48.347   4.902  17.114  0.00  0.00    +0.000 C 
ATOM     15  C   UNL     1      47.059   4.435  17.771  0.00  0.00    +0.000 C 
ATOM     16  C   UNL     1      47.859   5.516  18.418  0.00  0.00    +0.000 C 
BRANCH  14  17
ATOM     17  C   UNL     1      49.606   4.025  17.160  0.00  0.00    +0.000 A 
ATOM     18  C   UNL     1      50.816   4.554  17.617  0.00  0.00    +0.000 A 
ATOM     19  C   UNL     1      51.897   3.716  17.869  0.00  0.00    +0.000 A 
ATOM     20  C   UNL     1      51.764   2.357  17.639  0.00  0.00    +0.000 A 
ATOM     21  C   UNL     1      50.560   1.902  17.130  0.00  0.00    +0.000 A 
ATOM     22  N   UNL     1      49.494   2.696  16.879  0.00  0.00    +0.000 NA
ENDBRANCH  14  17
ENDBRANCH   5  14
TORSDOF 3
ENDMDL
MODEL 6
REMARK VINA RESULT:    -5.907      3.612      5.634
REMARK INTER + INTRA:          -6.519
REMARK INTER:                  -6.391
REMARK INTRA:                  -0.127
REMARK UNBOUND:                 0.424
REMARK  Name = 
REMARK  3 active torsions:
REMARK  status: ('A' for Active; 'I' for Inactive)
REMARK    1  A    between atoms: C_2  and  C_4
REMARK    2  A    between atoms: N_8  and  C_9
REMARK    3  A    between atoms: C_9  and  C_10
REMARK                            x       y       z     vdW  Elec       q    Type
REMARK                         _______ _______ _______ _____ _____    ______ ____
ROOT
ATOM      1  C   UNL     1      44.650   5.120  11.030  0.00  0.00    +0.000 A 
ATOM      2  C   UNL     1      44.036   5.633  12.145  0.00  0.00    +0.000 A 
ATOM      3  N   UNL     1      44.588   6.579  12.935  0.00  0.00    +0.000 NA
ATOM      4  C   UNL     1      45.822   7.001  12.613  0.00  0.00    +0.000 A 
ATOM      5  N   UNL     1      46.355   7.979  13.438  0.00  0.00    +0.000 N 
ATOM      6  N   UNL     1      46.524   6.510  11.575  0.00  0.00    +0.000 NA
ATOM      7  C   UNL     1      45.921   5.586  10.795  0.00  0.00    +0.000 A 
ATOM      8  H   UNL     1      45.745   8.182  14.214  0.00  0.00    +0.000 HD
ENDROOT
BRANCH   1  10
ATOM      9  N   UNL     1      44.111   4.377   8.793  0.00  0.00    +0.000 N 
ATOM     10  C   UNL     1      44.027   4.139  10.136  0.00  0.00    +0.000 C 
ATOM     11  O   UNL     1      43.499   3.128  10.575  0.00  0.00    +0.000 OA
ATOM     12  H   UNL     1      43.781   3.632   8.186  0.00  0.00    +0.000 HD
ATOM     13  H   UNL     1      44.758   5.037   8.388  0.00  0.00    +0.000 HD
ENDBRANCH   1  10
BRANCH   5  14
ATOM     14  C   UNL     1      47.792   8.263  13.484  0.00  0.00    +0.000 C 
ATOM     15  C   UNL     1      48.713   7.165  13.993  0.00  0.00    +0.000 C 
ATOM     16  C   UNL     1      48.465   8.366  14.845  0.00  0.00    +0.000 C 
BRANCH  14  17
ATOM     17  C   UNL     1      48.259   9.218  12.377  0.00  0.00    +0.000 A 
ATOM     18  C   UNL     1      47.461  10.301  11.999  0.00  0.00    +0.000 A 
ATOM     19  C   UNL     1      47.970  11.289  11.162  0.00  0.00    +0.000 A 
ATOM     20  C   UNL     1      49.267  11.171  10.692  0.00  0.00    +0.000 A 
ATOM     21  C   UNL     1      49.986  10.045  11.053  0.00  0.00    +0.000 A 
ATOM     22  N   UNL     1      49.515   9.072  11.867  0.00  0.00    +0.000 NA
ENDBRANCH  14  17
ENDBRANCH   5  14
TORSDOF 3
ENDMDL
MODEL 7
REMARK VINA RESULT:    -5.696      3.909      5.774
REMARK INTER + INTRA:          -6.270
REMARK INTER:                  -6.100
REMARK INTRA:                  -0.170
REMARK UNBOUND:                 0.424
REMARK  Name = 
REMARK  3 active torsions:
REMARK  status: ('A' for Active; 'I' for Inactive)
REMARK    1  A    between atoms: C_2  and  C_4
REMARK    2  A    between atoms: N_8  and  C_9
REMARK    3  A    between atoms: C_9  and  C_10
REMARK                            x       y       z     vdW  Elec       q    Type
REMARK                         _______ _______ _______ _____ _____    ______ ____
ROOT
ATOM      1  C   UNL     1      44.273   4.246  11.578  0.00  0.00    +0.000 A 
ATOM      2  C   UNL     1      44.285   4.559  12.914  0.00  0.00    +0.000 A 
ATOM      3  N   UNL     1      44.505   5.804  13.390  0.00  0.00    +0.000 NA
ATOM      4  C   UNL     1      44.759   6.767  12.489  0.00  0.00    +0.000 A 
ATOM      5  N   UNL     1      44.969   8.034  13.010  0.00  0.00    +0.000 N 
ATOM      6  N   UNL     1      44.827   6.541  11.164  0.00  0.00    +0.000 NA
ATOM      7  C   UNL     1      44.573   5.286  10.731  0.00  0.00    +0.000 A 
ATOM      8  H   UNL     1      44.966   8.026  14.017  0.00  0.00    +0.000 HD
ENDROOT
BRANCH   1  10
ATOM      9  N   UNL     1      44.819   2.403  10.111  0.00  0.00    +0.000 N 
ATOM     10  C   UNL     1      43.973   2.910  11.057  0.00  0.00    +0.000 C 
ATOM     11  O   UNL     1      43.032   2.258  11.488  0.00  0.00    +0.000 OA
ATOM     12  H   UNL     1      44.666   1.434   9.847  0.00  0.00    +0.000 HD
ATOM     13  H   UNL     1      45.737   2.782   9.931  0.00  0.00    +0.000 HD
ENDBRANCH   1  10
BRANCH   5  14
ATOM     14  C   UNL     1      45.633   9.092  12.243  0.00  0.00    +0.000 C 
ATOM     15  C   UNL     1      47.012   8.793  11.675  0.00  0.00    +0.000 C 
ATOM     16  C   UNL     1      46.884   9.732  12.828  0.00  0.00    +0.000 C 
BRANCH  14  17
ATOM     17  C   UNL     1      44.656   9.993  11.478  0.00  0.00    +0.000 A 
ATOM     18  C   UNL     1      44.631   9.979  10.080  0.00  0.00    +0.000 A 
ATOM     19  C   UNL     1      43.609  10.621   9.390  0.00  0.00    +0.000 A 
ATOM     20  C   UNL     1      42.631  11.292  10.105  0.00  0.00    +0.000 A 
ATOM     21  C   UNL     1      42.743  11.321  11.484  0.00  0.00    +0.000 A 
ATOM     22  N   UNL     1      43.727  10.703  12.178  0.00  0.00    +0.000 NA
ENDBRANCH  14  17
ENDBRANCH   5  14
TORSDOF 3
ENDMDL
MODEL 8
REMARK VINA RESULT:    -5.501      4.488      6.916
REMARK INTER + INTRA:          -6.041
REMARK INTER:                  -5.855
REMARK INTRA:                  -0.187
REMARK UNBOUND:                 0.424
REMARK  Name = 
REMARK  3 active torsions:
REMARK  status: ('A' for Active; 'I' for Inactive)
REMARK    1  A    between atoms: C_2  and  C_4
REMARK    2  A    between atoms: N_8  and  C_9
REMARK    3  A    between atoms: C_9  and  C_10
REMARK                            x       y       z     vdW  Elec       q    Type
REMARK                         _______ _______ _______ _____ _____    ______ ____
ROOT
ATOM      1  C   UNL     1      46.990   5.852  12.972  0.00  0.00    +0.000 A 
ATOM      2  C   UNL     1      46.190   4.772  13.246  0.00  0.00    +0.000 A 
ATOM      3  N   UNL     1      46.213   4.099  14.417  0.00  0.00    +0.000 NA
ATOM      4  C   UNL     1      47.102   4.506  15.337  0.00  0.00    +0.000 A 
ATOM      5  N   UNL     1      47.093   3.802  16.532  0.00  0.00    +0.000 N 
ATOM      6  N   UNL     1      47.968   5.516  15.134  0.00  0.00    +0.000 NA
ATOM      7  C   UNL     1      47.890   6.178  13.959  0.00  0.00    +0.000 A 
ATOM      8  H   UNL     1      46.448   3.028  16.501  0.00  0.00    +0.000 HD
ENDROOT
BRANCH   1  10
ATOM      9  N   UNL     1      47.991   7.418  11.426  0.00  0.00    +0.000 N 
ATOM     10  C   UNL     1      46.922   6.621  11.727  0.00  0.00    +0.000 C 
ATOM     11  O   UNL     1      45.970   6.515  10.968  0.00  0.00    +0.000 OA
ATOM     12  H   UNL     1      47.981   7.851  10.506  0.00  0.00    +0.000 HD
ATOM     13  H   UNL     1      48.891   7.327  11.873  0.00  0.00    +0.000 HD
ENDBRANCH   1  10
BRANCH   5  14
ATOM     14  C   UNL     1      48.221   3.837  17.466  0.00  0.00    +0.000 C 
ATOM     15  C   UNL     1      49.458   3.028  17.111  0.00  0.00    +0.000 C 
ATOM     16  C   UNL     1      48.574   2.563  18.220  0.00  0.00    +0.000 C 
BRANCH  14  17
ATOM     17  C   UNL     1      48.352   5.172  18.211  0.00  0.00    +0.000 A 
ATOM     18  C   UNL     1      49.568   5.862  18.211  0.00  0.00    +0.000 A 
ATOM     19  C   UNL     1      49.635   7.166  18.690  0.00  0.00    +0.000 A 
ATOM     20  C   UNL     1      48.487   7.760  19.188  0.00  0.00    +0.000 A 
ATOM     21  C   UNL     1      47.328   7.005  19.217  0.00  0.00    +0.000 A 
ATOM     22  N   UNL     1      47.237   5.737  18.755  0.00  0.00    +0.000 NA
ENDBRANCH  14  17
ENDBRANCH   5  14
TORSDOF 3
ENDMDL
MODEL 9
REMARK VINA RESULT:    -5.406      3.911      5.838
REMARK INTER + INTRA:          -5.929
REMARK INTER:                  -6.286
REMARK INTRA:                   0.356
REMARK UNBOUND:                 0.424
REMARK  Name = 
REMARK  3 active torsions:
REMARK  status: ('A' for Active; 'I' for Inactive)
REMARK    1  A    between atoms: C_2  and  C_4
REMARK    2  A    between atoms: N_8  and  C_9
REMARK    3  A    between atoms: C_9  and  C_10
REMARK                            x       y       z     vdW  Elec       q    Type
REMARK                         _______ _______ _______ _____ _____    ______ ____
ROOT
ATOM      1  C   UNL     1      44.624   4.822  12.291  0.00  0.00    +0.000 A 
ATOM      2  C   UNL     1      44.176   6.088  12.567  0.00  0.00    +0.000 A 
ATOM      3  N   UNL     1      44.992   7.143  12.782  0.00  0.00    +0.000 NA
ATOM      4  C   UNL     1      46.314   6.907  12.754  0.00  0.00    +0.000 A 
ATOM      5  N   UNL     1      47.124   8.012  12.967  0.00  0.00    +0.000 N 
ATOM      6  N   UNL     1      46.844   5.687  12.551  0.00  0.00    +0.000 NA
ATOM      7  C   UNL     1      45.990   4.667  12.313  0.00  0.00    +0.000 A 
ATOM      8  H   UNL     1      46.582   8.833  13.184  0.00  0.00    +0.000 HD
ENDROOT
BRANCH   1  10
ATOM      9  N   UNL     1      44.038   2.494  12.585  0.00  0.00    +0.000 N 
ATOM     10  C   UNL     1      43.741   3.690  11.995  0.00  0.00    +0.000 C 
ATOM     11  O   UNL     1      42.751   3.827  11.290  0.00  0.00    +0.000 OA
ATOM     12  H   UNL     1      43.353   1.754  12.465  0.00  0.00    +0.000 HD
ATOM     13  H   UNL     1      44.667   2.406  13.369  0.00  0.00    +0.000 HD
ENDBRANCH   1  10
BRANCH   5  14
ATOM     14  C   UNL     1      48.530   7.883  13.359  0.00  0.00    +0.000 C 
ATOM     15  C   UNL     1      49.544   8.774  12.659  0.00  0.00    +0.000 C 
ATOM     16  C   UNL     1      49.514   7.314  12.347  0.00  0.00    +0.000 C 
BRANCH  14  17
ATOM     17  C   UNL     1      48.718   7.503  14.834  0.00  0.00    +0.000 A 
ATOM     18  C   UNL     1      48.650   8.483  15.828  0.00  0.00    +0.000 A 
ATOM     19  C   UNL     1      48.599   8.119  17.170  0.00  0.00    +0.000 A 
ATOM     20  C   UNL     1      48.639   6.776  17.506  0.00  0.00    +0.000 A 
ATOM     21  C   UNL     1      48.766   5.857  16.480  0.00  0.00    +0.000 A 
ATOM     22  N   UNL     1      48.816   6.185  15.168  0.00  0.00    +0.000 NA
ENDBRANCH  14  17
ENDBRANCH   5  14
TORSDOF 3
ENDMDL
