MODEL 1
REMARK VINA RESULT:    -8.608      0.000      0.000
REMARK INTER + INTRA:         -12.596
REMARK INTER:                 -11.627
REMARK INTRA:                  -0.969
REMARK UNBOUND:                -0.969
REMARK  Name = 
REMARK  7 active torsions:
REMARK  status: ('A' for Active; 'I' for Inactive)
REMARK    1  A    between atoms: C_1  and  C_2
REMARK    2  A    between atoms: C_2  and  N_3
REMARK    3  A    between atoms: C_2  and  C_20
REMARK    4  A    between atoms: C_4  and  C_6
REMARK    5  A    between atoms: C_9  and  C_10
REMARK    6  A    between atoms: C_10  and  N_11
REMARK    7  A    between atoms: C_12  and  C_14
REMARK                            x       y       z     vdW  Elec       q    Type
REMARK                         _______ _______ _______ _____ _____    ______ ____
ROOT
ATOM      1  N   UNL     1      46.881   5.071  14.767  0.00  0.00    +0.000 N 
ATOM      2  C   UNL     1      46.560   4.160  13.788  0.00  0.00    +0.000 C 
ATOM      3  O   UNL     1      47.117   3.070  13.690  0.00  0.00    +0.000 OA
ATOM      4  H   UNL     1      46.185   5.785  14.955  0.00  0.00    +0.000 HD
ENDROOT
BRANCH   2   5
ATOM      5  C   UNL     1      45.553   4.654  12.749  0.00  0.00    +0.000 C 
ATOM      6  C   UNL     1      44.470   5.610  13.239  0.00  0.00    +0.000 C 
ATOM      7  C   UNL     1      43.320   5.472  12.235  0.00  0.00    +0.000 C 
ATOM      8  C   UNL     1      43.549   4.158  11.468  0.00  0.00    +0.000 C 
ATOM      9  C   UNL     1      44.726   3.496  12.187  0.00  0.00    +0.000 C 
BRANCH   8  10
ATOM     10  C   UNL     1      43.830   4.418   9.979  0.00  0.00    +0.000 C 
BRANCH  10  11
ATOM     11  N   UNL     1      44.662   3.392   9.383  0.00  0.00    +0.000 N 
ATOM     12  C   UNL     1      45.622   3.674   8.437  0.00  0.00    +0.000 C 
ATOM     13  O   UNL     1      45.868   4.822   8.065  0.00  0.00    +0.000 OA
ATOM     14  H   UNL     1      44.465   2.428   9.604  0.00  0.00    +0.000 HD
BRANCH  12  15
ATOM     15  C   UNL     1      46.323   2.533   7.909  0.00  0.00    +0.000 A 
ATOM     16  C   UNL     1      46.186   1.164   8.065  0.00  0.00    +0.000 A 
ATOM     17  C   UNL     1      47.202   0.600   7.265  0.00  0.00    +0.000 A 
ATOM     18  N   UNL     1      47.936   1.526   6.655  0.00  0.00    +0.000 NA
ATOM     19  N   UNL     1      47.388   2.685   7.059  0.00  0.00    +0.000 N 
ATOM     20  H   UNL     1      47.780   3.560   6.724  0.00  0.00    +0.000 HD
ENDBRANCH  12  15
ENDBRANCH  10  11
ENDBRANCH   8  10
ENDBRANCH   2   5
BRANCH   1  22
ATOM     21  C   UNL     1      47.143   4.021  17.014  0.00  0.00    +0.000 C 
ATOM     22  C   UNL     1      47.810   4.745  15.837  0.00  0.00    +0.000 C 
BRANCH  22  23
ATOM     23  C   UNL     1      48.516   5.992  16.346  0.00  0.00    +0.000 A 
ATOM     24  C   UNL     1      48.591   6.304  17.697  0.00  0.00    +0.000 A 
ATOM     25  S   UNL     1      49.276   7.839  18.004  0.00  0.00    +0.000 S 
ATOM     26  C   UNL     1      49.507   8.136  16.345  0.00  0.00    +0.000 A 
ATOM     27  N   UNL     1      50.039   9.309  15.905  0.00  0.00    +0.000 NA
ATOM     28  C   UNL     1      50.146   9.397  14.621  0.00  0.00    +0.000 A 
ATOM     29  N   UNL     1      49.778   8.419  13.734  0.00  0.00    +0.000 N 
ATOM     30  C   UNL     1      49.265   7.209  14.134  0.00  0.00    +0.000 A 
ATOM     31  O   UNL     1      49.027   6.323  13.320  0.00  0.00    +0.000 OA
ATOM     32  C   UNL     1      49.091   7.070  15.568  0.00  0.00    +0.000 A 
ATOM     33  H   UNL     1      49.926   8.534  12.743  0.00  0.00    +0.000 HD
ENDBRANCH  22  23
ENDBRANCH   1  22
TORSDOF 6
ENDMDL
MODEL 2
REMARK VINA RESULT:    -8.311      2.272      2.727
REMARK INTER + INTRA:         -12.195
REMARK INTER:                 -11.257
REMARK INTRA:                  -0.938
REMARK UNBOUND:                -0.969
REMARK  Name = 
REMARK  7 active torsions:
REMARK  status: ('A' for Active; 'I' for Inactive)
REMARK    1  A    between atoms: C_1  and  C_2
REMARK    2  A    between atoms: C_2  and  N_3
REMARK    3  A    between atoms: C_2  and  C_20
REMARK    4  A    between atoms: C_4  and  C_6
REMARK    5  A    between atoms: C_9  and  C_10
REMARK    6  A    between atoms: C_10  and  N_11
REMARK    7  A    between atoms: C_12  and  C_14
REMARK                            x       y       z     vdW  Elec       q    Type
REMARK                         _______ _______ _______ _____ _____    ______ ____
ROOT
ATOM      1  N   UNL     1      47.202   5.159  14.911  0.00  0.00    +0.000 N 
ATOM      2  C   UNL     1      46.828   4.265  13.935  0.00  0.00    +0.000 C 
ATOM      3  O   UNL     1      47.193   3.092  13.936  0.00  0.00    +0.000 OA
ATOM      4  H   UNL     1      46.625   5.990  14.997  0.00  0.00    +0.000 HD
ENDROOT
BRANCH   2   5
ATOM      5  C   UNL     1      46.033   4.867  12.775  0.00  0.00    +0.000 C 
ATOM      6  C   UNL     1      46.577   6.153  12.161  0.00  0.00    +0.000 C 
ATOM      7  C   UNL     1      45.372   6.830  11.499  0.00  0.00    +0.000 C 
ATOM      8  C   UNL     1      44.110   6.190  12.103  0.00  0.00    +0.000 C 
ATOM      9  C   UNL     1      44.636   5.295  13.227  0.00  0.00    +0.000 C 
BRANCH   8  10
ATOM     10  C   UNL     1      43.312   5.412  11.044  0.00  0.00    +0.000 C 
BRANCH  10  11
ATOM     11  N   UNL     1      44.162   4.833  10.023  0.00  0.00    +0.000 N 
ATOM     12  C   UNL     1      44.307   3.473   9.864  0.00  0.00    +0.000 C 
ATOM     13  O   UNL     1      43.692   2.657  10.549  0.00  0.00    +0.000 OA
ATOM     14  H   UNL     1      44.737   5.452   9.471  0.00  0.00    +0.000 HD
BRANCH  12  15
ATOM     15  C   UNL     1      45.230   3.066   8.836  0.00  0.00    +0.000 A 
ATOM     16  C   UNL     1      45.859   3.725   7.793  0.00  0.00    +0.000 A 
ATOM     17  C   UNL     1      46.642   2.741   7.155  0.00  0.00    +0.000 A 
ATOM     18  N   UNL     1      46.520   1.548   7.732  0.00  0.00    +0.000 NA
ATOM     19  N   UNL     1      45.663   1.769   8.743  0.00  0.00    +0.000 N 
ATOM     20  H   UNL     1      45.401   0.995   9.347  0.00  0.00    +0.000 HD
ENDBRANCH  12  15
ENDBRANCH  10  11
ENDBRANCH   8  10
ENDBRANCH   2   5
BRANCH   1  22
ATOM     21  C   UNL     1      47.043   4.386  17.277  0.00  0.00    +0.000 C 
ATOM     22  C   UNL     1      47.945   4.738  16.087  0.00  0.00    +0.000 C 
BRANCH  22  23
ATOM     23  C   UNL     1      48.947   5.801  16.509  0.00  0.00    +0.000 A 
ATOM     24  C   UNL     1      48.699   7.158  16.356  0.00  0.00    +0.000 A 
ATOM     25  S   UNL     1      50.042   8.143  16.736  0.00  0.00    +0.000 S 
ATOM     26  C   UNL     1      50.998   6.793  17.131  0.00  0.00    +0.000 A 
ATOM     27  N   UNL     1      52.295   6.935  17.518  0.00  0.00    +0.000 NA
ATOM     28  C   UNL     1      52.900   5.824  17.777  0.00  0.00    +0.000 A 
ATOM     29  N   UNL     1      52.326   4.581  17.691  0.00  0.00    +0.000 N 
ATOM     30  C   UNL     1      51.014   4.392  17.334  0.00  0.00    +0.000 A 
ATOM     31  O   UNL     1      50.508   3.275  17.351  0.00  0.00    +0.000 OA
ATOM     32  C   UNL     1      50.297   5.609  16.998  0.00  0.00    +0.000 A 
ATOM     33  H   UNL     1      52.842   3.753  17.947  0.00  0.00    +0.000 HD
ENDBRANCH  22  23
ENDBRANCH   1  22
TORSDOF 6
ENDMDL
MODEL 3
REMARK VINA RESULT:    -7.762      2.302      2.916
REMARK INTER + INTRA:         -11.454
REMARK INTER:                 -10.451
REMARK INTRA:                  -1.003
REMARK UNBOUND:                -0.969
REMARK  Name = 
REMARK  7 active torsions:
REMARK  status: ('A' for Active; 'I' for Inactive)
REMARK    1  A    between atoms: C_1  and  C_2
REMARK    2  A    between atoms: C_2  and  N_3
REMARK    3  A    between atoms: C_2  and  C_20
REMARK    4  A    between atoms: C_4  and  C_6
REMARK    5  A    between atoms: C_9  and  C_10
REMARK    6  A    between atoms: C_10  and  N_11
REMARK    7  A    between atoms: C_12  and  C_14
REMARK                            x       y       z     vdW  Elec       q    Type
REMARK                         _______ _______ _______ _____ _____    ______ ____
ROOT
ATOM      1  N   UNL     1      47.161   4.953  15.699  0.00  0.00    +0.000 N 
ATOM      2  C   UNL     1      47.078   4.203  14.549  0.00  0.00    +0.000 C 
ATOM      3  O   UNL     1      47.418   3.023  14.503  0.00  0.00    +0.000 OA
ATOM      4  H   UNL     1      46.591   5.793  15.723  0.00  0.00    +0.000 HD
ENDROOT
BRANCH   2   5
ATOM      5  C   UNL     1      46.659   4.977  13.299  0.00  0.00    +0.000 C 
ATOM      6  C   UNL     1      47.716   5.865  12.651  0.00  0.00    +0.000 C 
ATOM      7  C   UNL     1      46.934   6.920  11.861  0.00  0.00    +0.000 C 
ATOM      8  C   UNL     1      45.495   6.914  12.406  0.00  0.00    +0.000 C 
ATOM      9  C   UNL     1      45.550   5.981  13.619  0.00  0.00    +0.000 C 
BRANCH   8  10
ATOM     10  C   UNL     1      44.492   6.447  11.340  0.00  0.00    +0.000 C 
BRANCH  10  11
ATOM     11  N   UNL     1      45.065   5.483  10.421  0.00  0.00    +0.000 N 
ATOM     12  C   UNL     1      44.392   4.352  10.020  0.00  0.00    +0.000 C 
ATOM     13  O   UNL     1      43.242   4.103  10.379  0.00  0.00    +0.000 OA
ATOM     14  H   UNL     1      46.027   5.604  10.140  0.00  0.00    +0.000 HD
BRANCH  12  15
ATOM     15  C   UNL     1      45.126   3.474   9.145  0.00  0.00    +0.000 A 
ATOM     16  C   UNL     1      45.760   3.641   7.925  0.00  0.00    +0.000 A 
ATOM     17  C   UNL     1      46.291   2.373   7.610  0.00  0.00    +0.000 A 
ATOM     18  N   UNL     1      46.015   1.465   8.542  0.00  0.00    +0.000 NA
ATOM     19  N   UNL     1      45.311   2.151   9.458  0.00  0.00    +0.000 N 
ATOM     20  H   UNL     1      44.974   1.669  10.286  0.00  0.00    +0.000 HD
ENDBRANCH  12  15
ENDBRANCH  10  11
ENDBRANCH   8  10
ENDBRANCH   2   5
BRANCH   1  22
ATOM     21  C   UNL     1      46.998   5.142  18.181  0.00  0.00    +0.000 C 
ATOM     22  C   UNL     1      47.528   4.358  16.974  0.00  0.00    +0.000 C 
BRANCH  22  23
ATOM     23  C   UNL     1      49.037   4.208  17.091  0.00  0.00    +0.000 A 
ATOM     24  C   UNL     1      49.637   3.016  17.475  0.00  0.00    +0.000 A 
ATOM     25  S   UNL     1      51.325   3.148  17.706  0.00  0.00    +0.000 S 
ATOM     26  C   UNL     1      51.315   4.798  17.291  0.00  0.00    +0.000 A 
ATOM     27  N   UNL     1      52.457   5.537  17.313  0.00  0.00    +0.000 NA
ATOM     28  C   UNL     1      52.297   6.776  16.984  0.00  0.00    +0.000 A 
ATOM     29  N   UNL     1      51.101   7.344  16.627  0.00  0.00    +0.000 N 
ATOM     30  C   UNL     1      49.930   6.629  16.563  0.00  0.00    +0.000 A 
ATOM     31  O   UNL     1      48.895   7.146  16.156  0.00  0.00    +0.000 OA
ATOM     32  C   UNL     1      50.047   5.237  16.957  0.00  0.00    +0.000 A 
ATOM     33  H   UNL     1      51.050   8.309  16.341  0.00  0.00    +0.000 HD
ENDBRANCH  22  23
ENDBRANCH   1  22
TORSDOF 6
ENDMDL
MODEL 4
REMARK VINA RESULT:    -7.229      3.652      8.299
REMARK INTER + INTRA:         -10.735
REMARK INTER:                  -9.671
REMARK INTRA:                  -1.064
REMARK UNBOUND:                -0.969
REMARK  Name = 
REMARK  7 active torsions:
REMARK  status: ('A' for Active; 'I' for Inactive)
REMARK    1  A    between atoms: C_1  and  C_2
REMARK    2  A    between atoms: C_2  and  N_3
REMARK    3  A    between atoms: C_2  and  C_20
REMARK    4  A    between atoms: C_4  and  C_6
REMARK    5  A    between atoms: C_9  and  C_10
REMARK    6  A    between atoms: C_10  and  N_11
REMARK    7  A    between atoms: C_12  and  C_14
REMARK                            x       y       z     vdW  Elec       q    Type
REMARK                         _______ _______ _______ _____ _____    ______ ____
ROOT
ATOM      1  N   UNL     1      47.004   6.129  14.229  0.00  0.00    +0.000 N 
ATOM      2  C   UNL     1      48.243   6.120  14.827  0.00  0.00    +0.000 C 
ATOM      3  O   UNL     1      49.245   6.569  14.277  0.00  0.00    +0.000 OA
ATOM      4  H   UNL     1      46.209   6.026  14.853  0.00  0.00    +0.000 HD
ENDROOT
BRANCH   2   5
ATOM      5  C   UNL     1      48.309   5.392  16.169  0.00  0.00    +0.000 C 
ATOM      6  C   UNL     1      47.411   4.171  16.337  0.00  0.00    +0.000 C 
ATOM      7  C   UNL     1      47.216   4.012  17.849  0.00  0.00    +0.000 C 
ATOM      8  C   UNL     1      47.606   5.353  18.495  0.00  0.00    +0.000 C 
ATOM      9  C   UNL     1      47.837   6.295  17.311  0.00  0.00    +0.000 C 
BRANCH   8  10
ATOM     10  C   UNL     1      48.847   5.205  19.390  0.00  0.00    +0.000 C 
BRANCH  10  11
ATOM     11  N   UNL     1      49.675   4.077  19.011  0.00  0.00    +0.000 N 
ATOM     12  C   UNL     1      50.912   4.229  18.428  0.00  0.00    +0.000 C 
ATOM     13  O   UNL     1      51.418   5.333  18.227  0.00  0.00    +0.000 OA
ATOM     14  H   UNL     1      49.287   3.149  19.096  0.00  0.00    +0.000 HD
BRANCH  12  15
ATOM     15  C   UNL     1      51.579   3.006  18.066  0.00  0.00    +0.000 A 
ATOM     16  C   UNL     1      52.907   2.615  18.008  0.00  0.00    +0.000 A 
ATOM     17  C   UNL     1      52.877   1.275  17.571  0.00  0.00    +0.000 A 
ATOM     18  N   UNL     1      51.638   0.842  17.356  0.00  0.00    +0.000 NA
ATOM     19  N   UNL     1      50.872   1.903  17.660  0.00  0.00    +0.000 N 
ATOM     20  H   UNL     1      49.863   1.826  17.574  0.00  0.00    +0.000 HD
ENDBRANCH  12  15
ENDBRANCH  10  11
ENDBRANCH   8  10
ENDBRANCH   2   5
BRANCH   1  22
ATOM     21  C   UNL     1      46.717   8.325  13.083  0.00  0.00    +0.000 C 
ATOM     22  C   UNL     1      46.774   6.797  12.959  0.00  0.00    +0.000 C 
BRANCH  22  23
ATOM     23  C   UNL     1      45.498   6.295  12.301  0.00  0.00    +0.000 A 
ATOM     24  C   UNL     1      44.552   7.156  11.761  0.00  0.00    +0.000 A 
ATOM     25  S   UNL     1      43.129   6.365  11.241  0.00  0.00    +0.000 S 
ATOM     26  C   UNL     1      43.731   4.844  11.708  0.00  0.00    +0.000 A 
ATOM     27  N   UNL     1      42.985   3.715  11.561  0.00  0.00    +0.000 NA
ATOM     28  C   UNL     1      43.567   2.636  11.967  0.00  0.00    +0.000 A 
ATOM     29  N   UNL     1      44.829   2.578  12.500  0.00  0.00    +0.000 N 
ATOM     30  C   UNL     1      45.628   3.686  12.640  0.00  0.00    +0.000 A 
ATOM     31  O   UNL     1      46.783   3.587  13.039  0.00  0.00    +0.000 OA
ATOM     32  C   UNL     1      45.008   4.934  12.230  0.00  0.00    +0.000 A 
ATOM     33  H   UNL     1      45.242   1.695  12.761  0.00  0.00    +0.000 HD
ENDBRANCH  22  23
ENDBRANCH   1  22
TORSDOF 6
ENDMDL
MODEL 5
REMARK VINA RESULT:    -7.063      2.436      3.086
REMARK INTER + INTRA:         -10.510
REMARK INTER:                  -9.705
REMARK INTRA:                  -0.805
REMARK UNBOUND:                -0.969
REMARK  Name = 
REMARK  7 active torsions:
REMARK  status: ('A' for Active; 'I' for Inactive)
REMARK    1  A    between atoms: C_1  and  C_2
REMARK    2  A    between atoms: C_2  and  N_3
REMARK    3  A    between atoms: C_2  and  C_20
REMARK    4  A    between atoms: C_4  and  C_6
REMARK    5  A    between atoms: C_9  and  C_10
REMARK    6  A    between atoms: C_10  and  N_11
REMARK    7  A    between atoms: C_12  and  C_14
REMARK                            x       y       z     vdW  Elec       q    Type
REMARK                         _______ _______ _______ _____ _____    ______ ____
ROOT
ATOM      1  N   UNL     1      47.106   7.429  13.648  0.00  0.00    +0.000 N 
ATOM      2  C   UNL     1      46.978   6.140  13.184  0.00  0.00    +0.000 C 
ATOM      3  O   UNL     1      47.877   5.308  13.285  0.00  0.00    +0.000 OA
ATOM      4  H   UNL     1      46.239   7.936  13.796  0.00  0.00    +0.000 HD
ENDROOT
BRANCH   2   5
ATOM      5  C   UNL     1      45.689   5.854  12.415  0.00  0.00    +0.000 C 
ATOM      6  C   UNL     1      44.387   5.899  13.209  0.00  0.00    +0.000 C 
ATOM      7  C   UNL     1      43.397   5.037  12.418  0.00  0.00    +0.000 C 
ATOM      8  C   UNL     1      44.226   4.164  11.461  0.00  0.00    +0.000 C 
ATOM      9  C   UNL     1      45.679   4.425  11.867  0.00  0.00    +0.000 C 
BRANCH   8  10
ATOM     10  C   UNL     1      43.945   4.517   9.991  0.00  0.00    +0.000 C 
BRANCH  10  11
ATOM     11  N   UNL     1      44.998   4.071   9.101  0.00  0.00    +0.000 N 
ATOM     12  C   UNL     1      45.105   2.766   8.678  0.00  0.00    +0.000 C 
ATOM     13  O   UNL     1      44.290   1.898   8.992  0.00  0.00    +0.000 OA
ATOM     14  H   UNL     1      45.729   4.723   8.858  0.00  0.00    +0.000 HD
BRANCH  12  15
ATOM     15  C   UNL     1      46.239   2.479   7.838  0.00  0.00    +0.000 A 
ATOM     16  C   UNL     1      46.996   3.232   6.955  0.00  0.00    +0.000 A 
ATOM     17  C   UNL     1      47.969   2.342   6.454  0.00  0.00    +0.000 A 
ATOM     18  N   UNL     1      47.844   1.119   6.963  0.00  0.00    +0.000 NA
ATOM     19  N   UNL     1      46.793   1.226   7.795  0.00  0.00    +0.000 N 
ATOM     20  H   UNL     1      46.490   0.408   8.315  0.00  0.00    +0.000 HD
ENDBRANCH  12  15
ENDBRANCH  10  11
ENDBRANCH   8  10
ENDBRANCH   2   5
BRANCH   1  22
ATOM     21  C   UNL     1      47.926   8.863  15.516  0.00  0.00    +0.000 C 
ATOM     22  C   UNL     1      48.267   7.852  14.414  0.00  0.00    +0.000 C 
BRANCH  22  23
ATOM     23  C   UNL     1      49.337   8.437  13.505  0.00  0.00    +0.000 A 
ATOM     24  C   UNL     1      49.029   9.086  12.316  0.00  0.00    +0.000 A 
ATOM     25  S   UNL     1      50.404   9.494  11.387  0.00  0.00    +0.000 S 
ATOM     26  C   UNL     1      51.459   8.829  12.544  0.00  0.00    +0.000 A 
ATOM     27  N   UNL     1      52.806   8.824  12.350  0.00  0.00    +0.000 NA
ATOM     28  C   UNL     1      53.480   8.278  13.307  0.00  0.00    +0.000 A 
ATOM     29  N   UNL     1      52.934   7.743  14.445  0.00  0.00    +0.000 N 
ATOM     30  C   UNL     1      51.584   7.753  14.696  0.00  0.00    +0.000 A 
ATOM     31  O   UNL     1      51.136   7.345  15.762  0.00  0.00    +0.000 OA
ATOM     32  C   UNL     1      50.775   8.325  13.635  0.00  0.00    +0.000 A 
ATOM     33  H   UNL     1      53.520   7.367  15.174  0.00  0.00    +0.000 HD
ENDBRANCH  22  23
ENDBRANCH   1  22
TORSDOF 6
ENDMDL
MODEL 6
REMARK VINA RESULT:    -7.058      2.151      3.369
REMARK INTER + INTRA:         -10.503
REMARK INTER:                  -9.597
REMARK INTRA:                  -0.906
REMARK UNBOUND:                -0.969
REMARK  Name = 
REMARK  7 active torsions:
REMARK  status: ('A' for Active; 'I' for Inactive)
REMARK    1  A    between atoms: C_1  and  C_2
REMARK    2  A    between atoms: C_2  and  N_3
REMARK    3  A    between atoms: C_2  and  C_20
REMARK    4  A    between atoms: C_4  and  C_6
REMARK    5  A    between atoms: C_9  and  C_10
REMARK    6  A    between atoms: C_10  and  N_11
REMARK    7  A    between atoms: C_12  and  C_14
REMARK                            x       y       z     vdW  Elec       q    Type
REMARK                         _______ _______ _______ _____ _____    ______ ____
ROOT
ATOM      1  N   UNL     1      47.978   6.843  14.600  0.00  0.00    +0.000 N 
ATOM      2  C   UNL     1      47.770   7.094  13.264  0.00  0.00    +0.000 C 
ATOM      3  O   UNL     1      48.253   8.067  12.691  0.00  0.00    +0.000 OA
ATOM      4  H   UNL     1      47.806   5.890  14.905  0.00  0.00    +0.000 HD
ENDROOT
BRANCH   2   5
ATOM      5  C   UNL     1      46.787   6.149  12.573  0.00  0.00    +0.000 C 
ATOM      6  C   UNL     1      45.764   6.783  11.635  0.00  0.00    +0.000 C 
ATOM      7  C   UNL     1      44.602   5.787  11.566  0.00  0.00    +0.000 C 
ATOM      8  C   UNL     1      44.749   4.841  12.771  0.00  0.00    +0.000 C 
ATOM      9  C   UNL     1      45.891   5.443  13.592  0.00  0.00    +0.000 C 
BRANCH   8  10
ATOM     10  C   UNL     1      45.035   3.399  12.321  0.00  0.00    +0.000 C 
BRANCH  10  11
ATOM     11  N   UNL     1      45.551   3.330  10.968  0.00  0.00    +0.000 N 
ATOM     12  C   UNL     1      44.855   2.738   9.939  0.00  0.00    +0.000 C 
ATOM     13  O   UNL     1      43.728   2.264  10.088  0.00  0.00    +0.000 OA
ATOM     14  H   UNL     1      46.494   3.648  10.799  0.00  0.00    +0.000 HD
BRANCH  12  15
ATOM     15  C   UNL     1      45.534   2.708   8.670  0.00  0.00    +0.000 A 
ATOM     16  C   UNL     1      45.667   3.614   7.630  0.00  0.00    +0.000 A 
ATOM     17  C   UNL     1      46.467   2.957   6.672  0.00  0.00    +0.000 A 
ATOM     18  N   UNL     1      46.811   1.731   7.057  0.00  0.00    +0.000 NA
ATOM     19  N   UNL     1      46.236   1.602   8.265  0.00  0.00    +0.000 N 
ATOM     20  H   UNL     1      46.352   0.734   8.778  0.00  0.00    +0.000 HD
ENDBRANCH  12  15
ENDBRANCH  10  11
ENDBRANCH   8  10
ENDBRANCH   2   5
BRANCH   1  22
ATOM     21  C   UNL     1      50.373   7.323  15.107  0.00  0.00    +0.000 C 
ATOM     22  C   UNL     1      48.899   7.641  15.392  0.00  0.00    +0.000 C 
BRANCH  22  23
ATOM     23  C   UNL     1      48.625   7.477  16.879  0.00  0.00    +0.000 A 
ATOM     24  C   UNL     1      48.474   8.563  17.731  0.00  0.00    +0.000 A 
ATOM     25  S   UNL     1      48.353   8.125  19.378  0.00  0.00    +0.000 S 
ATOM     26  C   UNL     1      48.486   6.469  19.010  0.00  0.00    +0.000 A 
ATOM     27  N   UNL     1      48.483   5.526  19.992  0.00  0.00    +0.000 NA
ATOM     28  C   UNL     1      48.601   4.313  19.565  0.00  0.00    +0.000 A 
ATOM     29  N   UNL     1      48.715   3.952  18.247  0.00  0.00    +0.000 N 
ATOM     30  C   UNL     1      48.693   4.867  17.223  0.00  0.00    +0.000 A 
ATOM     31  O   UNL     1      48.710   4.505  16.051  0.00  0.00    +0.000 OA
ATOM     32  C   UNL     1      48.597   6.251  17.649  0.00  0.00    +0.000 A 
ATOM     33  H   UNL     1      48.763   2.982  17.977  0.00  0.00    +0.000 HD
ENDBRANCH  22  23
ENDBRANCH   1  22
TORSDOF 6
ENDMDL
MODEL 7
REMARK VINA RESULT:    -7.029      2.755      8.235
REMARK INTER + INTRA:         -10.464
REMARK INTER:                  -9.692
REMARK INTRA:                  -0.772
REMARK UNBOUND:                -0.969
REMARK  Name = 
REMARK  7 active torsions:
REMARK  status: ('A' for Active; 'I' for Inactive)
REMARK    1  A    between atoms: C_1  and  C_2
REMARK    2  A    between atoms: C_2  and  N_3
REMARK    3  A    between atoms: C_2  and  C_20
REMARK    4  A    between atoms: C_4  and  C_6
REMARK    5  A    between atoms: C_9  and  C_10
REMARK    6  A    between atoms: C_10  and  N_11
REMARK    7  A    between atoms: C_12  and  C_14
REMARK                            x       y       z     vdW  Elec       q    Type
REMARK                         _______ _______ _______ _____ _____    ______ ____
ROOT
ATOM      1  N   UNL     1      46.533   7.304  12.851  0.00  0.00    +0.000 N 
ATOM      2  C   UNL     1      47.893   7.501  12.783  0.00  0.00    +0.000 C 
ATOM      3  O   UNL     1      48.521   7.431  11.730  0.00  0.00    +0.000 OA
ATOM      4  H   UNL     1      46.072   7.672  13.677  0.00  0.00    +0.000 HD
ENDROOT
BRANCH   2   5
ATOM      5  C   UNL     1      48.589   7.681  14.133  0.00  0.00    +0.000 C 
ATOM      6  C   UNL     1      48.164   8.881  14.974  0.00  0.00    +0.000 C 
ATOM      7  C   UNL     1      49.346   9.165  15.906  0.00  0.00    +0.000 C 
ATOM      8  C   UNL     1      50.571   8.452  15.308  0.00  0.00    +0.000 C 
ATOM      9  C   UNL     1      50.087   7.934  13.952  0.00  0.00    +0.000 C 
BRANCH   8  10
ATOM     10  C   UNL     1      51.074   7.330  16.230  0.00  0.00    +0.000 C 
BRANCH  10  11
ATOM     11  N   UNL     1      50.131   6.235  16.338  0.00  0.00    +0.000 N 
ATOM     12  C   UNL     1      49.476   5.935  17.511  0.00  0.00    +0.000 C 
ATOM     13  O   UNL     1      49.614   6.602  18.536  0.00  0.00    +0.000 OA
ATOM     14  H   UNL     1      50.023   5.616  15.548  0.00  0.00    +0.000 HD
BRANCH  12  15
ATOM     15  C   UNL     1      48.614   4.783  17.460  0.00  0.00    +0.000 A 
ATOM     16  C   UNL     1      48.790   3.437  17.737  0.00  0.00    +0.000 A 
ATOM     17  C   UNL     1      47.537   2.842  17.480  0.00  0.00    +0.000 A 
ATOM     18  N   UNL     1      46.635   3.727  17.065  0.00  0.00    +0.000 NA
ATOM     19  N   UNL     1      47.307   4.890  17.059  0.00  0.00    +0.000 N 
ATOM     20  H   UNL     1      46.827   5.738  16.771  0.00  0.00    +0.000 HD
ENDBRANCH  12  15
ENDBRANCH  10  11
ENDBRANCH   8  10
ENDBRANCH   2   5
BRANCH   1  22
ATOM     21  C   UNL     1      44.823   8.339  11.361  0.00  0.00    +0.000 C 
ATOM     22  C   UNL     1      45.727   7.135  11.653  0.00  0.00    +0.000 C 
BRANCH  22  23
ATOM     23  C   UNL     1      44.879   5.875  11.739  0.00  0.00    +0.000 A 
ATOM     24  C   UNL     1      44.124   5.563  12.862  0.00  0.00    +0.000 A 
ATOM     25  S   UNL     1      43.404   4.015  12.789  0.00  0.00    +0.000 S 
ATOM     26  C   UNL     1      44.065   3.713  11.251  0.00  0.00    +0.000 A 
ATOM     27  N   UNL     1      43.854   2.529  10.613  0.00  0.00    +0.000 NA
ATOM     28  C   UNL     1      44.425   2.437   9.458  0.00  0.00    +0.000 A 
ATOM     29  N   UNL     1      45.182   3.422   8.877  0.00  0.00    +0.000 N 
ATOM     30  C   UNL     1      45.396   4.642   9.471  0.00  0.00    +0.000 A 
ATOM     31  O   UNL     1      46.005   5.531   8.886  0.00  0.00    +0.000 OA
ATOM     32  C   UNL     1      44.805   4.786  10.789  0.00  0.00    +0.000 A 
ATOM     33  H   UNL     1      45.567   3.302   7.953  0.00  0.00    +0.000 HD
ENDBRANCH  22  23
ENDBRANCH   1  22
TORSDOF 6
ENDMDL
MODEL 8
REMARK VINA RESULT:    -6.868      3.364      8.384
REMARK INTER + INTRA:         -10.246
REMARK INTER:                  -9.601
REMARK INTRA:                  -0.646
REMARK UNBOUND:                -0.969
REMARK  Name = 
REMARK  7 active torsions:
REMARK  status: ('A' for Active; 'I' for Inactive)
REMARK    1  A    between atoms: C_1  and  C_2
REMARK    2  A    between atoms: C_2  and  N_3
REMARK    3  A    between atoms: C_2  and  C_20
REMARK    4  A    between atoms: C_4  and  C_6
REMARK    5  A    between atoms: C_9  and  C_10
REMARK    6  A    between atoms: C_10  and  N_11
REMARK    7  A    between atoms: C_12  and  C_14
REMARK                            x       y       z     vdW  Elec       q    Type
REMARK                         _______ _______ _______ _____ _____    ______ ____
ROOT
ATOM      1  N   UNL     1      46.384   6.855  12.968  0.00  0.00    +0.000 N 
ATOM      2  C   UNL     1      47.364   7.797  13.180  0.00  0.00    +0.000 C 
ATOM      3  O   UNL     1      47.817   8.496  12.277  0.00  0.00    +0.000 OA
ATOM      4  H   UNL     1      45.872   6.554  13.791  0.00  0.00    +0.000 HD
ENDROOT
BRANCH   2   5
ATOM      5  C   UNL     1      47.946   7.818  14.594  0.00  0.00    +0.000 C 
ATOM      6  C   UNL     1      48.369   9.176  15.145  0.00  0.00    +0.000 C 
ATOM      7  C   UNL     1      49.406   8.870  16.232  0.00  0.00    +0.000 C 
ATOM      8  C   UNL     1      49.894   7.431  15.993  0.00  0.00    +0.000 C 
ATOM      9  C   UNL     1      49.252   7.024  14.665  0.00  0.00    +0.000 C 
BRANCH   8  10
ATOM     10  C   UNL     1      49.499   6.504  17.155  0.00  0.00    +0.000 C 
BRANCH  10  11
ATOM     11  N   UNL     1      50.325   5.315  17.223  0.00  0.00    +0.000 N 
ATOM     12  C   UNL     1      49.795   4.055  17.384  0.00  0.00    +0.000 C 
ATOM     13  O   UNL     1      48.583   3.848  17.438  0.00  0.00    +0.000 OA
ATOM     14  H   UNL     1      51.327   5.428  17.244  0.00  0.00    +0.000 HD
BRANCH  12  15
ATOM     15  C   UNL     1      50.757   2.988  17.484  0.00  0.00    +0.000 A 
ATOM     16  C   UNL     1      52.063   2.911  17.941  0.00  0.00    +0.000 A 
ATOM     17  C   UNL     1      52.436   1.563  17.761  0.00  0.00    +0.000 A 
ATOM     18  N   UNL     1      51.459   0.836  17.226  0.00  0.00    +0.000 NA
ATOM     19  N   UNL     1      50.456   1.718  17.067  0.00  0.00    +0.000 N 
ATOM     20  H   UNL     1      49.578   1.401  16.665  0.00  0.00    +0.000 HD
ENDBRANCH  12  15
ENDBRANCH  10  11
ENDBRANCH   8  10
ENDBRANCH   2   5
BRANCH   1  22
ATOM     21  C   UNL     1      44.786   7.897  11.361  0.00  0.00    +0.000 C 
ATOM     22  C   UNL     1      45.720   6.723  11.682  0.00  0.00    +0.000 C 
BRANCH  22  23
ATOM     23  C   UNL     1      44.939   5.420  11.603  0.00  0.00    +0.000 A 
ATOM     24  C   UNL     1      44.228   4.913  12.683  0.00  0.00    +0.000 A 
ATOM     25  S   UNL     1      43.584   3.355  12.404  0.00  0.00    +0.000 S 
ATOM     26  C   UNL     1      44.222   3.307  10.827  0.00  0.00    +0.000 A 
ATOM     27  N   UNL     1      44.056   2.215  10.032  0.00  0.00    +0.000 NA
ATOM     28  C   UNL     1      44.602   2.317   8.866  0.00  0.00    +0.000 A 
ATOM     29  N   UNL     1      45.294   3.412   8.417  0.00  0.00    +0.000 N 
ATOM     30  C   UNL     1      45.461   4.546   9.174  0.00  0.00    +0.000 A 
ATOM     31  O   UNL     1      46.010   5.540   8.711  0.00  0.00    +0.000 OA
ATOM     32  C   UNL     1      44.896   4.472  10.509  0.00  0.00    +0.000 A 
ATOM     33  H   UNL     1      45.662   3.444   7.479  0.00  0.00    +0.000 HD
ENDBRANCH  22  23
ENDBRANCH   1  22
TORSDOF 6
ENDMDL
MODEL 9
REMARK VINA RESULT:    -6.803      3.828      8.308
REMARK INTER + INTRA:         -10.159
REMARK INTER:                  -8.527
REMARK INTRA:                  -1.632
REMARK UNBOUND:                -0.969
REMARK  Name = 
REMARK  7 active torsions:
REMARK  status: ('A' for Active; 'I' for Inactive)
REMARK    1  A    between atoms: C_1  and  C_2
REMARK    2  A    between atoms: C_2  and  N_3
REMARK    3  A    between atoms: C_2  and  C_20
REMARK    4  A    between atoms: C_4  and  C_6
REMARK    5  A    between atoms: C_9  and  C_10
REMARK    6  A    between atoms: C_10  and  N_11
REMARK    7  A    between atoms: C_12  and  C_14
REMARK                            x       y       z     vdW  Elec       q    Type
REMARK                         _______ _______ _______ _____ _____    ______ ____
ROOT
ATOM      1  N   UNL     1      47.162   8.855  14.502  0.00  0.00    +0.000 N 
ATOM      2  C   UNL     1      48.291   9.098  15.248  0.00  0.00    +0.000 C 
ATOM      3  O   UNL     1      49.417   9.121  14.758  0.00  0.00    +0.000 OA
ATOM      4  H   UNL     1      46.284   9.151  14.916  0.00  0.00    +0.000 HD
ENDROOT
BRANCH   2   5
ATOM      5  C   UNL     1      48.060   9.205  16.756  0.00  0.00    +0.000 C 
ATOM      6  C   UNL     1      47.974  10.611  17.342  0.00  0.00    +0.000 C 
ATOM      7  C   UNL     1      48.337  10.458  18.823  0.00  0.00    +0.000 C 
ATOM      8  C   UNL     1      49.047   9.101  18.974  0.00  0.00    +0.000 C 
ATOM      9  C   UNL     1      49.229   8.604  17.538  0.00  0.00    +0.000 C 
BRANCH   8  10
ATOM     10  C   UNL     1      48.228   8.132  19.841  0.00  0.00    +0.000 C 
BRANCH  10  11
ATOM     11  N   UNL     1      47.853   6.927  19.126  0.00  0.00    +0.000 N 
ATOM     12  C   UNL     1      48.481   5.720  19.332  0.00  0.00    +0.000 C 
ATOM     13  O   UNL     1      49.373   5.570  20.166  0.00  0.00    +0.000 OA
ATOM     14  H   UNL     1      47.170   7.001  18.387  0.00  0.00    +0.000 HD
BRANCH  12  15
ATOM     15  C   UNL     1      48.023   4.636  18.501  0.00  0.00    +0.000 A 
ATOM     16  C   UNL     1      48.331   3.288  18.423  0.00  0.00    +0.000 A 
ATOM     17  C   UNL     1      47.519   2.785  17.386  0.00  0.00    +0.000 A 
ATOM     18  N   UNL     1      46.760   3.729  16.837  0.00  0.00    +0.000 NA
ATOM     19  N   UNL     1      47.081   4.838  17.525  0.00  0.00    +0.000 N 
ATOM     20  H   UNL     1      46.628   5.715  17.289  0.00  0.00    +0.000 HD
ENDBRANCH  12  15
ENDBRANCH  10  11
ENDBRANCH   8  10
ENDBRANCH   2   5
BRANCH   1  22
ATOM     21  C   UNL     1      46.895  10.063  12.336  0.00  0.00    +0.000 C 
ATOM     22  C   UNL     1      47.214   8.746  13.053  0.00  0.00    +0.000 C 
BRANCH  22  23
ATOM     23  C   UNL     1      46.276   7.658  12.554  0.00  0.00    +0.000 A 
ATOM     24  C   UNL     1      45.131   7.943  11.822  0.00  0.00    +0.000 A 
ATOM     25  S   UNL     1      44.150   6.574  11.531  0.00  0.00    +0.000 S 
ATOM     26  C   UNL     1      45.226   5.551  12.361  0.00  0.00    +0.000 A 
ATOM     27  N   UNL     1      44.965   4.224  12.510  0.00  0.00    +0.000 NA
ATOM     28  C   UNL     1      45.865   3.574  13.170  0.00  0.00    +0.000 A 
ATOM     29  N   UNL     1      47.007   4.125  13.690  0.00  0.00    +0.000 N 
ATOM     30  C   UNL     1      47.326   5.452  13.538  0.00  0.00    +0.000 A 
ATOM     31  O   UNL     1      48.397   5.895  13.940  0.00  0.00    +0.000 OA
ATOM     32  C   UNL     1      46.330   6.238  12.833  0.00  0.00    +0.000 A 
ATOM     33  H   UNL     1      47.691   3.553  14.161  0.00  0.00    +0.000 HD
ENDBRANCH  22  23
ENDBRANCH   1  22
TORSDOF 6
ENDMDL
