MODEL 1
REMARK VINA RESULT:    -8.443      0.000      0.000
REMARK INTER + INTRA:         -12.420
REMARK INTER:                 -11.404
REMARK INTRA:                  -1.015
REMARK UNBOUND:                -1.015
REMARK  Name = 
REMARK  6 active torsions:
REMARK  status: ('A' for Active; 'I' for Inactive)
REMARK    1  A    between atoms: C_2  and  C_25
REMARK    2  A    between atoms: N_3  and  C_4
REMARK    3  A    between atoms: C_4  and  C_5
REMARK    4  A    between atoms: C_8  and  C_9
REMARK    5  A    between atoms: C_9  and  N_10
REMARK    6  A    between atoms: C_11  and  C_13
REMARK                            x       y       z     vdW  Elec       q    Type
REMARK                         _______ _______ _______ _____ _____    ______ ____
ROOT
ATOM      1  C   UNL     1      45.057   6.377  11.247  0.00  0.00    +0.000 A 
ATOM      2  C   UNL     1      44.634   7.622  11.709  0.00  0.00    +0.000 A 
ATOM      3  C   UNL     1      45.448   8.330  12.594  0.00  0.00    +0.000 A 
ATOM      4  C   UNL     1      46.657   7.779  13.020  0.00  0.00    +0.000 A 
ATOM      5  C   UNL     1      47.004   6.537  12.498  0.00  0.00    +0.000 A 
ATOM      6  N   UNL     1      46.238   5.828  11.633  0.00  0.00    +0.000 NA
ENDROOT
BRANCH   1   7
ATOM      7  C   UNL     1      44.207   5.595  10.269  0.00  0.00    +0.000 C 
BRANCH   7  10
ATOM      8  O   UNL     1      44.006   2.774  10.002  0.00  0.00    +0.000 OA
ATOM      9  C   UNL     1      44.806   3.393   9.305  0.00  0.00    +0.000 C 
ATOM     10  N   UNL     1      44.977   4.756   9.376  0.00  0.00    +0.000 N 
ATOM     11  H   UNL     1      45.702   5.168   8.797  0.00  0.00    +0.000 HD
BRANCH   9  12
ATOM     12  C   UNL     1      45.658   2.691   8.289  0.00  0.00    +0.000 A 
ATOM     13  C   UNL     1      46.081   3.381   7.158  0.00  0.00    +0.000 A 
ATOM     14  C   UNL     1      46.886   2.715   6.239  0.00  0.00    +0.000 A 
ATOM     15  C   UNL     1      47.240   1.392   6.480  0.00  0.00    +0.000 A 
ATOM     16  C   UNL     1      46.775   0.783   7.637  0.00  0.00    +0.000 A 
ATOM     17  N   UNL     1      45.992   1.397   8.553  0.00  0.00    +0.000 NA
ENDBRANCH   9  12
ENDBRANCH   7  10
ENDBRANCH   1   7
BRANCH   4  18
ATOM     18  C   UNL     1      47.563   8.507  13.970  0.00  0.00    +0.000 C 
BRANCH  18  19
ATOM     19  N   UNL     1      47.900   7.686  15.105  0.00  0.00    +0.000 N 
ATOM     20  C   UNL     1      49.110   7.042  15.189  0.00  0.00    +0.000 C 
ATOM     21  O   UNL     1      49.979   7.178  14.335  0.00  0.00    +0.000 OA
ATOM     22  H   UNL     1      47.131   7.367  15.685  0.00  0.00    +0.000 HD
BRANCH  20  23
ATOM     23  C   UNL     1      49.335   6.229  16.394  0.00  0.00    +0.000 A 
ATOM     24  C   UNL     1      50.366   6.558  17.263  0.00  0.00    +0.000 A 
ATOM     25  S   UNL     1      50.450   5.552  18.639  0.00  0.00    +0.000 S 
ATOM     26  C   UNL     1      49.143   4.607  18.094  0.00  0.00    +0.000 A 
ATOM     27  N   UNL     1      48.705   3.540  18.813  0.00  0.00    +0.000 NA
ATOM     28  C   UNL     1      47.729   2.894  18.267  0.00  0.00    +0.000 A 
ATOM     29  N   UNL     1      47.150   3.222  17.069  0.00  0.00    +0.000 N 
ATOM     30  C   UNL     1      47.540   4.307  16.322  0.00  0.00    +0.000 A 
ATOM     31  O   UNL     1      46.974   4.596  15.274  0.00  0.00    +0.000 OA
ATOM     32  C   UNL     1      48.642   5.063  16.888  0.00  0.00    +0.000 A 
ATOM     33  H   UNL     1      46.383   2.678  16.698  0.00  0.00    +0.000 HD
ENDBRANCH  20  23
ENDBRANCH  18  19
ENDBRANCH   4  18
TORSDOF 6
ENDMDL
MODEL 2
REMARK VINA RESULT:    -7.586      1.972      2.511
REMARK INTER + INTRA:         -11.261
REMARK INTER:                 -10.319
REMARK INTRA:                  -0.943
REMARK UNBOUND:                -1.015
REMARK  Name = 
REMARK  6 active torsions:
REMARK  status: ('A' for Active; 'I' for Inactive)
REMARK    1  A    between atoms: C_2  and  C_25
REMARK    2  A    between atoms: N_3  and  C_4
REMARK    3  A    between atoms: C_4  and  C_5
REMARK    4  A    between atoms: C_8  and  C_9
REMARK    5  A    between atoms: C_9  and  N_10
REMARK    6  A    between atoms: C_11  and  C_13
REMARK                            x       y       z     vdW  Elec       q    Type
REMARK                         _______ _______ _______ _____ _____    ______ ____
ROOT
ATOM      1  C   UNL     1      44.962   5.209  11.921  0.00  0.00    +0.000 A 
ATOM      2  C   UNL     1      45.996   5.176  12.856  0.00  0.00    +0.000 A 
ATOM      3  C   UNL     1      46.544   6.378  13.305  0.00  0.00    +0.000 A 
ATOM      4  C   UNL     1      46.070   7.590  12.801  0.00  0.00    +0.000 A 
ATOM      5  C   UNL     1      45.029   7.528  11.881  0.00  0.00    +0.000 A 
ATOM      6  N   UNL     1      44.472   6.377  11.430  0.00  0.00    +0.000 NA
ENDROOT
BRANCH   1   7
ATOM      7  C   UNL     1      44.332   3.923  11.432  0.00  0.00    +0.000 C 
BRANCH   7  10
ATOM      8  O   UNL     1      44.014   4.420   8.654  0.00  0.00    +0.000 OA
ATOM      9  C   UNL     1      44.852   3.605   9.031  0.00  0.00    +0.000 C 
ATOM     10  N   UNL     1      45.065   3.294  10.354  0.00  0.00    +0.000 N 
ATOM     11  H   UNL     1      45.743   2.567  10.562  0.00  0.00    +0.000 HD
BRANCH   9  12
ATOM     12  C   UNL     1      45.737   2.888   8.053  0.00  0.00    +0.000 A 
ATOM     13  C   UNL     1      46.114   1.575   8.309  0.00  0.00    +0.000 A 
ATOM     14  C   UNL     1      46.919   0.924   7.379  0.00  0.00    +0.000 A 
ATOM     15  C   UNL     1      47.316   1.604   6.232  0.00  0.00    +0.000 A 
ATOM     16  C   UNL     1      46.890   2.913   6.057  0.00  0.00    +0.000 A 
ATOM     17  N   UNL     1      46.107   3.577   6.938  0.00  0.00    +0.000 NA
ENDBRANCH   9  12
ENDBRANCH   7  10
ENDBRANCH   1   7
BRANCH   4  18
ATOM     18  C   UNL     1      46.630   8.905  13.258  0.00  0.00    +0.000 C 
BRANCH  18  19
ATOM     19  N   UNL     1      47.043   8.848  14.637  0.00  0.00    +0.000 N 
ATOM     20  C   UNL     1      48.365   8.948  14.994  0.00  0.00    +0.000 C 
ATOM     21  O   UNL     1      49.248   9.147  14.167  0.00  0.00    +0.000 OA
ATOM     22  H   UNL     1      46.384   8.447  15.297  0.00  0.00    +0.000 HD
BRANCH  20  23
ATOM     23  C   UNL     1      48.662   8.869  16.432  0.00  0.00    +0.000 A 
ATOM     24  C   UNL     1      48.676  10.028  17.196  0.00  0.00    +0.000 A 
ATOM     25  S   UNL     1      48.975   9.752  18.854  0.00  0.00    +0.000 S 
ATOM     26  C   UNL     1      49.151   8.079  18.599  0.00  0.00    +0.000 A 
ATOM     27  N   UNL     1      49.444   7.242  19.630  0.00  0.00    +0.000 NA
ATOM     28  C   UNL     1      49.580   6.003  19.289  0.00  0.00    +0.000 A 
ATOM     29  N   UNL     1      49.446   5.527  18.011  0.00  0.00    +0.000 N 
ATOM     30  C   UNL     1      49.124   6.330  16.944  0.00  0.00    +0.000 A 
ATOM     31  O   UNL     1      48.972   5.865  15.819  0.00  0.00    +0.000 OA
ATOM     32  C   UNL     1      48.968   7.735  17.271  0.00  0.00    +0.000 A 
ATOM     33  H   UNL     1      49.560   4.544  17.810  0.00  0.00    +0.000 HD
ENDBRANCH  20  23
ENDBRANCH  18  19
ENDBRANCH   4  18
TORSDOF 6
ENDMDL
MODEL 3
REMARK VINA RESULT:    -7.489      2.047      2.547
REMARK INTER + INTRA:         -11.131
REMARK INTER:                 -10.258
REMARK INTRA:                  -0.874
REMARK UNBOUND:                -1.015
REMARK  Name = 
REMARK  6 active torsions:
REMARK  status: ('A' for Active; 'I' for Inactive)
REMARK    1  A    between atoms: C_2  and  C_25
REMARK    2  A    between atoms: N_3  and  C_4
REMARK    3  A    between atoms: C_4  and  C_5
REMARK    4  A    between atoms: C_8  and  C_9
REMARK    5  A    between atoms: C_9  and  N_10
REMARK    6  A    between atoms: C_11  and  C_13
REMARK                            x       y       z     vdW  Elec       q    Type
REMARK                         _______ _______ _______ _____ _____    ______ ____
ROOT
ATOM      1  C   UNL     1      45.460   6.371  11.370  0.00  0.00    +0.000 A 
ATOM      2  C   UNL     1      46.844   6.271  11.241  0.00  0.00    +0.000 A 
ATOM      3  C   UNL     1      47.662   6.990  12.113  0.00  0.00    +0.000 A 
ATOM      4  C   UNL     1      47.090   7.814  13.083  0.00  0.00    +0.000 A 
ATOM      5  C   UNL     1      45.701   7.843  13.147  0.00  0.00    +0.000 A 
ATOM      6  N   UNL     1      44.880   7.152  12.319  0.00  0.00    +0.000 NA
ENDROOT
BRANCH   1   7
ATOM      7  C   UNL     1      44.548   5.585  10.454  0.00  0.00    +0.000 C 
BRANCH   7  10
ATOM      8  O   UNL     1      43.976   2.875   9.825  0.00  0.00    +0.000 OA
ATOM      9  C   UNL     1      44.905   3.446   9.258  0.00  0.00    +0.000 C 
ATOM     10  N   UNL     1      45.258   4.751   9.509  0.00  0.00    +0.000 N 
ATOM     11  H   UNL     1      46.075   5.116   9.028  0.00  0.00    +0.000 HD
BRANCH   9  12
ATOM     12  C   UNL     1      45.724   2.748   8.212  0.00  0.00    +0.000 A 
ATOM     13  C   UNL     1      46.055   3.421   7.042  0.00  0.00    +0.000 A 
ATOM     14  C   UNL     1      46.832   2.762   6.095  0.00  0.00    +0.000 A 
ATOM     15  C   UNL     1      47.250   1.459   6.348  0.00  0.00    +0.000 A 
ATOM     16  C   UNL     1      46.875   0.866   7.546  0.00  0.00    +0.000 A 
ATOM     17  N   UNL     1      46.123   1.475   8.490  0.00  0.00    +0.000 NA
ENDBRANCH   9  12
ENDBRANCH   7  10
ENDBRANCH   1   7
BRANCH   4  18
ATOM     18  C   UNL     1      47.932   8.603  14.042  0.00  0.00    +0.000 C 
BRANCH  18  19
ATOM     19  N   UNL     1      47.868   8.051  15.372  0.00  0.00    +0.000 N 
ATOM     20  C   UNL     1      48.790   7.131  15.810  0.00  0.00    +0.000 C 
ATOM     21  O   UNL     1      49.738   6.780  15.116  0.00  0.00    +0.000 OA
ATOM     22  H   UNL     1      46.983   8.132  15.861  0.00  0.00    +0.000 HD
BRANCH  20  23
ATOM     23  C   UNL     1      48.617   6.636  17.184  0.00  0.00    +0.000 A 
ATOM     24  C   UNL     1      48.840   5.295  17.464  0.00  0.00    +0.000 A 
ATOM     25  S   UNL     1      48.655   4.901  19.114  0.00  0.00    +0.000 S 
ATOM     26  C   UNL     1      48.219   6.498  19.503  0.00  0.00    +0.000 A 
ATOM     27  N   UNL     1      47.904   6.846  20.780  0.00  0.00    +0.000 NA
ATOM     28  C   UNL     1      47.560   8.083  20.926  0.00  0.00    +0.000 A 
ATOM     29  N   UNL     1      47.507   9.003  19.911  0.00  0.00    +0.000 N 
ATOM     30  C   UNL     1      47.844   8.705  18.613  0.00  0.00    +0.000 A 
ATOM     31  O   UNL     1      47.824   9.561  17.736  0.00  0.00    +0.000 OA
ATOM     32  C   UNL     1      48.229   7.323  18.392  0.00  0.00    +0.000 A 
ATOM     33  H   UNL     1      47.236   9.959  20.093  0.00  0.00    +0.000 HD
ENDBRANCH  20  23
ENDBRANCH  18  19
ENDBRANCH   4  18
TORSDOF 6
ENDMDL
MODEL 4
REMARK VINA RESULT:    -7.312      2.053      2.876
REMARK INTER + INTRA:         -10.892
REMARK INTER:                  -9.913
REMARK INTRA:                  -0.980
REMARK UNBOUND:                -1.015
REMARK  Name = 
REMARK  6 active torsions:
REMARK  status: ('A' for Active; 'I' for Inactive)
REMARK    1  A    between atoms: C_2  and  C_25
REMARK    2  A    between atoms: N_3  and  C_4
REMARK    3  A    between atoms: C_4  and  C_5
REMARK    4  A    between atoms: C_8  and  C_9
REMARK    5  A    between atoms: C_9  and  N_10
REMARK    6  A    between atoms: C_11  and  C_13
REMARK                            x       y       z     vdW  Elec       q    Type
REMARK                         _______ _______ _______ _____ _____    ______ ____
ROOT
ATOM      1  C   UNL     1      45.089   6.176  11.562  0.00  0.00    +0.000 A 
ATOM      2  C   UNL     1      46.083   5.560  12.321  0.00  0.00    +0.000 A 
ATOM      3  C   UNL     1      46.858   6.335  13.184  0.00  0.00    +0.000 A 
ATOM      4  C   UNL     1      46.647   7.712  13.261  0.00  0.00    +0.000 A 
ATOM      5  C   UNL     1      45.626   8.239  12.478  0.00  0.00    +0.000 A 
ATOM      6  N   UNL     1      44.853   7.512  11.635  0.00  0.00    +0.000 NA
ENDROOT
BRANCH   1   7
ATOM      7  C   UNL     1      44.218   5.358  10.634  0.00  0.00    +0.000 C 
BRANCH   7  10
ATOM      8  O   UNL     1      44.218   2.551  10.196  0.00  0.00    +0.000 OA
ATOM      9  C   UNL     1      44.896   3.278   9.474  0.00  0.00    +0.000 C 
ATOM     10  N   UNL     1      44.964   4.643   9.622  0.00  0.00    +0.000 N 
ATOM     11  H   UNL     1      45.596   5.150   9.009  0.00  0.00    +0.000 HD
BRANCH   9  12
ATOM     12  C   UNL     1      45.702   2.714   8.340  0.00  0.00    +0.000 A 
ATOM     13  C   UNL     1      46.012   3.524   7.253  0.00  0.00    +0.000 A 
ATOM     14  C   UNL     1      46.776   2.985   6.222  0.00  0.00    +0.000 A 
ATOM     15  C   UNL     1      47.202   1.664   6.312  0.00  0.00    +0.000 A 
ATOM     16  C   UNL     1      46.848   0.930   7.436  0.00  0.00    +0.000 A 
ATOM     17  N   UNL     1      46.108   1.419   8.457  0.00  0.00    +0.000 NA
ENDBRANCH   9  12
ENDBRANCH   7  10
ENDBRANCH   1   7
BRANCH   4  18
ATOM     18  C   UNL     1      47.456   8.583  14.177  0.00  0.00    +0.000 C 
BRANCH  18  19
ATOM     19  N   UNL     1      48.415   7.808  14.924  0.00  0.00    +0.000 N 
ATOM     20  C   UNL     1      48.688   8.084  16.241  0.00  0.00    +0.000 C 
ATOM     21  O   UNL     1      48.092   8.960  16.859  0.00  0.00    +0.000 OA
ATOM     22  H   UNL     1      49.080   7.261  14.388  0.00  0.00    +0.000 HD
BRANCH  20  23
ATOM     23  C   UNL     1      49.690   7.228  16.894  0.00  0.00    +0.000 A 
ATOM     24  C   UNL     1      49.363   6.558  18.066  0.00  0.00    +0.000 A 
ATOM     25  S   UNL     1      50.616   5.562  18.657  0.00  0.00    +0.000 S 
ATOM     26  C   UNL     1      51.658   6.032  17.396  0.00  0.00    +0.000 A 
ATOM     27  N   UNL     1      52.927   5.549  17.321  0.00  0.00    +0.000 NA
ATOM     28  C   UNL     1      53.617   6.014  16.333  0.00  0.00    +0.000 A 
ATOM     29  N   UNL     1      53.151   6.916  15.412  0.00  0.00    +0.000 N 
ATOM     30  C   UNL     1      51.869   7.409  15.432  0.00  0.00    +0.000 A 
ATOM     31  O   UNL     1      51.471   8.185  14.569  0.00  0.00    +0.000 OA
ATOM     32  C   UNL     1      51.053   6.925  16.530  0.00  0.00    +0.000 A 
ATOM     33  H   UNL     1      53.741   7.237  14.658  0.00  0.00    +0.000 HD
ENDBRANCH  20  23
ENDBRANCH  18  19
ENDBRANCH   4  18
TORSDOF 6
ENDMDL
MODEL 5
REMARK VINA RESULT:    -7.121      3.314      4.623
REMARK INTER + INTRA:         -10.634
REMARK INTER:                  -9.535
REMARK INTRA:                  -1.099
REMARK UNBOUND:                -1.015
REMARK  Name = 
REMARK  6 active torsions:
REMARK  status: ('A' for Active; 'I' for Inactive)
REMARK    1  A    between atoms: C_2  and  C_25
REMARK    2  A    between atoms: N_3  and  C_4
REMARK    3  A    between atoms: C_4  and  C_5
REMARK    4  A    between atoms: C_8  and  C_9
REMARK    5  A    between atoms: C_9  and  N_10
REMARK    6  A    between atoms: C_11  and  C_13
REMARK                            x       y       z     vdW  Elec       q    Type
REMARK                         _______ _______ _______ _____ _____    ______ ____
ROOT
ATOM      1  C   UNL     1      45.186   6.009  11.655  0.00  0.00    +0.000 A 
ATOM      2  C   UNL     1      46.323   5.594  12.346  0.00  0.00    +0.000 A 
ATOM      3  C   UNL     1      47.033   6.523  13.106  0.00  0.00    +0.000 A 
ATOM      4  C   UNL     1      46.613   7.854  13.148  0.00  0.00    +0.000 A 
ATOM      5  C   UNL     1      45.462   8.175  12.437  0.00  0.00    +0.000 A 
ATOM      6  N   UNL     1      44.748   7.294  11.695  0.00  0.00    +0.000 NA
ENDROOT
BRANCH   1   7
ATOM      7  C   UNL     1      44.383   5.018  10.840  0.00  0.00    +0.000 C 
BRANCH   7  10
ATOM      8  O   UNL     1      43.977   2.401   9.813  0.00  0.00    +0.000 OA
ATOM      9  C   UNL     1      44.875   3.101   9.351  0.00  0.00    +0.000 C 
ATOM     10  N   UNL     1      45.149   4.374   9.796  0.00  0.00    +0.000 N 
ATOM     11  H   UNL     1      45.947   4.851   9.387  0.00  0.00    +0.000 HD
BRANCH   9  12
ATOM     12  C   UNL     1      45.743   2.612   8.228  0.00  0.00    +0.000 A 
ATOM     13  C   UNL     1      46.010   3.454   7.155  0.00  0.00    +0.000 A 
ATOM     14  C   UNL     1      46.833   2.987   6.135  0.00  0.00    +0.000 A 
ATOM     15  C   UNL     1      47.359   1.702   6.222  0.00  0.00    +0.000 A 
ATOM     16  C   UNL     1      47.041   0.931   7.332  0.00  0.00    +0.000 A 
ATOM     17  N   UNL     1      46.246   1.352   8.343  0.00  0.00    +0.000 NA
ENDBRANCH   9  12
ENDBRANCH   7  10
ENDBRANCH   1   7
BRANCH   4  18
ATOM     18  C   UNL     1      47.346   8.886  13.954  0.00  0.00    +0.000 C 
BRANCH  18  19
ATOM     19  N   UNL     1      48.698   9.053  13.485  0.00  0.00    +0.000 N 
ATOM     20  C   UNL     1      49.772   8.628  14.229  0.00  0.00    +0.000 C 
ATOM     21  O   UNL     1      49.631   8.039  15.296  0.00  0.00    +0.000 OA
ATOM     22  H   UNL     1      48.849   9.736  12.750  0.00  0.00    +0.000 HD
BRANCH  20  23
ATOM     23  C   UNL     1      51.103   8.859  13.648  0.00  0.00    +0.000 A 
ATOM     24  C   UNL     1      52.066   9.536  14.384  0.00  0.00    +0.000 A 
ATOM     25  S   UNL     1      53.571   9.664  13.588  0.00  0.00    +0.000 S 
ATOM     26  C   UNL     1      52.971   8.865  12.210  0.00  0.00    +0.000 A 
ATOM     27  N   UNL     1      53.761   8.659  11.122  0.00  0.00    +0.000 NA
ATOM     28  C   UNL     1      53.168   8.071  10.137  0.00  0.00    +0.000 A 
ATOM     29  N   UNL     1      51.858   7.666  10.144  0.00  0.00    +0.000 N 
ATOM     30  C   UNL     1      51.032   7.827  11.229  0.00  0.00    +0.000 A 
ATOM     31  O   UNL     1      49.876   7.419  11.217  0.00  0.00    +0.000 OA
ATOM     32  C   UNL     1      51.647   8.494  12.362  0.00  0.00    +0.000 A 
ATOM     33  H   UNL     1      51.455   7.205   9.341  0.00  0.00    +0.000 HD
ENDBRANCH  20  23
ENDBRANCH  18  19
ENDBRANCH   4  18
TORSDOF 6
ENDMDL
MODEL 6
REMARK VINA RESULT:    -6.979      3.138      8.584
REMARK INTER + INTRA:         -10.443
REMARK INTER:                  -9.515
REMARK INTRA:                  -0.928
REMARK UNBOUND:                -1.015
REMARK  Name = 
REMARK  6 active torsions:
REMARK  status: ('A' for Active; 'I' for Inactive)
REMARK    1  A    between atoms: C_2  and  C_25
REMARK    2  A    between atoms: N_3  and  C_4
REMARK    3  A    between atoms: C_4  and  C_5
REMARK    4  A    between atoms: C_8  and  C_9
REMARK    5  A    between atoms: C_9  and  N_10
REMARK    6  A    between atoms: C_11  and  C_13
REMARK                            x       y       z     vdW  Elec       q    Type
REMARK                         _______ _______ _______ _____ _____    ______ ____
ROOT
ATOM      1  C   UNL     1      49.595   7.604  15.517  0.00  0.00    +0.000 A 
ATOM      2  C   UNL     1      49.355   8.863  14.970  0.00  0.00    +0.000 A 
ATOM      3  C   UNL     1      48.549   8.969  13.836  0.00  0.00    +0.000 A 
ATOM      4  C   UNL     1      48.013   7.819  13.254  0.00  0.00    +0.000 A 
ATOM      5  C   UNL     1      48.295   6.607  13.874  0.00  0.00    +0.000 A 
ATOM      6  N   UNL     1      49.070   6.473  14.979  0.00  0.00    +0.000 NA
ENDROOT
BRANCH   1   7
ATOM      7  C   UNL     1      50.447   7.460  16.760  0.00  0.00    +0.000 C 
BRANCH   7  10
ATOM      8  O   UNL     1      49.561   5.432  18.541  0.00  0.00    +0.000 OA
ATOM      9  C   UNL     1      50.517   5.214  17.801  0.00  0.00    +0.000 C 
ATOM     10  N   UNL     1      51.019   6.140  16.917  0.00  0.00    +0.000 N 
ATOM     11  H   UNL     1      51.847   5.883  16.389  0.00  0.00    +0.000 HD
BRANCH   9  12
ATOM     12  C   UNL     1      51.208   3.882  17.796  0.00  0.00    +0.000 A 
ATOM     13  C   UNL     1      50.509   2.750  17.391  0.00  0.00    +0.000 A 
ATOM     14  C   UNL     1      51.176   1.529  17.376  0.00  0.00    +0.000 A 
ATOM     15  C   UNL     1      52.511   1.480  17.764  0.00  0.00    +0.000 A 
ATOM     16  C   UNL     1      53.131   2.660  18.151  0.00  0.00    +0.000 A 
ATOM     17  N   UNL     1      52.516   3.865  18.177  0.00  0.00    +0.000 NA
ENDBRANCH   9  12
ENDBRANCH   7  10
ENDBRANCH   1   7
BRANCH   4  18
ATOM     18  C   UNL     1      47.140   7.888  12.035  0.00  0.00    +0.000 C 
BRANCH  18  19
ATOM     19  N   UNL     1      46.548   6.607  11.743  0.00  0.00    +0.000 N 
ATOM     20  C   UNL     1      45.186   6.450  11.655  0.00  0.00    +0.000 C 
ATOM     21  O   UNL     1      44.415   7.397  11.763  0.00  0.00    +0.000 OA
ATOM     22  H   UNL     1      47.129   5.788  11.891  0.00  0.00    +0.000 HD
BRANCH  20  23
ATOM     23  C   UNL     1      44.702   5.094  11.357  0.00  0.00    +0.000 A 
ATOM     24  C   UNL     1      43.930   4.419  12.293  0.00  0.00    +0.000 A 
ATOM     25  S   UNL     1      43.400   2.885  11.766  0.00  0.00    +0.000 S 
ATOM     26  C   UNL     1      44.229   3.047  10.289  0.00  0.00    +0.000 A 
ATOM     27  N   UNL     1      44.206   2.052   9.361  0.00  0.00    +0.000 NA
ATOM     28  C   UNL     1      44.904   2.295   8.302  0.00  0.00    +0.000 A 
ATOM     29  N   UNL     1      45.620   3.444   8.085  0.00  0.00    +0.000 N 
ATOM     30  C   UNL     1      45.650   4.486   8.980  0.00  0.00    +0.000 A 
ATOM     31  O   UNL     1      46.268   5.516   8.738  0.00  0.00    +0.000 OA
ATOM     32  C   UNL     1      44.888   4.260  10.194  0.00  0.00    +0.000 A 
ATOM     33  H   UNL     1      46.142   3.575   7.231  0.00  0.00    +0.000 HD
ENDBRANCH  20  23
ENDBRANCH  18  19
ENDBRANCH   4  18
TORSDOF 6
ENDMDL
MODEL 7
REMARK VINA RESULT:    -6.923      3.603      8.374
REMARK INTER + INTRA:         -10.366
REMARK INTER:                  -9.450
REMARK INTRA:                  -0.916
REMARK UNBOUND:                -1.015
REMARK  Name = 
REMARK  6 active torsions:
REMARK  status: ('A' for Active; 'I' for Inactive)
REMARK    1  A    between atoms: C_2  and  C_25
REMARK    2  A    between atoms: N_3  and  C_4
REMARK    3  A    between atoms: C_4  and  C_5
REMARK    4  A    between atoms: C_8  and  C_9
REMARK    5  A    between atoms: C_9  and  N_10
REMARK    6  A    between atoms: C_11  and  C_13
REMARK                            x       y       z     vdW  Elec       q    Type
REMARK                         _______ _______ _______ _____ _____    ______ ____
ROOT
ATOM      1  C   UNL     1      49.498   6.574  16.162  0.00  0.00    +0.000 A 
ATOM      2  C   UNL     1      50.237   7.566  15.521  0.00  0.00    +0.000 A 
ATOM      3  C   UNL     1      49.882   7.950  14.227  0.00  0.00    +0.000 A 
ATOM      4  C   UNL     1      48.812   7.324  13.586  0.00  0.00    +0.000 A 
ATOM      5  C   UNL     1      48.124   6.353  14.306  0.00  0.00    +0.000 A 
ATOM      6  N   UNL     1      48.441   5.964  15.565  0.00  0.00    +0.000 NA
ENDROOT
BRANCH   1   7
ATOM      7  C   UNL     1      49.845   6.154  17.574  0.00  0.00    +0.000 C 
BRANCH   7  10
ATOM      8  O   UNL     1      49.378   3.369  17.882  0.00  0.00    +0.000 OA
ATOM      9  C   UNL     1      50.530   3.783  17.777  0.00  0.00    +0.000 C 
ATOM     10  N   UNL     1      50.848   5.113  17.637  0.00  0.00    +0.000 N 
ATOM     11  H   UNL     1      51.833   5.360  17.613  0.00  0.00    +0.000 HD
BRANCH   9  12
ATOM     12  C   UNL     1      51.698   2.840  17.776  0.00  0.00    +0.000 A 
ATOM     13  C   UNL     1      51.507   1.517  17.393  0.00  0.00    +0.000 A 
ATOM     14  C   UNL     1      52.608   0.666  17.380  0.00  0.00    +0.000 A 
ATOM     15  C   UNL     1      53.854   1.163  17.748  0.00  0.00    +0.000 A 
ATOM     16  C   UNL     1      53.952   2.498  18.114  0.00  0.00    +0.000 A 
ATOM     17  N   UNL     1      52.906   3.355  18.137  0.00  0.00    +0.000 NA
ENDBRANCH   9  12
ENDBRANCH   7  10
ENDBRANCH   1   7
BRANCH   4  18
ATOM     18  C   UNL     1      48.395   7.706  12.195  0.00  0.00    +0.000 C 
BRANCH  18  19
ATOM     19  N   UNL     1      47.639   6.652  11.568  0.00  0.00    +0.000 N 
ATOM     20  C   UNL     1      46.278   6.749  11.402  0.00  0.00    +0.000 C 
ATOM     21  O   UNL     1      45.654   7.753  11.725  0.00  0.00    +0.000 OA
ATOM     22  H   UNL     1      48.076   5.738  11.520  0.00  0.00    +0.000 HD
BRANCH  20  23
ATOM     23  C   UNL     1      45.616   5.607  10.754  0.00  0.00    +0.000 A 
ATOM     24  C   UNL     1      45.694   5.459   9.375  0.00  0.00    +0.000 A 
ATOM     25  S   UNL     1      44.925   4.051   8.794  0.00  0.00    +0.000 S 
ATOM     26  C   UNL     1      44.416   3.617  10.358  0.00  0.00    +0.000 A 
ATOM     27  N   UNL     1      43.675   2.496  10.567  0.00  0.00    +0.000 NA
ATOM     28  C   UNL     1      43.330   2.306  11.797  0.00  0.00    +0.000 A 
ATOM     29  N   UNL     1      43.663   3.134  12.837  0.00  0.00    +0.000 N 
ATOM     30  C   UNL     1      44.433   4.261  12.679  0.00  0.00    +0.000 A 
ATOM     31  O   UNL     1      44.746   4.959  13.637  0.00  0.00    +0.000 OA
ATOM     32  C   UNL     1      44.839   4.526  11.311  0.00  0.00    +0.000 A 
ATOM     33  H   UNL     1      43.366   2.925  13.780  0.00  0.00    +0.000 HD
ENDBRANCH  20  23
ENDBRANCH  18  19
ENDBRANCH   4  18
TORSDOF 6
ENDMDL
MODEL 8
REMARK VINA RESULT:    -6.786      3.633      4.976
REMARK INTER + INTRA:         -10.181
REMARK INTER:                  -9.377
REMARK INTRA:                  -0.804
REMARK UNBOUND:                -1.015
REMARK  Name = 
REMARK  6 active torsions:
REMARK  status: ('A' for Active; 'I' for Inactive)
REMARK    1  A    between atoms: C_2  and  C_25
REMARK    2  A    between atoms: N_3  and  C_4
REMARK    3  A    between atoms: C_4  and  C_5
REMARK    4  A    between atoms: C_8  and  C_9
REMARK    5  A    between atoms: C_9  and  N_10
REMARK    6  A    between atoms: C_11  and  C_13
REMARK                            x       y       z     vdW  Elec       q    Type
REMARK                         _______ _______ _______ _____ _____    ______ ____
ROOT
ATOM      1  C   UNL     1      47.335   5.719  14.350  0.00  0.00    +0.000 A 
ATOM      2  C   UNL     1      46.827   4.494  14.780  0.00  0.00    +0.000 A 
ATOM      3  C   UNL     1      47.339   3.915  15.941  0.00  0.00    +0.000 A 
ATOM      4  C   UNL     1      48.362   4.554  16.643  0.00  0.00    +0.000 A 
ATOM      5  C   UNL     1      48.799   5.778  16.149  0.00  0.00    +0.000 A 
ATOM      6  N   UNL     1      48.317   6.368  15.027  0.00  0.00    +0.000 NA
ENDROOT
BRANCH   1   7
ATOM      7  C   UNL     1      46.783   6.381  13.106  0.00  0.00    +0.000 C 
BRANCH   7  10
ATOM      8  O   UNL     1      44.795   6.727  11.107  0.00  0.00    +0.000 OA
ATOM      9  C   UNL     1      45.470   5.701  11.119  0.00  0.00    +0.000 C 
ATOM     10  N   UNL     1      46.445   5.446  12.056  0.00  0.00    +0.000 N 
ATOM     11  H   UNL     1      46.910   4.545  12.013  0.00  0.00    +0.000 HD
BRANCH   9  12
ATOM     12  C   UNL     1      45.288   4.638  10.076  0.00  0.00    +0.000 A 
ATOM     13  C   UNL     1      44.674   3.440  10.421  0.00  0.00    +0.000 A 
ATOM     14  C   UNL     1      44.498   2.476   9.433  0.00  0.00    +0.000 A 
ATOM     15  C   UNL     1      44.940   2.741   8.141  0.00  0.00    +0.000 A 
ATOM     16  C   UNL     1      45.540   3.966   7.885  0.00  0.00    +0.000 A 
ATOM     17  N   UNL     1      45.726   4.927   8.819  0.00  0.00    +0.000 NA
ENDBRANCH   9  12
ENDBRANCH   7  10
ENDBRANCH   1   7
BRANCH   4  18
ATOM     18  C   UNL     1      48.941   3.968  17.898  0.00  0.00    +0.000 C 
BRANCH  18  19
ATOM     19  N   UNL     1      50.314   3.576  17.708  0.00  0.00    +0.000 N 
ATOM     20  C   UNL     1      51.300   3.976  18.576  0.00  0.00    +0.000 C 
ATOM     21  O   UNL     1      51.053   4.634  19.581  0.00  0.00    +0.000 OA
ATOM     22  H   UNL     1      50.575   3.253  16.782  0.00  0.00    +0.000 HD
BRANCH  20  23
ATOM     23  C   UNL     1      52.664   3.517  18.273  0.00  0.00    +0.000 A 
ATOM     24  C   UNL     1      53.729   4.399  18.395  0.00  0.00    +0.000 A 
ATOM     25  S   UNL     1      55.246   3.690  18.066  0.00  0.00    +0.000 S 
ATOM     26  C   UNL     1      54.527   2.192  17.698  0.00  0.00    +0.000 A 
ATOM     27  N   UNL     1      55.283   1.130  17.310  0.00  0.00    +0.000 NA
ATOM     28  C   UNL     1      54.605   0.067  17.030  0.00  0.00    +0.000 A 
ATOM     29  N   UNL     1      53.240  -0.030  17.106  0.00  0.00    +0.000 N 
ATOM     30  C   UNL     1      52.438   1.006  17.520  0.00  0.00    +0.000 A 
ATOM     31  O   UNL     1      51.223   0.874  17.615  0.00  0.00    +0.000 OA
ATOM     32  C   UNL     1      53.151   2.230  17.838  0.00  0.00    +0.000 A 
ATOM     33  H   UNL     1      52.769  -0.894  16.879  0.00  0.00    +0.000 HD
ENDBRANCH  20  23
ENDBRANCH  18  19
ENDBRANCH   4  18
TORSDOF 6
ENDMDL
MODEL 9
REMARK VINA RESULT:    -6.739      3.796      8.617
REMARK INTER + INTRA:         -10.118
REMARK INTER:                  -9.376
REMARK INTRA:                  -0.743
REMARK UNBOUND:                -1.015
REMARK  Name = 
REMARK  6 active torsions:
REMARK  status: ('A' for Active; 'I' for Inactive)
REMARK    1  A    between atoms: C_2  and  C_25
REMARK    2  A    between atoms: N_3  and  C_4
REMARK    3  A    between atoms: C_4  and  C_5
REMARK    4  A    between atoms: C_8  and  C_9
REMARK    5  A    between atoms: C_9  and  N_10
REMARK    6  A    between atoms: C_11  and  C_13
REMARK                            x       y       z     vdW  Elec       q    Type
REMARK                         _______ _______ _______ _____ _____    ______ ____
ROOT
ATOM      1  C   UNL     1      49.524   5.125  17.749  0.00  0.00    +0.000 A 
ATOM      2  C   UNL     1      50.280   6.239  17.389  0.00  0.00    +0.000 A 
ATOM      3  C   UNL     1      49.908   6.979  16.267  0.00  0.00    +0.000 A 
ATOM      4  C   UNL     1      48.803   6.587  15.510  0.00  0.00    +0.000 A 
ATOM      5  C   UNL     1      48.100   5.471  15.950  0.00  0.00    +0.000 A 
ATOM      6  N   UNL     1      48.433   4.734  17.038  0.00  0.00    +0.000 NA
ENDROOT
BRANCH   1   7
ATOM      7  C   UNL     1      49.890   4.316  18.974  0.00  0.00    +0.000 C 
BRANCH   7  10
ATOM      8  O   UNL     1      50.560   2.381  17.005  0.00  0.00    +0.000 OA
ATOM      9  C   UNL     1      51.392   2.697  17.852  0.00  0.00    +0.000 C 
ATOM     10  N   UNL     1      51.149   3.615  18.848  0.00  0.00    +0.000 N 
ATOM     11  H   UNL     1      51.883   3.767  19.533  0.00  0.00    +0.000 HD
BRANCH   9  12
ATOM     12  C   UNL     1      52.771   2.104  17.848  0.00  0.00    +0.000 A 
ATOM     13  C   UNL     1      53.868   2.927  17.620  0.00  0.00    +0.000 A 
ATOM     14  C   UNL     1      55.138   2.358  17.640  0.00  0.00    +0.000 A 
ATOM     15  C   UNL     1      55.267   0.995  17.886  0.00  0.00    +0.000 A 
ATOM     16  C   UNL     1      54.117   0.250  18.105  0.00  0.00    +0.000 A 
ATOM     17  N   UNL     1      52.867   0.767  18.095  0.00  0.00    +0.000 NA
ENDBRANCH   9  12
ENDBRANCH   7  10
ENDBRANCH   1   7
BRANCH   4  18
ATOM     18  C   UNL     1      48.366   7.355  14.297  0.00  0.00    +0.000 C 
BRANCH  18  19
ATOM     19  N   UNL     1      47.114   6.859  13.785  0.00  0.00    +0.000 N 
ATOM     20  C   UNL     1      46.856   6.819  12.437  0.00  0.00    +0.000 C 
ATOM     21  O   UNL     1      47.695   7.149  11.605  0.00  0.00    +0.000 OA
ATOM     22  H   UNL     1      46.337   6.817  14.436  0.00  0.00    +0.000 HD
BRANCH  20  23
ATOM     23  C   UNL     1      45.540   6.298  12.038  0.00  0.00    +0.000 A 
ATOM     24  C   UNL     1      44.597   7.157  11.491  0.00  0.00    +0.000 A 
ATOM     25  S   UNL     1      43.150   6.380  11.027  0.00  0.00    +0.000 S 
ATOM     26  C   UNL     1      43.714   4.876  11.589  0.00  0.00    +0.000 A 
ATOM     27  N   UNL     1      42.936   3.763  11.509  0.00  0.00    +0.000 NA
ATOM     28  C   UNL     1      43.476   2.699  12.003  0.00  0.00    +0.000 A 
ATOM     29  N   UNL     1      44.724   2.647  12.566  0.00  0.00    +0.000 N 
ATOM     30  C   UNL     1      45.556   3.738  12.643  0.00  0.00    +0.000 A 
ATOM     31  O   UNL     1      46.683   3.648  13.117  0.00  0.00    +0.000 OA
ATOM     32  C   UNL     1      44.993   4.964  12.110  0.00  0.00    +0.000 A 
ATOM     33  H   UNL     1      45.092   1.779  12.930  0.00  0.00    +0.000 HD
ENDBRANCH  20  23
ENDBRANCH  18  19
ENDBRANCH   4  18
TORSDOF 6
ENDMDL
