MODEL 1
REMARK VINA RESULT:    -7.616      0.000      0.000
REMARK INTER + INTRA:         -12.887
REMARK INTER:                 -11.845
REMARK INTRA:                  -1.042
REMARK UNBOUND:                -1.042
REMARK  Name = 
REMARK  10 active torsions:
REMARK  status: ('A' for Active; 'I' for Inactive)
REMARK    1  A    between atoms: N_1  and  C_2
REMARK    2  A    between atoms: C_2  and  C_3
REMARK    3  A    between atoms: C_3  and  N_4
REMARK    4  A    between atoms: C_3  and  C_20
REMARK    5  A    between atoms: N_4  and  C_5
REMARK    6  A    between atoms: C_5  and  C_6
REMARK    7  A    between atoms: C_9  and  C_10
REMARK    8  A    between atoms: C_10  and  N_11
REMARK    9  A    between atoms: N_11  and  C_12
REMARK   10  A    between atoms: C_12  and  C_13
REMARK                            x       y       z     vdW  Elec       q    Type
REMARK                         _______ _______ _______ _____ _____    ______ ____
ROOT
ATOM      1  N   UNL     1      48.631   5.259  15.887  0.00  0.00    +0.000 NA
ATOM      2  H   UNL     1      49.420   4.703  15.562  0.00  0.00    +0.000 HD
ENDROOT
BRANCH   1   3
ATOM      3  C   UNL     1      48.962   5.878  17.178  0.00  0.00    +0.000 C 
BRANCH   3   4
ATOM      4  C   UNL     1      50.207   5.172  17.766  0.00  0.00    +0.000 A 
ATOM      5  C   UNL     1      51.240   5.827  18.420  0.00  0.00    +0.000 A 
ATOM      6  S   UNL     1      52.602   4.836  18.731  0.00  0.00    +0.000 S 
ATOM      7  C   UNL     1      51.855   3.481  18.020  0.00  0.00    +0.000 A 
ATOM      8  N   UNL     1      52.497   2.295  17.863  0.00  0.00    +0.000 NA
ATOM      9  C   UNL     1      51.777   1.375  17.309  0.00  0.00    +0.000 A 
ATOM     10  N   UNL     1      50.456   1.522  16.933  0.00  0.00    +0.000 N 
ATOM     11  C   UNL     1      49.719   2.624  17.307  0.00  0.00    +0.000 A 
ATOM     12  O   UNL     1      48.499   2.582  17.439  0.00  0.00    +0.000 OA
ATOM     13  C   UNL     1      50.523   3.756  17.699  0.00  0.00    +0.000 A 
ATOM     14  H   UNL     1      49.938   0.719  16.634  0.00  0.00    +0.000 HD
ENDBRANCH   3   4
BRANCH   3  15
ATOM     15  C   UNL     1      47.750   5.749  18.169  0.00  0.00    +0.000 C 
BRANCH  15  16
ATOM     16  N   UNL     1      46.743   4.760  17.774  0.00  0.00    +0.000 NA
ATOM     17  H   UNL     1      46.398   4.292  18.613  0.00  0.00    +0.000 HD
ATOM     18  H   UNL     1      45.944   5.246  17.371  0.00  0.00    +0.000 HD
ENDBRANCH  15  16
ENDBRANCH   3  15
ENDBRANCH   1   3
BRANCH   1  19
ATOM     19  C   UNL     1      48.250   6.196  14.818  0.00  0.00    +0.000 C 
BRANCH  19  20
ATOM     20  C   UNL     1      47.252   5.550  13.870  0.00  0.00    +0.000 A 
ATOM     21  C   UNL     1      46.744   6.295  12.795  0.00  0.00    +0.000 A 
ATOM     22  C   UNL     1      45.917   5.705  11.829  0.00  0.00    +0.000 A 
ATOM     23  C   UNL     1      45.541   4.363  11.933  0.00  0.00    +0.000 A 
ATOM     24  C   UNL     1      46.000   3.633  13.040  0.00  0.00    +0.000 A 
ATOM     25  C   UNL     1      46.855   4.214  13.993  0.00  0.00    +0.000 A 
BRANCH  23  26
ATOM     26  C   UNL     1      44.638   3.736  10.886  0.00  0.00    +0.000 C 
BRANCH  26  27
ATOM     27  N   UNL     1      45.218   2.499  10.346  0.00  0.00    +0.000 NA
ATOM     28  H   UNL     1      44.875   1.722  10.912  0.00  0.00    +0.000 HD
BRANCH  27  29
ATOM     29  C   UNL     1      44.824   2.261   8.955  0.00  0.00    +0.000 C 
BRANCH  29  30
ATOM     30  C   UNL     1      46.043   2.031   8.132  0.00  0.00    +0.000 A 
ATOM     31  C   UNL     1      46.721   0.892   7.755  0.00  0.00    +0.000 A 
ATOM     32  N   UNL     1      47.811   1.198   6.977  0.00  0.00    +0.000 NA
ATOM     33  C   UNL     1      47.804   2.508   6.874  0.00  0.00    +0.000 A 
ATOM     34  N   UNL     1      46.751   3.053   7.545  0.00  0.00    +0.000 N 
ATOM     35  H   UNL     1      46.531   4.037   7.636  0.00  0.00    +0.000 HD
ENDBRANCH  29  30
ENDBRANCH  27  29
ENDBRANCH  26  27
ENDBRANCH  23  26
ENDBRANCH  19  20
ENDBRANCH   1  19
TORSDOF 10
ENDMDL
MODEL 2
REMARK VINA RESULT:    -7.356      2.113      2.792
REMARK INTER + INTRA:         -12.484
REMARK INTER:                 -11.435
REMARK INTRA:                  -1.048
REMARK UNBOUND:                -1.042
REMARK  Name = 
REMARK  10 active torsions:
REMARK  status: ('A' for Active; 'I' for Inactive)
REMARK    1  A    between atoms: N_1  and  C_2
REMARK    2  A    between atoms: C_2  and  C_3
REMARK    3  A    between atoms: C_3  and  N_4
REMARK    4  A    between atoms: C_3  and  C_20
REMARK    5  A    between atoms: N_4  and  C_5
REMARK    6  A    between atoms: C_5  and  C_6
REMARK    7  A    between atoms: C_9  and  C_10
REMARK    8  A    between atoms: C_10  and  N_11
REMARK    9  A    between atoms: N_11  and  C_12
REMARK   10  A    between atoms: C_12  and  C_13
REMARK                            x       y       z     vdW  Elec       q    Type
REMARK                         _______ _______ _______ _____ _____    ______ ____
ROOT
ATOM      1  N   UNL     1      47.317   7.149  14.178  0.00  0.00    +0.000 NA
ATOM      2  H   UNL     1      46.704   6.373  14.421  0.00  0.00    +0.000 HD
ENDROOT
BRANCH   1   3
ATOM      3  C   UNL     1      48.699   6.823  14.556  0.00  0.00    +0.000 C 
BRANCH   3   4
ATOM      4  C   UNL     1      48.744   6.525  16.074  0.00  0.00    +0.000 A 
ATOM      5  C   UNL     1      49.189   7.425  17.033  0.00  0.00    +0.000 A 
ATOM      6  S   UNL     1      49.374   6.740  18.592  0.00  0.00    +0.000 S 
ATOM      7  C   UNL     1      48.846   5.214  18.051  0.00  0.00    +0.000 A 
ATOM      8  N   UNL     1      48.840   4.119  18.854  0.00  0.00    +0.000 NA
ATOM      9  C   UNL     1      48.404   3.046  18.280  0.00  0.00    +0.000 A 
ATOM     10  N   UNL     1      47.933   2.977  16.983  0.00  0.00    +0.000 N 
ATOM     11  C   UNL     1      47.699   4.113  16.240  0.00  0.00    +0.000 A 
ATOM     12  O   UNL     1      46.863   4.148  15.342  0.00  0.00    +0.000 OA
ATOM     13  C   UNL     1      48.386   5.282  16.733  0.00  0.00    +0.000 A 
ATOM     14  H   UNL     1      47.492   2.136  16.664  0.00  0.00    +0.000 HD
ENDBRANCH   3   4
BRANCH   3  15
ATOM     15  C   UNL     1      49.653   8.023  14.214  0.00  0.00    +0.000 C 
BRANCH  15  16
ATOM     16  N   UNL     1      51.078   7.681  14.191  0.00  0.00    +0.000 NA
ATOM     17  H   UNL     1      51.319   7.349  13.255  0.00  0.00    +0.000 HD
ATOM     18  H   UNL     1      51.624   8.527  14.341  0.00  0.00    +0.000 HD
ENDBRANCH  15  16
ENDBRANCH   3  15
ENDBRANCH   1   3
BRANCH   1  19
ATOM     19  C   UNL     1      47.112   7.476  12.758  0.00  0.00    +0.000 C 
BRANCH  19  20
ATOM     20  C   UNL     1      46.181   6.467  12.105  0.00  0.00    +0.000 A 
ATOM     21  C   UNL     1      46.198   6.318  10.710  0.00  0.00    +0.000 A 
ATOM     22  C   UNL     1      45.448   5.318  10.076  0.00  0.00    +0.000 A 
ATOM     23  C   UNL     1      44.625   4.464  10.816  0.00  0.00    +0.000 A 
ATOM     24  C   UNL     1      44.561   4.650  12.206  0.00  0.00    +0.000 A 
ATOM     25  C   UNL     1      45.338   5.632  12.846  0.00  0.00    +0.000 A 
BRANCH  23  26
ATOM     26  C   UNL     1      43.809   3.390  10.120  0.00  0.00    +0.000 C 
BRANCH  26  27
ATOM     27  N   UNL     1      44.405   3.012   8.832  0.00  0.00    +0.000 NA
ATOM     28  H   UNL     1      45.038   3.761   8.549  0.00  0.00    +0.000 HD
BRANCH  27  29
ATOM     29  C   UNL     1      45.177   1.769   8.919  0.00  0.00    +0.000 C 
BRANCH  29  30
ATOM     30  C   UNL     1      46.298   1.817   7.941  0.00  0.00    +0.000 A 
ATOM     31  C   UNL     1      47.039   0.839   7.313  0.00  0.00    +0.000 A 
ATOM     32  N   UNL     1      47.982   1.390   6.480  0.00  0.00    +0.000 NA
ATOM     33  C   UNL     1      47.824   2.690   6.592  0.00  0.00    +0.000 A 
ATOM     34  N   UNL     1      46.813   2.995   7.453  0.00  0.00    +0.000 N 
ATOM     35  H   UNL     1      46.504   3.919   7.725  0.00  0.00    +0.000 HD
ENDBRANCH  29  30
ENDBRANCH  27  29
ENDBRANCH  26  27
ENDBRANCH  23  26
ENDBRANCH  19  20
ENDBRANCH   1  19
TORSDOF 10
ENDMDL
MODEL 3
REMARK VINA RESULT:    -7.348      1.992      3.123
REMARK INTER + INTRA:         -12.470
REMARK INTER:                 -11.584
REMARK INTRA:                  -0.887
REMARK UNBOUND:                -1.042
REMARK  Name = 
REMARK  10 active torsions:
REMARK  status: ('A' for Active; 'I' for Inactive)
REMARK    1  A    between atoms: N_1  and  C_2
REMARK    2  A    between atoms: C_2  and  C_3
REMARK    3  A    between atoms: C_3  and  N_4
REMARK    4  A    between atoms: C_3  and  C_20
REMARK    5  A    between atoms: N_4  and  C_5
REMARK    6  A    between atoms: C_5  and  C_6
REMARK    7  A    between atoms: C_9  and  C_10
REMARK    8  A    between atoms: C_10  and  N_11
REMARK    9  A    between atoms: N_11  and  C_12
REMARK   10  A    between atoms: C_12  and  C_13
REMARK                            x       y       z     vdW  Elec       q    Type
REMARK                         _______ _______ _______ _____ _____    ______ ____
ROOT
ATOM      1  N   UNL     1      47.932   4.169  15.326  0.00  0.00    +0.000 NA
ATOM      2  H   UNL     1      48.949   4.211  15.284  0.00  0.00    +0.000 HD
ENDROOT
BRANCH   1   3
ATOM      3  C   UNL     1      47.510   3.772  16.677  0.00  0.00    +0.000 C 
BRANCH   3   4
ATOM      4  C   UNL     1      47.844   4.918  17.661  0.00  0.00    +0.000 A 
ATOM      5  C   UNL     1      46.954   5.430  18.594  0.00  0.00    +0.000 A 
ATOM      6  S   UNL     1      47.503   6.858  19.364  0.00  0.00    +0.000 S 
ATOM      7  C   UNL     1      48.967   6.837  18.496  0.00  0.00    +0.000 A 
ATOM      8  N   UNL     1      49.887   7.830  18.597  0.00  0.00    +0.000 NA
ATOM      9  C   UNL     1      50.942   7.649  17.870  0.00  0.00    +0.000 A 
ATOM     10  N   UNL     1      51.177   6.540  17.080  0.00  0.00    +0.000 N 
ATOM     11  C   UNL     1      50.380   5.419  17.156  0.00  0.00    +0.000 A 
ATOM     12  O   UNL     1      50.801   4.297  16.885  0.00  0.00    +0.000 OA
ATOM     13  C   UNL     1      49.088   5.662  17.749  0.00  0.00    +0.000 A 
ATOM     14  H   UNL     1      52.076   6.421  16.656  0.00  0.00    +0.000 HD
ENDBRANCH   3   4
BRANCH   3  15
ATOM     15  C   UNL     1      48.248   2.456  17.111  0.00  0.00    +0.000 C 
BRANCH  15  16
ATOM     16  N   UNL     1      49.182   1.924  16.115  0.00  0.00    +0.000 NA
ATOM     17  H   UNL     1      49.345   2.640  15.405  0.00  0.00    +0.000 HD
ATOM     18  H   UNL     1      50.083   1.758  16.561  0.00  0.00    +0.000 HD
ENDBRANCH  15  16
ENDBRANCH   3  15
ENDBRANCH   1   3
BRANCH   1  19
ATOM     19  C   UNL     1      47.393   5.454  14.850  0.00  0.00    +0.000 C 
BRANCH  19  20
ATOM     20  C   UNL     1      46.724   5.285  13.495  0.00  0.00    +0.000 A 
ATOM     21  C   UNL     1      45.997   4.115  13.230  0.00  0.00    +0.000 A 
ATOM     22  C   UNL     1      45.264   3.968  12.044  0.00  0.00    +0.000 A 
ATOM     23  C   UNL     1      45.272   4.971  11.070  0.00  0.00    +0.000 A 
ATOM     24  C   UNL     1      46.047   6.117  11.309  0.00  0.00    +0.000 A 
ATOM     25  C   UNL     1      46.757   6.279  12.512  0.00  0.00    +0.000 A 
BRANCH  23  26
ATOM     26  C   UNL     1      44.482   4.799   9.785  0.00  0.00    +0.000 C 
BRANCH  26  27
ATOM     27  N   UNL     1      45.369   4.634   8.626  0.00  0.00    +0.000 NA
ATOM     28  H   UNL     1      46.314   4.472   8.977  0.00  0.00    +0.000 HD
BRANCH  27  29
ATOM     29  C   UNL     1      44.988   3.491   7.793  0.00  0.00    +0.000 C 
BRANCH  29  30
ATOM     30  C   UNL     1      46.216   2.777   7.347  0.00  0.00    +0.000 A 
ATOM     31  C   UNL     1      46.753   1.547   7.663  0.00  0.00    +0.000 A 
ATOM     32  N   UNL     1      47.925   1.328   6.979  0.00  0.00    +0.000 NA
ATOM     33  C   UNL     1      48.106   2.407   6.252  0.00  0.00    +0.000 A 
ATOM     34  N   UNL     1      47.096   3.304   6.432  0.00  0.00    +0.000 N 
ATOM     35  H   UNL     1      47.010   4.216   6.005  0.00  0.00    +0.000 HD
ENDBRANCH  29  30
ENDBRANCH  27  29
ENDBRANCH  26  27
ENDBRANCH  23  26
ENDBRANCH  19  20
ENDBRANCH   1  19
TORSDOF 10
ENDMDL
MODEL 4
REMARK VINA RESULT:    -7.186      1.679      2.326
REMARK INTER + INTRA:         -12.219
REMARK INTER:                 -11.599
REMARK INTRA:                  -0.620
REMARK UNBOUND:                -1.042
REMARK  Name = 
REMARK  10 active torsions:
REMARK  status: ('A' for Active; 'I' for Inactive)
REMARK    1  A    between atoms: N_1  and  C_2
REMARK    2  A    between atoms: C_2  and  C_3
REMARK    3  A    between atoms: C_3  and  N_4
REMARK    4  A    between atoms: C_3  and  C_20
REMARK    5  A    between atoms: N_4  and  C_5
REMARK    6  A    between atoms: C_5  and  C_6
REMARK    7  A    between atoms: C_9  and  C_10
REMARK    8  A    between atoms: C_10  and  N_11
REMARK    9  A    between atoms: N_11  and  C_12
REMARK   10  A    between atoms: C_12  and  C_13
REMARK                            x       y       z     vdW  Elec       q    Type
REMARK                         _______ _______ _______ _____ _____    ______ ____
ROOT
ATOM      1  N   UNL     1      47.813   4.216  15.457  0.00  0.00    +0.000 NA
ATOM      2  H   UNL     1      48.454   3.611  14.947  0.00  0.00    +0.000 HD
ENDROOT
BRANCH   1   3
ATOM      3  C   UNL     1      48.359   4.504  16.790  0.00  0.00    +0.000 C 
BRANCH   3   4
ATOM      4  C   UNL     1      49.631   3.649  17.003  0.00  0.00    +0.000 A 
ATOM      5  C   UNL     1      49.679   2.271  16.853  0.00  0.00    +0.000 A 
ATOM      6  S   UNL     1      51.139   1.564  17.404  0.00  0.00    +0.000 S 
ATOM      7  C   UNL     1      51.776   3.080  17.847  0.00  0.00    +0.000 A 
ATOM      8  N   UNL     1      52.973   3.210  18.473  0.00  0.00    +0.000 NA
ATOM      9  C   UNL     1      53.304   4.433  18.732  0.00  0.00    +0.000 A 
ATOM     10  N   UNL     1      52.560   5.544  18.382  0.00  0.00    +0.000 N 
ATOM     11  C   UNL     1      51.478   5.450  17.535  0.00  0.00    +0.000 A 
ATOM     12  O   UNL     1      51.117   6.386  16.828  0.00  0.00    +0.000 OA
ATOM     13  C   UNL     1      50.939   4.117  17.427  0.00  0.00    +0.000 A 
ATOM     14  H   UNL     1      52.955   6.457  18.504  0.00  0.00    +0.000 HD
ENDBRANCH   3   4
BRANCH   3  15
ATOM     15  C   UNL     1      47.295   4.172  17.897  0.00  0.00    +0.000 C 
BRANCH  15  16
ATOM     16  N   UNL     1      46.520   2.953  17.649  0.00  0.00    +0.000 NA
ATOM     17  H   UNL     1      47.078   2.322  17.072  0.00  0.00    +0.000 HD
ATOM     18  H   UNL     1      46.370   2.471  18.534  0.00  0.00    +0.000 HD
ENDBRANCH  15  16
ENDBRANCH   3  15
ENDBRANCH   1   3
BRANCH   1  19
ATOM     19  C   UNL     1      47.527   5.396  14.624  0.00  0.00    +0.000 C 
BRANCH  19  20
ATOM     20  C   UNL     1      46.699   5.007  13.410  0.00  0.00    +0.000 A 
ATOM     21  C   UNL     1      46.284   3.675  13.260  0.00  0.00    +0.000 A 
ATOM     22  C   UNL     1      45.419   3.295  12.224  0.00  0.00    +0.000 A 
ATOM     23  C   UNL     1      44.978   4.230  11.283  0.00  0.00    +0.000 A 
ATOM     24  C   UNL     1      45.440   5.551  11.397  0.00  0.00    +0.000 A 
ATOM     25  C   UNL     1      46.281   5.939  12.455  0.00  0.00    +0.000 A 
BRANCH  23  26
ATOM     26  C   UNL     1      44.049   3.808  10.159  0.00  0.00    +0.000 C 
BRANCH  26  27
ATOM     27  N   UNL     1      44.745   2.979   9.167  0.00  0.00    +0.000 NA
ATOM     28  H   UNL     1      44.049   2.388   8.711  0.00  0.00    +0.000 HD
BRANCH  27  29
ATOM     29  C   UNL     1      45.409   3.782   8.138  0.00  0.00    +0.000 C 
BRANCH  29  30
ATOM     30  C   UNL     1      46.377   2.928   7.395  0.00  0.00    +0.000 A 
ATOM     31  C   UNL     1      46.856   1.652   7.604  0.00  0.00    +0.000 A 
ATOM     32  N   UNL     1      47.750   1.293   6.624  0.00  0.00    +0.000 NA
ATOM     33  C   UNL     1      47.820   2.332   5.823  0.00  0.00    +0.000 A 
ATOM     34  N   UNL     1      47.002   3.338   6.241  0.00  0.00    +0.000 N 
ATOM     35  H   UNL     1      46.888   4.247   5.812  0.00  0.00    +0.000 HD
ENDBRANCH  29  30
ENDBRANCH  27  29
ENDBRANCH  26  27
ENDBRANCH  23  26
ENDBRANCH  19  20
ENDBRANCH   1  19
TORSDOF 10
ENDMDL
MODEL 5
REMARK VINA RESULT:    -7.024      1.958      2.349
REMARK INTER + INTRA:         -11.968
REMARK INTER:                 -10.992
REMARK INTRA:                  -0.976
REMARK UNBOUND:                -1.042
REMARK  Name = 
REMARK  10 active torsions:
REMARK  status: ('A' for Active; 'I' for Inactive)
REMARK    1  A    between atoms: N_1  and  C_2
REMARK    2  A    between atoms: C_2  and  C_3
REMARK    3  A    between atoms: C_3  and  N_4
REMARK    4  A    between atoms: C_3  and  C_20
REMARK    5  A    between atoms: N_4  and  C_5
REMARK    6  A    between atoms: C_5  and  C_6
REMARK    7  A    between atoms: C_9  and  C_10
REMARK    8  A    between atoms: C_10  and  N_11
REMARK    9  A    between atoms: N_11  and  C_12
REMARK   10  A    between atoms: C_12  and  C_13
REMARK                            x       y       z     vdW  Elec       q    Type
REMARK                         _______ _______ _______ _____ _____    ______ ____
ROOT
ATOM      1  N   UNL     1      48.480   5.733  14.708  0.00  0.00    +0.000 NA
ATOM      2  H   UNL     1      49.429   6.084  14.587  0.00  0.00    +0.000 HD
ENDROOT
BRANCH   1   3
ATOM      3  C   UNL     1      48.238   5.441  16.127  0.00  0.00    +0.000 C 
BRANCH   3   4
ATOM      4  C   UNL     1      49.488   5.851  16.941  0.00  0.00    +0.000 A 
ATOM      5  C   UNL     1      50.607   6.466  16.397  0.00  0.00    +0.000 A 
ATOM      6  S   UNL     1      51.935   6.567  17.474  0.00  0.00    +0.000 S 
ATOM      7  C   UNL     1      51.059   5.809  18.722  0.00  0.00    +0.000 A 
ATOM      8  N   UNL     1      51.620   5.493  19.916  0.00  0.00    +0.000 NA
ATOM      9  C   UNL     1      50.809   4.926  20.748  0.00  0.00    +0.000 A 
ATOM     10  N   UNL     1      49.470   4.683  20.506  0.00  0.00    +0.000 N 
ATOM     11  C   UNL     1      48.828   5.217  19.411  0.00  0.00    +0.000 A 
ATOM     12  O   UNL     1      47.623   5.452  19.409  0.00  0.00    +0.000 OA
ATOM     13  C   UNL     1      49.721   5.633  18.358  0.00  0.00    +0.000 A 
ATOM     14  H   UNL     1      48.887   4.362  21.254  0.00  0.00    +0.000 HD
ENDBRANCH   3   4
BRANCH   3  15
ATOM     15  C   UNL     1      47.945   3.911  16.325  0.00  0.00    +0.000 C 
BRANCH  15  16
ATOM     16  N   UNL     1      46.694   3.617  17.029  0.00  0.00    +0.000 NA
ATOM     17  H   UNL     1      46.716   4.075  17.941  0.00  0.00    +0.000 HD
ATOM     18  H   UNL     1      45.920   4.039  16.519  0.00  0.00    +0.000 HD
ENDBRANCH  15  16
ENDBRANCH   3  15
ENDBRANCH   1   3
BRANCH   1  19
ATOM     19  C   UNL     1      47.549   6.693  14.094  0.00  0.00    +0.000 C 
BRANCH  19  20
ATOM     20  C   UNL     1      46.718   6.018  13.014  0.00  0.00    +0.000 A 
ATOM     21  C   UNL     1      45.994   4.859  13.330  0.00  0.00    +0.000 A 
ATOM     22  C   UNL     1      45.120   4.272  12.404  0.00  0.00    +0.000 A 
ATOM     23  C   UNL     1      44.978   4.805  11.119  0.00  0.00    +0.000 A 
ATOM     24  C   UNL     1      45.746   5.930  10.782  0.00  0.00    +0.000 A 
ATOM     25  C   UNL     1      46.598   6.538  11.722  0.00  0.00    +0.000 A 
BRANCH  23  26
ATOM     26  C   UNL     1      44.036   4.158  10.120  0.00  0.00    +0.000 C 
BRANCH  26  27
ATOM     27  N   UNL     1      44.740   3.769   8.890  0.00  0.00    +0.000 NA
ATOM     28  H   UNL     1      45.645   4.240   8.888  0.00  0.00    +0.000 HD
BRANCH  27  29
ATOM     29  C   UNL     1      44.975   2.325   8.817  0.00  0.00    +0.000 C 
BRANCH  29  30
ATOM     30  C   UNL     1      46.192   2.066   8.000  0.00  0.00    +0.000 A 
ATOM     31  C   UNL     1      46.877   0.915   7.674  0.00  0.00    +0.000 A 
ATOM     32  N   UNL     1      47.962   1.193   6.878  0.00  0.00    +0.000 NA
ATOM     33  C   UNL     1      47.945   2.496   6.714  0.00  0.00    +0.000 A 
ATOM     34  N   UNL     1      46.890   3.065   7.363  0.00  0.00    +0.000 N 
ATOM     35  H   UNL     1      46.664   4.050   7.409  0.00  0.00    +0.000 HD
ENDBRANCH  29  30
ENDBRANCH  27  29
ENDBRANCH  26  27
ENDBRANCH  23  26
ENDBRANCH  19  20
ENDBRANCH   1  19
TORSDOF 10
ENDMDL
MODEL 6
REMARK VINA RESULT:    -6.932      2.297      3.157
REMARK INTER + INTRA:         -11.825
REMARK INTER:                 -10.793
REMARK INTRA:                  -1.032
REMARK UNBOUND:                -1.042
REMARK  Name = 
REMARK  10 active torsions:
REMARK  status: ('A' for Active; 'I' for Inactive)
REMARK    1  A    between atoms: N_1  and  C_2
REMARK    2  A    between atoms: C_2  and  C_3
REMARK    3  A    between atoms: C_3  and  N_4
REMARK    4  A    between atoms: C_3  and  C_20
REMARK    5  A    between atoms: N_4  and  C_5
REMARK    6  A    between atoms: C_5  and  C_6
REMARK    7  A    between atoms: C_9  and  C_10
REMARK    8  A    between atoms: C_10  and  N_11
REMARK    9  A    between atoms: N_11  and  C_12
REMARK   10  A    between atoms: C_12  and  C_13
REMARK                            x       y       z     vdW  Elec       q    Type
REMARK                         _______ _______ _______ _____ _____    ______ ____
ROOT
ATOM      1  N   UNL     1      47.868   5.525  15.120  0.00  0.00    +0.000 NA
ATOM      2  H   UNL     1      47.326   6.295  14.730  0.00  0.00    +0.000 HD
ENDROOT
BRANCH   1   3
ATOM      3  C   UNL     1      48.246   5.839  16.505  0.00  0.00    +0.000 C 
BRANCH   3   4
ATOM      4  C   UNL     1      49.790   5.853  16.609  0.00  0.00    +0.000 A 
ATOM      5  C   UNL     1      50.525   4.998  17.418  0.00  0.00    +0.000 A 
ATOM      6  S   UNL     1      52.184   5.410  17.534  0.00  0.00    +0.000 S 
ATOM      7  C   UNL     1      51.990   6.738  16.486  0.00  0.00    +0.000 A 
ATOM      8  N   UNL     1      53.002   7.600  16.210  0.00  0.00    +0.000 NA
ATOM      9  C   UNL     1      52.679   8.549  15.392  0.00  0.00    +0.000 A 
ATOM     10  N   UNL     1      51.442   8.689  14.792  0.00  0.00    +0.000 N 
ATOM     11  C   UNL     1      50.491   7.696  14.863  0.00  0.00    +0.000 A 
ATOM     12  O   UNL     1      49.636   7.546  13.994  0.00  0.00    +0.000 OA
ATOM     13  C   UNL     1      50.705   6.760  15.938  0.00  0.00    +0.000 A 
ATOM     14  H   UNL     1      51.322   9.375  14.072  0.00  0.00    +0.000 HD
ENDBRANCH   3   4
BRANCH   3  15
ATOM     15  C   UNL     1      47.650   4.769  17.487  0.00  0.00    +0.000 C 
BRANCH  15  16
ATOM     16  N   UNL     1      46.604   5.278  18.379  0.00  0.00    +0.000 NA
ATOM     17  H   UNL     1      45.766   4.707  18.259  0.00  0.00    +0.000 HD
ATOM     18  H   UNL     1      46.900   5.146  19.345  0.00  0.00    +0.000 HD
ENDBRANCH  15  16
ENDBRANCH   3  15
ENDBRANCH   1   3
BRANCH   1  19
ATOM     19  C   UNL     1      47.102   4.281  14.941  0.00  0.00    +0.000 C 
BRANCH  19  20
ATOM     20  C   UNL     1      46.259   4.348  13.678  0.00  0.00    +0.000 A 
ATOM     21  C   UNL     1      45.881   5.600  13.170  0.00  0.00    +0.000 A 
ATOM     22  C   UNL     1      45.209   5.714  11.945  0.00  0.00    +0.000 A 
ATOM     23  C   UNL     1      44.858   4.575  11.213  0.00  0.00    +0.000 A 
ATOM     24  C   UNL     1      45.183   3.320  11.750  0.00  0.00    +0.000 A 
ATOM     25  C   UNL     1      45.886   3.206  12.962  0.00  0.00    +0.000 A 
BRANCH  23  26
ATOM     26  C   UNL     1      44.122   4.709   9.892  0.00  0.00    +0.000 C 
BRANCH  26  27
ATOM     27  N   UNL     1      44.511   3.651   8.950  0.00  0.00    +0.000 NA
ATOM     28  H   UNL     1      43.706   3.453   8.354  0.00  0.00    +0.000 HD
BRANCH  27  29
ATOM     29  C   UNL     1      45.628   4.054   8.092  0.00  0.00    +0.000 C 
BRANCH  29  30
ATOM     30  C   UNL     1      46.390   2.844   7.677  0.00  0.00    +0.000 A 
ATOM     31  C   UNL     1      47.463   2.653   6.833  0.00  0.00    +0.000 A 
ATOM     32  N   UNL     1      47.817   1.327   6.773  0.00  0.00    +0.000 NA
ATOM     33  C   UNL     1      46.973   0.709   7.568  0.00  0.00    +0.000 A 
ATOM     34  N   UNL     1      46.102   1.583   8.144  0.00  0.00    +0.000 N 
ATOM     35  H   UNL     1      45.346   1.359   8.779  0.00  0.00    +0.000 HD
ENDBRANCH  29  30
ENDBRANCH  27  29
ENDBRANCH  26  27
ENDBRANCH  23  26
ENDBRANCH  19  20
ENDBRANCH   1  19
TORSDOF 10
ENDMDL
MODEL 7
REMARK VINA RESULT:    -6.623      3.486      8.345
REMARK INTER + INTRA:         -11.343
REMARK INTER:                 -10.365
REMARK INTRA:                  -0.979
REMARK UNBOUND:                -1.042
REMARK  Name = 
REMARK  10 active torsions:
REMARK  status: ('A' for Active; 'I' for Inactive)
REMARK    1  A    between atoms: N_1  and  C_2
REMARK    2  A    between atoms: C_2  and  C_3
REMARK    3  A    between atoms: C_3  and  N_4
REMARK    4  A    between atoms: C_3  and  C_20
REMARK    5  A    between atoms: N_4  and  C_5
REMARK    6  A    between atoms: C_5  and  C_6
REMARK    7  A    between atoms: C_9  and  C_10
REMARK    8  A    between atoms: C_10  and  N_11
REMARK    9  A    between atoms: N_11  and  C_12
REMARK   10  A    between atoms: C_12  and  C_13
REMARK                            x       y       z     vdW  Elec       q    Type
REMARK                         _______ _______ _______ _____ _____    ______ ____
ROOT
ATOM      1  N   UNL     1      47.553   7.493  11.727  0.00  0.00    +0.000 NA
ATOM      2  H   UNL     1      48.173   6.699  11.877  0.00  0.00    +0.000 HD
ENDROOT
BRANCH   1   3
ATOM      3  C   UNL     1      46.171   7.108  12.046  0.00  0.00    +0.000 C 
BRANCH   3   4
ATOM      4  C   UNL     1      45.780   5.888  11.179  0.00  0.00    +0.000 A 
ATOM      5  C   UNL     1      46.013   5.795   9.814  0.00  0.00    +0.000 A 
ATOM      6  S   UNL     1      45.245   4.456   9.070  0.00  0.00    +0.000 S 
ATOM      7  C   UNL     1      44.585   3.934  10.551  0.00  0.00    +0.000 A 
ATOM      8  N   UNL     1      43.735   2.880  10.637  0.00  0.00    +0.000 NA
ATOM      9  C   UNL     1      43.335   2.620  11.839  0.00  0.00    +0.000 A 
ATOM     10  N   UNL     1      43.742   3.299  12.972  0.00  0.00    +0.000 N 
ATOM     11  C   UNL     1      44.784   4.199  12.937  0.00  0.00    +0.000 A 
ATOM     12  O   UNL     1      45.480   4.433  13.921  0.00  0.00    +0.000 OA
ATOM     13  C   UNL     1      45.085   4.691  11.615  0.00  0.00    +0.000 A 
ATOM     14  H   UNL     1      43.485   2.947  13.873  0.00  0.00    +0.000 HD
ENDBRANCH   3   4
BRANCH   3  15
ATOM     15  C   UNL     1      45.195   8.306  11.765  0.00  0.00    +0.000 C 
BRANCH  15  16
ATOM     16  N   UNL     1      43.866   7.908  11.291  0.00  0.00    +0.000 NA
ATOM     17  H   UNL     1      43.739   8.258  10.340  0.00  0.00    +0.000 HD
ATOM     18  H   UNL     1      43.828   6.893  11.227  0.00  0.00    +0.000 HD
ENDBRANCH  15  16
ENDBRANCH   3  15
ENDBRANCH   1   3
BRANCH   1  19
ATOM     19  C   UNL     1      48.079   8.642  12.482  0.00  0.00    +0.000 C 
BRANCH  19  20
ATOM     20  C   UNL     1      48.348   8.254  13.928  0.00  0.00    +0.000 A 
ATOM     21  C   UNL     1      49.069   7.082  14.201  0.00  0.00    +0.000 A 
ATOM     22  C   UNL     1      49.445   6.749  15.510  0.00  0.00    +0.000 A 
ATOM     23  C   UNL     1      49.075   7.559  16.588  0.00  0.00    +0.000 A 
ATOM     24  C   UNL     1      48.303   8.700  16.322  0.00  0.00    +0.000 A 
ATOM     25  C   UNL     1      47.953   9.052  15.006  0.00  0.00    +0.000 A 
BRANCH  23  26
ATOM     26  C   UNL     1      49.479   7.186  18.003  0.00  0.00    +0.000 C 
BRANCH  26  27
ATOM     27  N   UNL     1      50.217   5.916  18.035  0.00  0.00    +0.000 NA
ATOM     28  H   UNL     1      51.039   6.048  18.625  0.00  0.00    +0.000 HD
BRANCH  27  29
ATOM     29  C   UNL     1      49.420   4.824  18.599  0.00  0.00    +0.000 C 
BRANCH  29  30
ATOM     30  C   UNL     1      49.605   3.601  17.769  0.00  0.00    +0.000 A 
ATOM     31  C   UNL     1      48.831   2.998  16.800  0.00  0.00    +0.000 A 
ATOM     32  N   UNL     1      49.440   1.866  16.314  0.00  0.00    +0.000 NA
ATOM     33  C   UNL     1      50.573   1.775  16.973  0.00  0.00    +0.000 A 
ATOM     34  N   UNL     1      50.721   2.804  17.853  0.00  0.00    +0.000 N 
ATOM     35  H   UNL     1      51.493   2.953  18.490  0.00  0.00    +0.000 HD
ENDBRANCH  29  30
ENDBRANCH  27  29
ENDBRANCH  26  27
ENDBRANCH  23  26
ENDBRANCH  19  20
ENDBRANCH   1  19
TORSDOF 10
ENDMDL
MODEL 8
REMARK VINA RESULT:    -6.346      2.531      3.346
REMARK INTER + INTRA:         -10.912
REMARK INTER:                  -9.890
REMARK INTRA:                  -1.023
REMARK UNBOUND:                -1.042
REMARK  Name = 
REMARK  10 active torsions:
REMARK  status: ('A' for Active; 'I' for Inactive)
REMARK    1  A    between atoms: N_1  and  C_2
REMARK    2  A    between atoms: C_2  and  C_3
REMARK    3  A    between atoms: C_3  and  N_4
REMARK    4  A    between atoms: C_3  and  C_20
REMARK    5  A    between atoms: N_4  and  C_5
REMARK    6  A    between atoms: C_5  and  C_6
REMARK    7  A    between atoms: C_9  and  C_10
REMARK    8  A    between atoms: C_10  and  N_11
REMARK    9  A    between atoms: N_11  and  C_12
REMARK   10  A    between atoms: C_12  and  C_13
REMARK                            x       y       z     vdW  Elec       q    Type
REMARK                         _______ _______ _______ _____ _____    ______ ____
ROOT
ATOM      1  N   UNL     1      49.222   6.566  13.844  0.00  0.00    +0.000 NA
ATOM      2  H   UNL     1      50.056   6.335  13.307  0.00  0.00    +0.000 HD
ENDROOT
BRANCH   1   3
ATOM      3  C   UNL     1      49.609   7.207  15.108  0.00  0.00    +0.000 C 
BRANCH   3   4
ATOM      4  C   UNL     1      49.499   6.167  16.249  0.00  0.00    +0.000 A 
ATOM      5  C   UNL     1      48.348   5.447  16.540  0.00  0.00    +0.000 A 
ATOM      6  S   UNL     1      48.434   4.568  18.008  0.00  0.00    +0.000 S 
ATOM      7  C   UNL     1      50.025   5.099  18.304  0.00  0.00    +0.000 A 
ATOM      8  N   UNL     1      50.692   4.796  19.446  0.00  0.00    +0.000 NA
ATOM      9  C   UNL     1      51.890   5.278  19.502  0.00  0.00    +0.000 A 
ATOM     10  N   UNL     1      52.498   6.004  18.496  0.00  0.00    +0.000 N 
ATOM     11  C   UNL     1      51.937   6.108  17.242  0.00  0.00    +0.000 A 
ATOM     12  O   UNL     1      52.615   6.288  16.234  0.00  0.00    +0.000 OA
ATOM     13  C   UNL     1      50.527   5.808  17.209  0.00  0.00    +0.000 A 
ATOM     14  H   UNL     1      53.473   6.224  18.569  0.00  0.00    +0.000 HD
ENDBRANCH   3   4
BRANCH   3  15
ATOM     15  C   UNL     1      48.674   8.433  15.405  0.00  0.00    +0.000 C 
BRANCH  15  16
ATOM     16  N   UNL     1      49.156   9.324  16.464  0.00  0.00    +0.000 NA
ATOM     17  H   UNL     1      48.389   9.502  17.115  0.00  0.00    +0.000 HD
ATOM     18  H   UNL     1      49.876   8.841  17.000  0.00  0.00    +0.000 HD
ENDBRANCH  15  16
ENDBRANCH   3  15
ENDBRANCH   1   3
BRANCH   1  19
ATOM     19  C   UNL     1      48.321   7.353  12.987  0.00  0.00    +0.000 C 
BRANCH  19  20
ATOM     20  C   UNL     1      46.976   6.660  12.844  0.00  0.00    +0.000 A 
ATOM     21  C   UNL     1      46.804   5.376  13.383  0.00  0.00    +0.000 A 
ATOM     22  C   UNL     1      45.550   4.749  13.382  0.00  0.00    +0.000 A 
ATOM     23  C   UNL     1      44.441   5.371  12.803  0.00  0.00    +0.000 A 
ATOM     24  C   UNL     1      44.624   6.630  12.210  0.00  0.00    +0.000 A 
ATOM     25  C   UNL     1      45.874   7.274  12.240  0.00  0.00    +0.000 A 
BRANCH  23  26
ATOM     26  C   UNL     1      43.089   4.680  12.798  0.00  0.00    +0.000 C 
BRANCH  26  27
ATOM     27  N   UNL     1      42.781   4.108  11.481  0.00  0.00    +0.000 NA
ATOM     28  H   UNL     1      43.050   4.793  10.773  0.00  0.00    +0.000 HD
BRANCH  27  29
ATOM     29  C   UNL     1      43.521   2.870  11.225  0.00  0.00    +0.000 C 
BRANCH  29  30
ATOM     30  C   UNL     1      44.329   3.028   9.985  0.00  0.00    +0.000 A 
ATOM     31  C   UNL     1      44.596   4.107   9.169  0.00  0.00    +0.000 A 
ATOM     32  N   UNL     1      45.412   3.747   8.123  0.00  0.00    +0.000 NA
ATOM     33  C   UNL     1      45.645   2.465   8.293  0.00  0.00    +0.000 A 
ATOM     34  N   UNL     1      45.022   1.990   9.408  0.00  0.00    +0.000 N 
ATOM     35  H   UNL     1      45.027   1.037   9.748  0.00  0.00    +0.000 HD
ENDBRANCH  29  30
ENDBRANCH  27  29
ENDBRANCH  26  27
ENDBRANCH  23  26
ENDBRANCH  19  20
ENDBRANCH   1  19
TORSDOF 10
ENDMDL
MODEL 9
REMARK VINA RESULT:    -6.166      2.601      3.607
REMARK INTER + INTRA:         -10.633
REMARK INTER:                  -9.607
REMARK INTRA:                  -1.026
REMARK UNBOUND:                -1.042
REMARK  Name = 
REMARK  10 active torsions:
REMARK  status: ('A' for Active; 'I' for Inactive)
REMARK    1  A    between atoms: N_1  and  C_2
REMARK    2  A    between atoms: C_2  and  C_3
REMARK    3  A    between atoms: C_3  and  N_4
REMARK    4  A    between atoms: C_3  and  C_20
REMARK    5  A    between atoms: N_4  and  C_5
REMARK    6  A    between atoms: C_5  and  C_6
REMARK    7  A    between atoms: C_9  and  C_10
REMARK    8  A    between atoms: C_10  and  N_11
REMARK    9  A    between atoms: N_11  and  C_12
REMARK   10  A    between atoms: C_12  and  C_13
REMARK                            x       y       z     vdW  Elec       q    Type
REMARK                         _______ _______ _______ _____ _____    ______ ____
ROOT
ATOM      1  N   UNL     1      48.965   7.696  13.971  0.00  0.00    +0.000 NA
ATOM      2  H   UNL     1      48.319   7.538  14.742  0.00  0.00    +0.000 HD
ENDROOT
BRANCH   1   3
ATOM      3  C   UNL     1      50.348   7.632  14.465  0.00  0.00    +0.000 C 
BRANCH   3   4
ATOM      4  C   UNL     1      50.348   7.918  15.986  0.00  0.00    +0.000 A 
ATOM      5  C   UNL     1      50.615   9.159  16.547  0.00  0.00    +0.000 A 
ATOM      6  S   UNL     1      50.803   9.124  18.249  0.00  0.00    +0.000 S 
ATOM      7  C   UNL     1      50.512   7.447  18.308  0.00  0.00    +0.000 A 
ATOM      8  N   UNL     1      50.606   6.733  19.458  0.00  0.00    +0.000 NA
ATOM      9  C   UNL     1      50.348   5.473  19.320  0.00  0.00    +0.000 A 
ATOM     10  N   UNL     1      49.964   4.869  18.138  0.00  0.00    +0.000 N 
ATOM     11  C   UNL     1      49.623   5.610  17.028  0.00  0.00    +0.000 A 
ATOM     12  O   UNL     1      48.841   5.194  16.178  0.00  0.00    +0.000 OA
ATOM     13  C   UNL     1      50.121   6.963  17.056  0.00  0.00    +0.000 A 
ATOM     14  H   UNL     1      49.656   3.916  18.151  0.00  0.00    +0.000 HD
ENDBRANCH   3   4
BRANCH   3  15
ATOM     15  C   UNL     1      51.241   8.687  13.719  0.00  0.00    +0.000 C 
BRANCH  15  16
ATOM     16  N   UNL     1      52.297   8.108  12.884  0.00  0.00    +0.000 NA
ATOM     17  H   UNL     1      52.108   8.341  11.908  0.00  0.00    +0.000 HD
ATOM     18  H   UNL     1      53.183   8.554  13.115  0.00  0.00    +0.000 HD
ENDBRANCH  15  16
ENDBRANCH   3  15
ENDBRANCH   1   3
BRANCH   1  19
ATOM     19  C   UNL     1      48.638   6.752  12.890  0.00  0.00    +0.000 C 
BRANCH  19  20
ATOM     20  C   UNL     1      47.180   6.328  12.972  0.00  0.00    +0.000 A 
ATOM     21  C   UNL     1      46.209   7.073  12.288  0.00  0.00    +0.000 A 
ATOM     22  C   UNL     1      44.873   6.651  12.236  0.00  0.00    +0.000 A 
ATOM     23  C   UNL     1      44.463   5.493  12.903  0.00  0.00    +0.000 A 
ATOM     24  C   UNL     1      45.422   4.779  13.637  0.00  0.00    +0.000 A 
ATOM     25  C   UNL     1      46.769   5.184  13.663  0.00  0.00    +0.000 A 
BRANCH  23  26
ATOM     26  C   UNL     1      43.012   5.048  12.848  0.00  0.00    +0.000 C 
BRANCH  26  27
ATOM     27  N   UNL     1      42.686   4.434  11.554  0.00  0.00    +0.000 NA
ATOM     28  H   UNL     1      42.985   5.077  10.820  0.00  0.00    +0.000 HD
BRANCH  27  29
ATOM     29  C   UNL     1      43.376   3.158  11.353  0.00  0.00    +0.000 C 
BRANCH  29  30
ATOM     30  C   UNL     1      44.153   3.213  10.085  0.00  0.00    +0.000 A 
ATOM     31  C   UNL     1      44.908   2.282   9.404  0.00  0.00    +0.000 A 
ATOM     32  N   UNL     1      45.439   2.818   8.256  0.00  0.00    +0.000 NA
ATOM     33  C   UNL     1      45.016   4.062   8.229  0.00  0.00    +0.000 A 
ATOM     34  N   UNL     1      44.229   4.343   9.304  0.00  0.00    +0.000 N 
ATOM     35  H   UNL     1      43.797   5.230   9.526  0.00  0.00    +0.000 HD
ENDBRANCH  29  30
ENDBRANCH  27  29
ENDBRANCH  26  27
ENDBRANCH  23  26
ENDBRANCH  19  20
ENDBRANCH   1  19
TORSDOF 10
ENDMDL
