MODEL 1
REMARK VINA RESULT:    -8.000      0.000      0.000
REMARK INTER + INTRA:         -13.425
REMARK INTER:                 -11.742
REMARK INTRA:                  -1.683
REMARK UNBOUND:                -1.683
REMARK  Name = 
REMARK  9 active torsions:
REMARK  status: ('A' for Active; 'I' for Inactive)
REMARK    1  A    between atoms: C_1  and  O_2
REMARK    2  A    between atoms: O_2  and  C_3
REMARK    3  A    between atoms: C_10  and  C_11
REMARK    4  A    between atoms: N_13  and  C_14
REMARK    5  A    between atoms: C_14  and  C_15
REMARK    6  A    between atoms: C_18  and  C_19
REMARK    7  A    between atoms: C_19  and  N_20
REMARK    8  A    between atoms: N_20  and  C_21
REMARK    9  A    between atoms: C_21  and  C_22
REMARK                            x       y       z     vdW  Elec       q    Type
REMARK                         _______ _______ _______ _____ _____    ______ ____
ROOT
ATOM      1  C   UNL     1      46.810   7.886  13.068  0.00  0.00    +0.000 C 
ENDROOT
BRANCH   1   2
ATOM      2  C   UNL     1      45.986   6.810  12.404  0.00  0.00    +0.000 A 
ATOM      3  C   UNL     1      44.878   6.262  13.059  0.00  0.00    +0.000 A 
ATOM      4  C   UNL     1      44.135   5.234  12.468  0.00  0.00    +0.000 A 
ATOM      5  C   UNL     1      44.472   4.733  11.200  0.00  0.00    +0.000 A 
ATOM      6  C   UNL     1      45.600   5.265  10.559  0.00  0.00    +0.000 A 
ATOM      7  C   UNL     1      46.349   6.291  11.154  0.00  0.00    +0.000 A 
BRANCH   5   8
ATOM      8  C   UNL     1      43.692   3.601  10.553  0.00  0.00    +0.000 C 
BRANCH   8   9
ATOM      9  N   UNL     1      44.087   3.398   9.159  0.00  0.00    +0.000 NA
ATOM     10  H   UNL     1      44.753   4.126   8.902  0.00  0.00    +0.000 HD
BRANCH   9  11
ATOM     11  C   UNL     1      44.671   2.083   8.904  0.00  0.00    +0.000 C 
BRANCH  11  12
ATOM     12  C   UNL     1      46.091   2.254   8.328  0.00  0.00    +0.000 C 
ATOM     13  C   UNL     1      46.143   3.352   7.251  0.00  0.00    +0.000 C 
ATOM     14  C   UNL     1      47.519   3.412   6.598  0.00  0.00    +0.000 C 
ATOM     15  C   UNL     1      47.942   2.034   6.119  0.00  0.00    +0.000 C 
ATOM     16  O   UNL     1      47.931   1.105   7.203  0.00  0.00    +0.000 OA
ATOM     17  C   UNL     1      46.622   0.935   7.756  0.00  0.00    +0.000 C 
ENDBRANCH  11  12
ENDBRANCH   9  11
ENDBRANCH   8   9
ENDBRANCH   5   8
ENDBRANCH   1   2
BRANCH   1  20
ATOM     18  C   UNL     1      48.649   6.962  14.431  0.00  0.00    +0.000 C 
ATOM     19  O   UNL     1      49.412   6.950  13.470  0.00  0.00    +0.000 OA
ATOM     20  N   UNL     1      47.364   7.413  14.314  0.00  0.00    +0.000 N 
ATOM     21  H   UNL     1      46.758   7.430  15.122  0.00  0.00    +0.000 HD
BRANCH  18  29
ATOM     22  C   UNL     1      47.602   4.383  16.463  0.00  0.00    +0.000 A 
ATOM     23  N   UNL     1      47.450   3.421  17.393  0.00  0.00    +0.000 NA
ATOM     24  C   UNL     1      48.270   3.432  18.447  0.00  0.00    +0.000 A 
ATOM     25  N   UNL     1      49.235   4.312  18.701  0.00  0.00    +0.000 NA
ATOM     26  C   UNL     1      49.362   5.246  17.742  0.00  0.00    +0.000 A 
ATOM     27  S   UNL     1      50.536   6.459  17.904  0.00  0.00    +0.000 S 
ATOM     28  C   UNL     1      50.105   7.147  16.412  0.00  0.00    +0.000 A 
ATOM     29  C   UNL     1      49.077   6.476  15.758  0.00  0.00    +0.000 A 
ATOM     30  C   UNL     1      48.612   5.355  16.575  0.00  0.00    +0.000 A 
BRANCH  22  32
ATOM     31  C   UNL     1      47.227   3.510  14.323  0.00  0.00    +0.000 C 
ATOM     32  O   UNL     1      46.764   4.364  15.368  0.00  0.00    +0.000 OA
ENDBRANCH  22  32
ENDBRANCH  18  29
ENDBRANCH   1  20
TORSDOF 8
ENDMDL
MODEL 2
REMARK VINA RESULT:    -7.088      2.054      3.406
REMARK INTER + INTRA:         -12.085
REMARK INTER:                 -10.966
REMARK INTRA:                  -1.119
REMARK UNBOUND:                -1.683
REMARK  Name = 
REMARK  9 active torsions:
REMARK  status: ('A' for Active; 'I' for Inactive)
REMARK    1  A    between atoms: C_1  and  O_2
REMARK    2  A    between atoms: O_2  and  C_3
REMARK    3  A    between atoms: C_10  and  C_11
REMARK    4  A    between atoms: N_13  and  C_14
REMARK    5  A    between atoms: C_14  and  C_15
REMARK    6  A    between atoms: C_18  and  C_19
REMARK    7  A    between atoms: C_19  and  N_20
REMARK    8  A    between atoms: N_20  and  C_21
REMARK    9  A    between atoms: C_21  and  C_22
REMARK                            x       y       z     vdW  Elec       q    Type
REMARK                         _______ _______ _______ _____ _____    ______ ____
ROOT
ATOM      1  C   UNL     1      47.287   3.249  14.950  0.00  0.00    +0.000 C 
ENDROOT
BRANCH   1   2
ATOM      2  C   UNL     1      46.773   3.926  13.704  0.00  0.00    +0.000 A 
ATOM      3  C   UNL     1      47.156   5.238  13.402  0.00  0.00    +0.000 A 
ATOM      4  C   UNL     1      46.649   5.888  12.271  0.00  0.00    +0.000 A 
ATOM      5  C   UNL     1      45.756   5.241  11.403  0.00  0.00    +0.000 A 
ATOM      6  C   UNL     1      45.352   3.937  11.724  0.00  0.00    +0.000 A 
ATOM      7  C   UNL     1      45.854   3.286  12.860  0.00  0.00    +0.000 A 
BRANCH   5   8
ATOM      8  C   UNL     1      45.177   5.938  10.184  0.00  0.00    +0.000 C 
BRANCH   8   9
ATOM      9  N   UNL     1      45.543   5.255   8.943  0.00  0.00    +0.000 NA
ATOM     10  H   UNL     1      46.479   4.864   9.053  0.00  0.00    +0.000 HD
BRANCH   9  11
ATOM     11  C   UNL     1      44.609   4.198   8.561  0.00  0.00    +0.000 C 
BRANCH  11  12
ATOM     12  C   UNL     1      45.346   3.140   7.717  0.00  0.00    +0.000 C 
ATOM     13  C   UNL     1      45.764   1.924   8.562  0.00  0.00    +0.000 C 
ATOM     14  C   UNL     1      46.609   0.954   7.745  0.00  0.00    +0.000 C 
ATOM     15  C   UNL     1      47.760   1.685   7.073  0.00  0.00    +0.000 C 
ATOM     16  O   UNL     1      47.266   2.747   6.256  0.00  0.00    +0.000 OA
ATOM     17  C   UNL     1      46.574   3.739   7.021  0.00  0.00    +0.000 C 
ENDBRANCH  11  12
ENDBRANCH   9  11
ENDBRANCH   8   9
ENDBRANCH   5   8
ENDBRANCH   1   2
BRANCH   1  20
ATOM     18  C   UNL     1      47.370   4.147  17.248  0.00  0.00    +0.000 C 
ATOM     19  O   UNL     1      46.686   3.224  17.679  0.00  0.00    +0.000 OA
ATOM     20  N   UNL     1      47.711   4.223  15.926  0.00  0.00    +0.000 N 
ATOM     21  H   UNL     1      48.290   4.982  15.595  0.00  0.00    +0.000 HD
BRANCH  18  29
ATOM     22  C   UNL     1      50.471   5.524  17.855  0.00  0.00    +0.000 A 
ATOM     23  N   UNL     1      51.526   6.281  18.212  0.00  0.00    +0.000 NA
ATOM     24  C   UNL     1      51.317   7.286  19.066  0.00  0.00    +0.000 A 
ATOM     25  N   UNL     1      50.162   7.628  19.633  0.00  0.00    +0.000 NA
ATOM     26  C   UNL     1      49.134   6.856  19.239  0.00  0.00    +0.000 A 
ATOM     27  S   UNL     1      47.585   7.139  19.870  0.00  0.00    +0.000 S 
ATOM     28  C   UNL     1      46.921   5.882  18.940  0.00  0.00    +0.000 A 
ATOM     29  C   UNL     1      47.846   5.229  18.132  0.00  0.00    +0.000 A 
ATOM     30  C   UNL     1      49.179   5.796  18.339  0.00  0.00    +0.000 A 
BRANCH  22  32
ATOM     31  C   UNL     1      51.198   3.317  17.579  0.00  0.00    +0.000 C 
ATOM     32  O   UNL     1      50.684   4.495  16.963  0.00  0.00    +0.000 OA
ENDBRANCH  22  32
ENDBRANCH  18  29
ENDBRANCH   1  20
TORSDOF 8
ENDMDL
MODEL 3
REMARK VINA RESULT:    -6.979      1.604      1.937
REMARK INTER + INTRA:         -11.926
REMARK INTER:                 -10.529
REMARK INTRA:                  -1.397
REMARK UNBOUND:                -1.683
REMARK  Name = 
REMARK  9 active torsions:
REMARK  status: ('A' for Active; 'I' for Inactive)
REMARK    1  A    between atoms: C_1  and  O_2
REMARK    2  A    between atoms: O_2  and  C_3
REMARK    3  A    between atoms: C_10  and  C_11
REMARK    4  A    between atoms: N_13  and  C_14
REMARK    5  A    between atoms: C_14  and  C_15
REMARK    6  A    between atoms: C_18  and  C_19
REMARK    7  A    between atoms: C_19  and  N_20
REMARK    8  A    between atoms: N_20  and  C_21
REMARK    9  A    between atoms: C_21  and  C_22
REMARK                            x       y       z     vdW  Elec       q    Type
REMARK                         _______ _______ _______ _____ _____    ______ ____
ROOT
ATOM      1  C   UNL     1      47.465   7.500  13.511  0.00  0.00    +0.000 C 
ENDROOT
BRANCH   1   2
ATOM      2  C   UNL     1      46.461   6.428  13.166  0.00  0.00    +0.000 A 
ATOM      3  C   UNL     1      45.158   6.772  12.793  0.00  0.00    +0.000 A 
ATOM      4  C   UNL     1      44.209   5.782  12.514  0.00  0.00    +0.000 A 
ATOM      5  C   UNL     1      44.540   4.420  12.588  0.00  0.00    +0.000 A 
ATOM      6  C   UNL     1      45.840   4.078  12.990  0.00  0.00    +0.000 A 
ATOM      7  C   UNL     1      46.789   5.069  13.276  0.00  0.00    +0.000 A 
BRANCH   5   8
ATOM      8  C   UNL     1      43.518   3.331  12.313  0.00  0.00    +0.000 C 
BRANCH   8   9
ATOM      9  N   UNL     1      43.885   2.523  11.149  0.00  0.00    +0.000 NA
ATOM     10  H   UNL     1      43.206   1.768  11.052  0.00  0.00    +0.000 HD
BRANCH   9  11
ATOM     11  C   UNL     1      43.951   3.289   9.906  0.00  0.00    +0.000 C 
BRANCH  11  12
ATOM     12  C   UNL     1      45.297   3.018   9.206  0.00  0.00    +0.000 C 
ATOM     13  C   UNL     1      45.539   3.988   8.036  0.00  0.00    +0.000 C 
ATOM     14  C   UNL     1      46.805   3.619   7.272  0.00  0.00    +0.000 C 
ATOM     15  C   UNL     1      46.784   2.150   6.884  0.00  0.00    +0.000 C 
ATOM     16  O   UNL     1      46.629   1.331   8.042  0.00  0.00    +0.000 OA
ATOM     17  C   UNL     1      45.386   1.570   8.710  0.00  0.00    +0.000 C 
ENDBRANCH  11  12
ENDBRANCH   9  11
ENDBRANCH   8   9
ENDBRANCH   5   8
ENDBRANCH   1   2
BRANCH   1  20
ATOM     18  C   UNL     1      49.421   7.749  14.996  0.00  0.00    +0.000 C 
ATOM     19  O   UNL     1      49.333   8.973  14.977  0.00  0.00    +0.000 OA
ATOM     20  N   UNL     1      48.539   6.962  14.309  0.00  0.00    +0.000 N 
ATOM     21  H   UNL     1      48.619   5.955  14.352  0.00  0.00    +0.000 HD
BRANCH  18  29
ATOM     22  C   UNL     1      49.458   5.090  17.188  0.00  0.00    +0.000 A 
ATOM     23  N   UNL     1      49.761   4.051  17.990  0.00  0.00    +0.000 NA
ATOM     24  C   UNL     1      51.046   3.846  18.291  0.00  0.00    +0.000 A 
ATOM     25  N   UNL     1      52.088   4.573  17.894  0.00  0.00    +0.000 NA
ATOM     26  C   UNL     1      51.742   5.591  17.087  0.00  0.00    +0.000 A 
ATOM     27  S   UNL     1      52.941   6.633  16.493  0.00  0.00    +0.000 S 
ATOM     28  C   UNL     1      51.796   7.534  15.618  0.00  0.00    +0.000 A 
ATOM     29  C   UNL     1      50.492   7.067  15.748  0.00  0.00    +0.000 A 
ATOM     30  C   UNL     1      50.460   5.919  16.655  0.00  0.00    +0.000 A 
BRANCH  22  32
ATOM     31  C   UNL     1      47.381   4.085  16.795  0.00  0.00    +0.000 C 
ATOM     32  O   UNL     1      48.133   5.294  16.867  0.00  0.00    +0.000 OA
ENDBRANCH  22  32
ENDBRANCH  18  29
ENDBRANCH   1  20
TORSDOF 8
ENDMDL
MODEL 4
REMARK VINA RESULT:    -6.978      2.174      2.536
REMARK INTER + INTRA:         -11.924
REMARK INTER:                 -10.950
REMARK INTRA:                  -0.974
REMARK UNBOUND:                -1.683
REMARK  Name = 
REMARK  9 active torsions:
REMARK  status: ('A' for Active; 'I' for Inactive)
REMARK    1  A    between atoms: C_1  and  O_2
REMARK    2  A    between atoms: O_2  and  C_3
REMARK    3  A    between atoms: C_10  and  C_11
REMARK    4  A    between atoms: N_13  and  C_14
REMARK    5  A    between atoms: C_14  and  C_15
REMARK    6  A    between atoms: C_18  and  C_19
REMARK    7  A    between atoms: C_19  and  N_20
REMARK    8  A    between atoms: N_20  and  C_21
REMARK    9  A    between atoms: C_21  and  C_22
REMARK                            x       y       z     vdW  Elec       q    Type
REMARK                         _______ _______ _______ _____ _____    ______ ____
ROOT
ATOM      1  C   UNL     1      48.533   6.584  13.444  0.00  0.00    +0.000 C 
ENDROOT
BRANCH   1   2
ATOM      2  C   UNL     1      47.229   6.123  12.840  0.00  0.00    +0.000 A 
ATOM      3  C   UNL     1      46.582   4.986  13.337  0.00  0.00    +0.000 A 
ATOM      4  C   UNL     1      45.396   4.528  12.754  0.00  0.00    +0.000 A 
ATOM      5  C   UNL     1      44.816   5.199  11.666  0.00  0.00    +0.000 A 
ATOM      6  C   UNL     1      45.482   6.322  11.153  0.00  0.00    +0.000 A 
ATOM      7  C   UNL     1      46.675   6.778  11.732  0.00  0.00    +0.000 A 
BRANCH   5   8
ATOM      8  C   UNL     1      43.542   4.703  11.005  0.00  0.00    +0.000 C 
BRANCH   8   9
ATOM      9  N   UNL     1      43.800   3.582  10.101  0.00  0.00    +0.000 NA
ATOM     10  H   UNL     1      42.922   3.086   9.941  0.00  0.00    +0.000 HD
BRANCH   9  11
ATOM     11  C   UNL     1      44.377   3.987   8.820  0.00  0.00    +0.000 C 
BRANCH  11  12
ATOM     12  C   UNL     1      45.645   3.156   8.542  0.00  0.00    +0.000 C 
ATOM     13  C   UNL     1      46.293   3.535   7.198  0.00  0.00    +0.000 C 
ATOM     14  C   UNL     1      47.463   2.613   6.876  0.00  0.00    +0.000 C 
ATOM     15  C   UNL     1      47.040   1.157   6.988  0.00  0.00    +0.000 C 
ATOM     16  O   UNL     1      46.521   0.889   8.290  0.00  0.00    +0.000 OA
ATOM     17  C   UNL     1      45.345   1.654   8.571  0.00  0.00    +0.000 C 
ENDBRANCH  11  12
ENDBRANCH   9  11
ENDBRANCH   8   9
ENDBRANCH   5   8
ENDBRANCH   1   2
BRANCH   1  20
ATOM     18  C   UNL     1      48.927   6.933  15.855  0.00  0.00    +0.000 C 
ATOM     19  O   UNL     1      49.732   6.008  15.901  0.00  0.00    +0.000 OA
ATOM     20  N   UNL     1      48.306   7.279  14.687  0.00  0.00    +0.000 N 
ATOM     21  H   UNL     1      47.659   8.055  14.668  0.00  0.00    +0.000 HD
BRANCH  18  29
ATOM     22  C   UNL     1      47.846   6.056  19.008  0.00  0.00    +0.000 A 
ATOM     23  N   UNL     1      47.502   5.988  20.309  0.00  0.00    +0.000 NA
ATOM     24  C   UNL     1      47.421   7.130  20.996  0.00  0.00    +0.000 A 
ATOM     25  N   UNL     1      47.631   8.361  20.533  0.00  0.00    +0.000 NA
ATOM     26  C   UNL     1      47.984   8.381  19.236  0.00  0.00    +0.000 A 
ATOM     27  S   UNL     1      48.279   9.867  18.472  0.00  0.00    +0.000 S 
ATOM     28  C   UNL     1      48.657   9.096  17.006  0.00  0.00    +0.000 A 
ATOM     29  C   UNL     1      48.577   7.709  17.062  0.00  0.00    +0.000 A 
ATOM     30  C   UNL     1      48.142   7.285  18.393  0.00  0.00    +0.000 A 
BRANCH  22  32
ATOM     31  C   UNL     1      48.598   3.840  19.028  0.00  0.00    +0.000 C 
ATOM     32  O   UNL     1      47.942   4.876  18.301  0.00  0.00    +0.000 OA
ENDBRANCH  22  32
ENDBRANCH  18  29
ENDBRANCH   1  20
TORSDOF 8
ENDMDL
MODEL 5
REMARK VINA RESULT:    -6.943      1.967      3.412
REMARK INTER + INTRA:         -11.873
REMARK INTER:                 -10.623
REMARK INTRA:                  -1.250
REMARK UNBOUND:                -1.683
REMARK  Name = 
REMARK  9 active torsions:
REMARK  status: ('A' for Active; 'I' for Inactive)
REMARK    1  A    between atoms: C_1  and  O_2
REMARK    2  A    between atoms: O_2  and  C_3
REMARK    3  A    between atoms: C_10  and  C_11
REMARK    4  A    between atoms: N_13  and  C_14
REMARK    5  A    between atoms: C_14  and  C_15
REMARK    6  A    between atoms: C_18  and  C_19
REMARK    7  A    between atoms: C_19  and  N_20
REMARK    8  A    between atoms: N_20  and  C_21
REMARK    9  A    between atoms: C_21  and  C_22
REMARK                            x       y       z     vdW  Elec       q    Type
REMARK                         _______ _______ _______ _____ _____    ______ ____
ROOT
ATOM      1  C   UNL     1      47.298   4.009  14.711  0.00  0.00    +0.000 C 
ENDROOT
BRANCH   1   2
ATOM      2  C   UNL     1      46.288   4.311  13.631  0.00  0.00    +0.000 A 
ATOM      3  C   UNL     1      45.679   3.271  12.922  0.00  0.00    +0.000 A 
ATOM      4  C   UNL     1      44.775   3.544  11.889  0.00  0.00    +0.000 A 
ATOM      5  C   UNL     1      44.445   4.864  11.545  0.00  0.00    +0.000 A 
ATOM      6  C   UNL     1      45.079   5.905  12.239  0.00  0.00    +0.000 A 
ATOM      7  C   UNL     1      45.990   5.633  13.270  0.00  0.00    +0.000 A 
BRANCH   5   8
ATOM      8  C   UNL     1      43.485   5.181  10.411  0.00  0.00    +0.000 C 
BRANCH   8   9
ATOM      9  N   UNL     1      43.803   4.421   9.202  0.00  0.00    +0.000 NA
ATOM     10  H   UNL     1      43.187   4.735   8.451  0.00  0.00    +0.000 HD
BRANCH   9  11
ATOM     11  C   UNL     1      45.196   4.550   8.782  0.00  0.00    +0.000 C 
BRANCH  11  12
ATOM     12  C   UNL     1      45.584   3.342   7.907  0.00  0.00    +0.000 C 
ATOM     13  C   UNL     1      45.843   2.083   8.752  0.00  0.00    +0.000 C 
ATOM     14  C   UNL     1      46.357   0.938   7.886  0.00  0.00    +0.000 C 
ATOM     15  C   UNL     1      47.541   1.394   7.049  0.00  0.00    +0.000 C 
ATOM     16  O   UNL     1      47.180   2.520   6.248  0.00  0.00    +0.000 OA
ATOM     17  C   UNL     1      46.812   3.652   7.042  0.00  0.00    +0.000 C 
ENDBRANCH  11  12
ENDBRANCH   9  11
ENDBRANCH   8   9
ENDBRANCH   5   8
ENDBRANCH   1   2
BRANCH   1  20
ATOM     18  C   UNL     1      48.482   5.206  16.516  0.00  0.00    +0.000 C 
ATOM     19  O   UNL     1      49.209   4.242  16.736  0.00  0.00    +0.000 OA
ATOM     20  N   UNL     1      47.529   5.169  15.537  0.00  0.00    +0.000 N 
ATOM     21  H   UNL     1      46.952   5.980  15.362  0.00  0.00    +0.000 HD
BRANCH  18  29
ATOM     22  C   UNL     1      48.711   8.542  15.683  0.00  0.00    +0.000 A 
ATOM     23  N   UNL     1      48.728   9.888  15.639  0.00  0.00    +0.000 NA
ATOM     24  C   UNL     1      48.726  10.554  16.796  0.00  0.00    +0.000 A 
ATOM     25  N   UNL     1      48.724  10.031  18.020  0.00  0.00    +0.000 NA
ATOM     26  C   UNL     1      48.694   8.687  18.018  0.00  0.00    +0.000 A 
ATOM     27  S   UNL     1      48.700   7.847  19.492  0.00  0.00    +0.000 S 
ATOM     28  C   UNL     1      48.627   6.347  18.696  0.00  0.00    +0.000 A 
ATOM     29  C   UNL     1      48.589   6.446  17.309  0.00  0.00    +0.000 A 
ATOM     30  C   UNL     1      48.662   7.851  16.906  0.00  0.00    +0.000 A 
BRANCH  22  32
ATOM     31  C   UNL     1      49.999   7.689  13.924  0.00  0.00    +0.000 C 
ATOM     32  O   UNL     1      48.700   7.855  14.487  0.00  0.00    +0.000 OA
ENDBRANCH  22  32
ENDBRANCH  18  29
ENDBRANCH   1  20
TORSDOF 8
ENDMDL
MODEL 6
REMARK VINA RESULT:    -6.693      2.039      2.955
REMARK INTER + INTRA:         -11.506
REMARK INTER:                 -10.683
REMARK INTRA:                  -0.823
REMARK UNBOUND:                -1.683
REMARK  Name = 
REMARK  9 active torsions:
REMARK  status: ('A' for Active; 'I' for Inactive)
REMARK    1  A    between atoms: C_1  and  O_2
REMARK    2  A    between atoms: O_2  and  C_3
REMARK    3  A    between atoms: C_10  and  C_11
REMARK    4  A    between atoms: N_13  and  C_14
REMARK    5  A    between atoms: C_14  and  C_15
REMARK    6  A    between atoms: C_18  and  C_19
REMARK    7  A    between atoms: C_19  and  N_20
REMARK    8  A    between atoms: N_20  and  C_21
REMARK    9  A    between atoms: C_21  and  C_22
REMARK                            x       y       z     vdW  Elec       q    Type
REMARK                         _______ _______ _______ _____ _____    ______ ____
ROOT
ATOM      1  C   UNL     1      47.721   7.293  13.605  0.00  0.00    +0.000 C 
ENDROOT
BRANCH   1   2
ATOM      2  C   UNL     1      46.709   6.482  12.833  0.00  0.00    +0.000 A 
ATOM      3  C   UNL     1      46.515   6.709  11.466  0.00  0.00    +0.000 A 
ATOM      4  C   UNL     1      45.548   5.991  10.754  0.00  0.00    +0.000 A 
ATOM      5  C   UNL     1      44.757   5.017  11.384  0.00  0.00    +0.000 A 
ATOM      6  C   UNL     1      44.936   4.812  12.760  0.00  0.00    +0.000 A 
ATOM      7  C   UNL     1      45.900   5.535  13.477  0.00  0.00    +0.000 A 
BRANCH   5   8
ATOM      8  C   UNL     1      43.687   4.245  10.632  0.00  0.00    +0.000 C 
BRANCH   8   9
ATOM      9  N   UNL     1      44.268   3.306   9.673  0.00  0.00    +0.000 NA
ATOM     10  H   UNL     1      43.616   2.532   9.542  0.00  0.00    +0.000 HD
BRANCH   9  11
ATOM     11  C   UNL     1      44.579   3.911   8.379  0.00  0.00    +0.000 C 
BRANCH  11  12
ATOM     12  C   UNL     1      45.407   2.923   7.535  0.00  0.00    +0.000 C 
ATOM     13  C   UNL     1      45.956   1.763   8.384  0.00  0.00    +0.000 C 
ATOM     14  C   UNL     1      46.883   0.874   7.564  0.00  0.00    +0.000 C 
ATOM     15  C   UNL     1      47.945   1.710   6.869  0.00  0.00    +0.000 C 
ATOM     16  O   UNL     1      47.337   2.708   6.050  0.00  0.00    +0.000 OA
ATOM     17  C   UNL     1      46.559   3.634   6.815  0.00  0.00    +0.000 C 
ENDBRANCH  11  12
ENDBRANCH   9  11
ENDBRANCH   8   9
ENDBRANCH   5   8
ENDBRANCH   1   2
BRANCH   1  20
ATOM     18  C   UNL     1      48.973   6.616  15.622  0.00  0.00    +0.000 C 
ATOM     19  O   UNL     1      50.051   6.777  15.058  0.00  0.00    +0.000 OA
ATOM     20  N   UNL     1      47.791   6.856  14.978  0.00  0.00    +0.000 N 
ATOM     21  H   UNL     1      46.914   6.733  15.466  0.00  0.00    +0.000 HD
BRANCH  18  29
ATOM     22  C   UNL     1      49.057   8.207  18.678  0.00  0.00    +0.000 A 
ATOM     23  N   UNL     1      48.982   8.574  19.972  0.00  0.00    +0.000 NA
ATOM     24  C   UNL     1      48.798   7.617  20.885  0.00  0.00    +0.000 A 
ATOM     25  N   UNL     1      48.691   6.309  20.664  0.00  0.00    +0.000 NA
ATOM     26  C   UNL     1      48.758   5.989  19.360  0.00  0.00    +0.000 A 
ATOM     27  S   UNL     1      48.653   4.362  18.891  0.00  0.00    +0.000 S 
ATOM     28  C   UNL     1      48.781   4.774  17.248  0.00  0.00    +0.000 A 
ATOM     29  C   UNL     1      48.898   6.141  17.017  0.00  0.00    +0.000 A 
ATOM     30  C   UNL     1      48.916   6.863  18.289  0.00  0.00    +0.000 A 
BRANCH  22  32
ATOM     31  C   UNL     1      48.011   9.798  17.317  0.00  0.00    +0.000 C 
ATOM     32  O   UNL     1      49.234   9.196  17.734  0.00  0.00    +0.000 OA
ENDBRANCH  22  32
ENDBRANCH  18  29
ENDBRANCH   1  20
TORSDOF 8
ENDMDL
MODEL 7
REMARK VINA RESULT:    -6.681      3.444      7.839
REMARK INTER + INTRA:         -11.489
REMARK INTER:                  -9.793
REMARK INTRA:                  -1.696
REMARK UNBOUND:                -1.683
REMARK  Name = 
REMARK  9 active torsions:
REMARK  status: ('A' for Active; 'I' for Inactive)
REMARK    1  A    between atoms: C_1  and  O_2
REMARK    2  A    between atoms: O_2  and  C_3
REMARK    3  A    between atoms: C_10  and  C_11
REMARK    4  A    between atoms: N_13  and  C_14
REMARK    5  A    between atoms: C_14  and  C_15
REMARK    6  A    between atoms: C_18  and  C_19
REMARK    7  A    between atoms: C_19  and  N_20
REMARK    8  A    between atoms: N_20  and  C_21
REMARK    9  A    between atoms: C_21  and  C_22
REMARK                            x       y       z     vdW  Elec       q    Type
REMARK                         _______ _______ _______ _____ _____    ______ ____
ROOT
ATOM      1  C   UNL     1      48.332   8.118  11.820  0.00  0.00    +0.000 C 
ENDROOT
BRANCH   1   2
ATOM      2  C   UNL     1      48.468   8.008  13.319  0.00  0.00    +0.000 A 
ATOM      3  C   UNL     1      47.887   8.968  14.155  0.00  0.00    +0.000 A 
ATOM      4  C   UNL     1      48.046   8.896  15.543  0.00  0.00    +0.000 A 
ATOM      5  C   UNL     1      48.779   7.856  16.136  0.00  0.00    +0.000 A 
ATOM      6  C   UNL     1      49.383   6.911  15.294  0.00  0.00    +0.000 A 
ATOM      7  C   UNL     1      49.230   6.986  13.902  0.00  0.00    +0.000 A 
BRANCH   5   8
ATOM      8  C   UNL     1      48.982   7.775  17.639  0.00  0.00    +0.000 C 
BRANCH   8   9
ATOM      9  N   UNL     1      47.925   6.999  18.289  0.00  0.00    +0.000 NA
ATOM     10  H   UNL     1      47.388   6.516  17.568  0.00  0.00    +0.000 HD
BRANCH   9  11
ATOM     11  C   UNL     1      48.426   6.030  19.261  0.00  0.00    +0.000 C 
BRANCH  11  12
ATOM     12  C   UNL     1      48.237   4.603  18.710  0.00  0.00    +0.000 C 
ATOM     13  C   UNL     1      49.512   4.081  18.024  0.00  0.00    +0.000 C 
ATOM     14  C   UNL     1      49.264   2.728  17.367  0.00  0.00    +0.000 C 
ATOM     15  C   UNL     1      48.040   2.788  16.469  0.00  0.00    +0.000 C 
ATOM     16  O   UNL     1      46.897   3.212  17.212  0.00  0.00    +0.000 OA
ATOM     17  C   UNL     1      47.055   4.534  17.737  0.00  0.00    +0.000 C 
ENDBRANCH  11  12
ENDBRANCH   9  11
ENDBRANCH   8   9
ENDBRANCH   5   8
ENDBRANCH   1   2
BRANCH   1  20
ATOM     18  C   UNL     1      46.250   6.937  11.221  0.00  0.00    +0.000 C 
ATOM     19  O   UNL     1      45.557   7.872  11.609  0.00  0.00    +0.000 OA
ATOM     20  N   UNL     1      47.614   6.987  11.285  0.00  0.00    +0.000 N 
ATOM     21  H   UNL     1      48.167   6.213  10.944  0.00  0.00    +0.000 HD
BRANCH  18  29
ATOM     22  C   UNL     1      44.480   4.342  12.639  0.00  0.00    +0.000 A 
ATOM     23  N   UNL     1      43.714   3.269  12.916  0.00  0.00    +0.000 NA
ATOM     24  C   UNL     1      43.363   2.471  11.904  0.00  0.00    +0.000 A 
ATOM     25  N   UNL     1      43.702   2.606  10.624  0.00  0.00    +0.000 NA
ATOM     26  C   UNL     1      44.455   3.695  10.391  0.00  0.00    +0.000 A 
ATOM     27  S   UNL     1      44.992   4.020   8.815  0.00  0.00    +0.000 S 
ATOM     28  C   UNL     1      45.776   5.440   9.320  0.00  0.00    +0.000 A 
ATOM     29  C   UNL     1      45.644   5.704  10.679  0.00  0.00    +0.000 A 
ATOM     30  C   UNL     1      44.878   4.637  11.324  0.00  0.00    +0.000 A 
BRANCH  22  32
ATOM     31  C   UNL     1      46.153   4.940  14.164  0.00  0.00    +0.000 C 
ATOM     32  O   UNL     1      44.831   5.173  13.682  0.00  0.00    +0.000 OA
ENDBRANCH  22  32
ENDBRANCH  18  29
ENDBRANCH   1  20
TORSDOF 8
ENDMDL
MODEL 8
REMARK VINA RESULT:    -6.450      2.137      3.825
REMARK INTER + INTRA:         -11.149
REMARK INTER:                 -10.092
REMARK INTRA:                  -1.057
REMARK UNBOUND:                -1.683
REMARK  Name = 
REMARK  9 active torsions:
REMARK  status: ('A' for Active; 'I' for Inactive)
REMARK    1  A    between atoms: C_1  and  O_2
REMARK    2  A    between atoms: O_2  and  C_3
REMARK    3  A    between atoms: C_10  and  C_11
REMARK    4  A    between atoms: N_13  and  C_14
REMARK    5  A    between atoms: C_14  and  C_15
REMARK    6  A    between atoms: C_18  and  C_19
REMARK    7  A    between atoms: C_19  and  N_20
REMARK    8  A    between atoms: N_20  and  C_21
REMARK    9  A    between atoms: C_21  and  C_22
REMARK                            x       y       z     vdW  Elec       q    Type
REMARK                         _______ _______ _______ _____ _____    ______ ____
ROOT
ATOM      1  C   UNL     1      47.261   4.875  14.747  0.00  0.00    +0.000 C 
ENDROOT
BRANCH   1   2
ATOM      2  C   UNL     1      46.264   4.811  13.616  0.00  0.00    +0.000 A 
ATOM      3  C   UNL     1      45.937   3.582  13.030  0.00  0.00    +0.000 A 
ATOM      4  C   UNL     1      45.047   3.520  11.952  0.00  0.00    +0.000 A 
ATOM      5  C   UNL     1      44.450   4.681  11.437  0.00  0.00    +0.000 A 
ATOM      6  C   UNL     1      44.801   5.912  12.008  0.00  0.00    +0.000 A 
ATOM      7  C   UNL     1      45.698   5.978  13.084  0.00  0.00    +0.000 A 
BRANCH   5   8
ATOM      8  C   UNL     1      43.500   4.634  10.252  0.00  0.00    +0.000 C 
BRANCH   8   9
ATOM      9  N   UNL     1      44.190   4.261   9.018  0.00  0.00    +0.000 NA
ATOM     10  H   UNL     1      45.075   4.768   8.975  0.00  0.00    +0.000 HD
BRANCH   9  11
ATOM     11  C   UNL     1      44.439   2.826   8.900  0.00  0.00    +0.000 C 
BRANCH  11  12
ATOM     12  C   UNL     1      45.879   2.592   8.403  0.00  0.00    +0.000 C 
ATOM     13  C   UNL     1      46.221   3.486   7.198  0.00  0.00    +0.000 C 
ATOM     14  C   UNL     1      47.596   3.144   6.636  0.00  0.00    +0.000 C 
ATOM     15  C   UNL     1      47.707   1.652   6.370  0.00  0.00    +0.000 C 
ATOM     16  O   UNL     1      47.444   0.913   7.563  0.00  0.00    +0.000 OA
ATOM     17  C   UNL     1      46.112   1.120   8.044  0.00  0.00    +0.000 C 
ENDBRANCH  11  12
ENDBRANCH   9  11
ENDBRANCH   8   9
ENDBRANCH   5   8
ENDBRANCH   1   2
BRANCH   1  20
ATOM     18  C   UNL     1      48.957   6.453  15.598  0.00  0.00    +0.000 C 
ATOM     19  O   UNL     1      49.508   5.573  16.253  0.00  0.00    +0.000 OA
ATOM     20  N   UNL     1      47.857   6.186  14.832  0.00  0.00    +0.000 N 
ATOM     21  H   UNL     1      47.429   6.922  14.287  0.00  0.00    +0.000 HD
BRANCH  18  29
ATOM     22  C   UNL     1      49.943   8.658  13.140  0.00  0.00    +0.000 A 
ATOM     23  N   UNL     1      50.294   9.721  12.391  0.00  0.00    +0.000 NA
ATOM     24  C   UNL     1      50.564  10.869  13.019  0.00  0.00    +0.000 A 
ATOM     25  N   UNL     1      50.541  11.089  14.331  0.00  0.00    +0.000 NA
ATOM     26  C   UNL     1      50.174  10.006  15.039  0.00  0.00    +0.000 A 
ATOM     27  S   UNL     1      50.101  10.098  16.732  0.00  0.00    +0.000 S 
ATOM     28  C   UNL     1      49.581   8.484  16.848  0.00  0.00    +0.000 A 
ATOM     29  C   UNL     1      49.444   7.846  15.619  0.00  0.00    +0.000 A 
ATOM     30  C   UNL     1      49.832   8.754  14.538  0.00  0.00    +0.000 A 
BRANCH  22  32
ATOM     31  C   UNL     1      48.610   7.610  11.527  0.00  0.00    +0.000 C 
ATOM     32  O   UNL     1      49.651   7.477  12.492  0.00  0.00    +0.000 OA
ENDBRANCH  22  32
ENDBRANCH  18  29
ENDBRANCH   1  20
TORSDOF 8
ENDMDL
MODEL 9
REMARK VINA RESULT:    -6.121      3.437      5.935
REMARK INTER + INTRA:         -10.666
REMARK INTER:                  -9.601
REMARK INTRA:                  -1.065
REMARK UNBOUND:                -1.683
REMARK  Name = 
REMARK  9 active torsions:
REMARK  status: ('A' for Active; 'I' for Inactive)
REMARK    1  A    between atoms: C_1  and  O_2
REMARK    2  A    between atoms: O_2  and  C_3
REMARK    3  A    between atoms: C_10  and  C_11
REMARK    4  A    between atoms: N_13  and  C_14
REMARK    5  A    between atoms: C_14  and  C_15
REMARK    6  A    between atoms: C_18  and  C_19
REMARK    7  A    between atoms: C_19  and  N_20
REMARK    8  A    between atoms: N_20  and  C_21
REMARK    9  A    between atoms: C_21  and  C_22
REMARK                            x       y       z     vdW  Elec       q    Type
REMARK                         _______ _______ _______ _____ _____    ______ ____
ROOT
ATOM      1  C   UNL     1      48.399   3.323  18.036  0.00  0.00    +0.000 C 
ENDROOT
BRANCH   1   2
ATOM      2  C   UNL     1      48.150   4.144  16.795  0.00  0.00    +0.000 A 
ATOM      3  C   UNL     1      48.664   5.441  16.691  0.00  0.00    +0.000 A 
ATOM      4  C   UNL     1      48.401   6.225  15.562  0.00  0.00    +0.000 A 
ATOM      5  C   UNL     1      47.628   5.729  14.500  0.00  0.00    +0.000 A 
ATOM      6  C   UNL     1      47.092   4.439  14.620  0.00  0.00    +0.000 A 
ATOM      7  C   UNL     1      47.349   3.655  15.754  0.00  0.00    +0.000 A 
BRANCH   5   8
ATOM      8  C   UNL     1      47.313   6.573  13.277  0.00  0.00    +0.000 C 
BRANCH   8   9
ATOM      9  N   UNL     1      45.909   6.984  13.248  0.00  0.00    +0.000 NA
ATOM     10  H   UNL     1      45.864   7.994  13.383  0.00  0.00    +0.000 HD
BRANCH   9  11
ATOM     11  C   UNL     1      45.221   6.622  12.010  0.00  0.00    +0.000 C 
BRANCH  11  12
ATOM     12  C   UNL     1      45.018   5.095  11.961  0.00  0.00    +0.000 C 
ATOM     13  C   UNL     1      44.666   4.610  10.544  0.00  0.00    +0.000 C 
ATOM     14  C   UNL     1      44.335   3.122  10.541  0.00  0.00    +0.000 C 
ATOM     15  C   UNL     1      43.289   2.808  11.597  0.00  0.00    +0.000 C 
ATOM     16  O   UNL     1      43.738   3.229  12.885  0.00  0.00    +0.000 OA
ATOM     17  C   UNL     1      43.937   4.645  12.950  0.00  0.00    +0.000 C 
ENDBRANCH  11  12
ENDBRANCH   9  11
ENDBRANCH   8   9
ENDBRANCH   5   8
ENDBRANCH   1   2
BRANCH   1  20
ATOM     18  C   UNL     1      50.515   2.247  17.361  0.00  0.00    +0.000 C 
ATOM     19  O   UNL     1      49.982   1.706  16.397  0.00  0.00    +0.000 OA
ATOM     20  N   UNL     1      49.807   3.058  18.204  0.00  0.00    +0.000 N 
ATOM     21  H   UNL     1      50.270   3.507  18.982  0.00  0.00    +0.000 HD
BRANCH  18  29
ATOM     22  C   UNL     1      53.088   4.361  18.248  0.00  0.00    +0.000 A 
ATOM     23  N   UNL     1      54.227   4.938  18.676  0.00  0.00    +0.000 NA
ATOM     24  C   UNL     1      55.285   4.153  18.896  0.00  0.00    +0.000 A 
ATOM     25  N   UNL     1      55.353   2.835  18.723  0.00  0.00    +0.000 NA
ATOM     26  C   UNL     1      54.192   2.298  18.307  0.00  0.00    +0.000 A 
ATOM     27  S   UNL     1      54.096   0.629  18.022  0.00  0.00    +0.000 S 
ATOM     28  C   UNL     1      52.455   0.744  17.597  0.00  0.00    +0.000 A 
ATOM     29  C   UNL     1      51.943   2.036  17.668  0.00  0.00    +0.000 A 
ATOM     30  C   UNL     1      52.998   2.970  18.064  0.00  0.00    +0.000 A 
BRANCH  22  32
ATOM     31  C   UNL     1      52.086   5.933  16.832  0.00  0.00    +0.000 C 
ATOM     32  O   UNL     1      51.993   5.170  18.033  0.00  0.00    +0.000 OA
ENDBRANCH  22  32
ENDBRANCH  18  29
ENDBRANCH   1  20
TORSDOF 8
ENDMDL
