MODEL 1
REMARK VINA RESULT:    -7.601      0.000      0.000
REMARK INTER + INTRA:         -12.988
REMARK INTER:                 -11.823
REMARK INTRA:                  -1.166
REMARK UNBOUND:                -1.166
REMARK  Name = 
REMARK  11 active torsions:
REMARK  status: ('A' for Active; 'I' for Inactive)
REMARK    1  A    between atoms: C_1  and  C_2
REMARK    2  A    between atoms: C_2  and  C_3
REMARK    3  A    between atoms: C_3  and  N_4
REMARK    4  A    between atoms: C_3  and  C_20
REMARK    5  A    between atoms: N_4  and  C_5
REMARK    6  A    between atoms: C_5  and  C_6
REMARK    7  A    between atoms: C_9  and  C_10
REMARK    8  A    between atoms: C_10  and  O_11
REMARK    9  A    between atoms: C_10  and  C_12
REMARK   10  A    between atoms: C_12  and  N_13
REMARK   11  A    between atoms: C_20  and  C_22
REMARK                            x       y       z     vdW  Elec       q    Type
REMARK                         _______ _______ _______ _____ _____    ______ ____
ROOT
ATOM      1  N   UNL     1      48.094   5.600  15.623  0.00  0.00    +0.000 NA
ATOM      2  H   UNL     1      48.206   4.631  15.314  0.00  0.00    +0.000 HD
ENDROOT
BRANCH   1   3
ATOM      3  C   UNL     1      49.092   5.878  16.677  0.00  0.00    +0.000 C 
BRANCH   3   5
ATOM      4  C   UNL     1      49.634   8.231  17.567  0.00  0.00    +0.000 C 
ATOM      5  C   UNL     1      48.629   7.087  17.513  0.00  0.00    +0.000 C 
ENDBRANCH   3   5
BRANCH   3   6
ATOM      6  C   UNL     1      49.263   4.664  17.637  0.00  0.00    +0.000 C 
ATOM      7  O   UNL     1      48.274   4.087  18.094  0.00  0.00    +0.000 OA
BRANCH   6   8
ATOM      8  C   UNL     1      50.618   4.263  18.030  0.00  0.00    +0.000 A 
ATOM      9  C   UNL     1      51.476   5.085  18.746  0.00  0.00    +0.000 A 
ATOM     10  S   UNL     1      52.947   4.328  19.169  0.00  0.00    +0.000 S 
ATOM     11  C   UNL     1      52.488   2.881  18.400  0.00  0.00    +0.000 A 
ATOM     12  N   UNL     1      53.306   1.796  18.413  0.00  0.00    +0.000 NA
ATOM     13  C   UNL     1      52.815   0.756  17.824  0.00  0.00    +0.000 A 
ATOM     14  N   UNL     1      51.594   0.714  17.201  0.00  0.00    +0.000 N 
ATOM     15  C   UNL     1      50.801   1.830  17.035  0.00  0.00    +0.000 A 
ATOM     16  O   UNL     1      49.868   1.830  16.239  0.00  0.00    +0.000 OA
ATOM     17  C   UNL     1      51.250   2.986  17.794  0.00  0.00    +0.000 A 
ATOM     18  H   UNL     1      51.310  -0.107  16.688  0.00  0.00    +0.000 HD
ENDBRANCH   6   8
ENDBRANCH   3   6
ENDBRANCH   1   3
BRANCH   1  19
ATOM     19  C   UNL     1      48.233   6.462  14.448  0.00  0.00    +0.000 C 
BRANCH  19  20
ATOM     20  C   UNL     1      47.313   5.989  13.348  0.00  0.00    +0.000 A 
ATOM     21  C   UNL     1      47.192   6.712  12.153  0.00  0.00    +0.000 A 
ATOM     22  C   UNL     1      46.275   6.320  11.174  0.00  0.00    +0.000 A 
ATOM     23  C   UNL     1      45.461   5.194  11.366  0.00  0.00    +0.000 A 
ATOM     24  C   UNL     1      45.614   4.450  12.545  0.00  0.00    +0.000 A 
ATOM     25  C   UNL     1      46.526   4.846  13.526  0.00  0.00    +0.000 A 
BRANCH  23  26
ATOM     26  C   UNL     1      44.418   4.831  10.323  0.00  0.00    +0.000 C 
BRANCH  26  27
ATOM     27  O   UNL     1      43.211   5.538  10.614  0.00  0.00    +0.000 OA
ATOM     28  H   UNL     1      43.413   6.198  11.294  0.00  0.00    +0.000 HD
ENDBRANCH  26  27
BRANCH  26  29
ATOM     29  C   UNL     1      44.182   3.295  10.241  0.00  0.00    +0.000 C 
BRANCH  29  30
ATOM     30  N   UNL     1      44.109   2.726   8.874  0.00  0.00    +0.000 NA
ATOM     31  C   UNL     1      44.987   1.550   8.742  0.00  0.00    +0.000 C 
ATOM     32  C   UNL     1      46.342   2.128   8.384  0.00  0.00    +0.000 C 
ATOM     33  C   UNL     1      45.977   3.249   7.431  0.00  0.00    +0.000 C 
ATOM     34  C   UNL     1      44.565   3.664   7.834  0.00  0.00    +0.000 C 
ENDBRANCH  29  30
ENDBRANCH  26  29
ENDBRANCH  23  26
ENDBRANCH  19  20
ENDBRANCH   1  19
TORSDOF 10
ENDMDL
MODEL 2
REMARK VINA RESULT:    -7.133      1.895      2.409
REMARK INTER + INTRA:         -12.260
REMARK INTER:                 -10.688
REMARK INTRA:                  -1.572
REMARK UNBOUND:                -1.166
REMARK  Name = 
REMARK  11 active torsions:
REMARK  status: ('A' for Active; 'I' for Inactive)
REMARK    1  A    between atoms: C_1  and  C_2
REMARK    2  A    between atoms: C_2  and  C_3
REMARK    3  A    between atoms: C_3  and  N_4
REMARK    4  A    between atoms: C_3  and  C_20
REMARK    5  A    between atoms: N_4  and  C_5
REMARK    6  A    between atoms: C_5  and  C_6
REMARK    7  A    between atoms: C_9  and  C_10
REMARK    8  A    between atoms: C_10  and  O_11
REMARK    9  A    between atoms: C_10  and  C_12
REMARK   10  A    between atoms: C_12  and  N_13
REMARK   11  A    between atoms: C_20  and  C_22
REMARK                            x       y       z     vdW  Elec       q    Type
REMARK                         _______ _______ _______ _____ _____    ______ ____
ROOT
ATOM      1  N   UNL     1      49.368   6.645  14.867  0.00  0.00    +0.000 NA
ATOM      2  H   UNL     1      50.309   6.268  14.725  0.00  0.00    +0.000 HD
ENDROOT
BRANCH   1   3
ATOM      3  C   UNL     1      49.410   7.608  15.987  0.00  0.00    +0.000 C 
BRANCH   3   5
ATOM      4  C   UNL     1      49.071  10.157  15.867  0.00  0.00    +0.000 C 
ATOM      5  C   UNL     1      48.449   8.777  15.693  0.00  0.00    +0.000 C 
ENDBRANCH   3   5
BRANCH   3   6
ATOM      6  C   UNL     1      48.970   6.947  17.327  0.00  0.00    +0.000 C 
ATOM      7  O   UNL     1      48.853   7.628  18.348  0.00  0.00    +0.000 OA
BRANCH   6   8
ATOM      8  C   UNL     1      48.760   5.496  17.360  0.00  0.00    +0.000 A 
ATOM      9  C   UNL     1      47.507   4.907  17.266  0.00  0.00    +0.000 A 
ATOM     10  S   UNL     1      47.560   3.202  17.217  0.00  0.00    +0.000 S 
ATOM     11  C   UNL     1      49.257   3.194  17.330  0.00  0.00    +0.000 A 
ATOM     12  N   UNL     1      49.952   2.027  17.315  0.00  0.00    +0.000 NA
ATOM     13  C   UNL     1      51.234   2.173  17.371  0.00  0.00    +0.000 A 
ATOM     14  N   UNL     1      51.880   3.378  17.468  0.00  0.00    +0.000 N 
ATOM     15  C   UNL     1      51.212   4.573  17.635  0.00  0.00    +0.000 A 
ATOM     16  O   UNL     1      51.804   5.582  18.003  0.00  0.00    +0.000 OA
ATOM     17  C   UNL     1      49.774   4.472  17.446  0.00  0.00    +0.000 A 
ATOM     18  H   UNL     1      52.881   3.413  17.592  0.00  0.00    +0.000 HD
ENDBRANCH   6   8
ENDBRANCH   3   6
ENDBRANCH   1   3
BRANCH   1  19
ATOM     19  C   UNL     1      48.929   7.240  13.604  0.00  0.00    +0.000 C 
BRANCH  19  20
ATOM     20  C   UNL     1      47.773   6.452  13.035  0.00  0.00    +0.000 A 
ATOM     21  C   UNL     1      47.192   6.813  11.812  0.00  0.00    +0.000 A 
ATOM     22  C   UNL     1      46.066   6.137  11.333  0.00  0.00    +0.000 A 
ATOM     23  C   UNL     1      45.499   5.082  12.063  0.00  0.00    +0.000 A 
ATOM     24  C   UNL     1      46.109   4.698  13.267  0.00  0.00    +0.000 A 
ATOM     25  C   UNL     1      47.229   5.378  13.749  0.00  0.00    +0.000 A 
BRANCH  23  26
ATOM     26  C   UNL     1      44.232   4.413  11.561  0.00  0.00    +0.000 C 
BRANCH  26  27
ATOM     27  O   UNL     1      43.303   4.317  12.643  0.00  0.00    +0.000 OA
ATOM     28  H   UNL     1      43.780   4.527  13.460  0.00  0.00    +0.000 HD
ENDBRANCH  26  27
BRANCH  26  29
ATOM     29  C   UNL     1      44.518   3.023  10.921  0.00  0.00    +0.000 C 
BRANCH  29  30
ATOM     30  N   UNL     1      44.099   2.865   9.508  0.00  0.00    +0.000 NA
ATOM     31  C   UNL     1      44.706   1.664   8.907  0.00  0.00    +0.000 C 
ATOM     32  C   UNL     1      46.059   2.132   8.409  0.00  0.00    +0.000 C 
ATOM     33  C   UNL     1      45.746   3.510   7.859  0.00  0.00    +0.000 C 
ATOM     34  C   UNL     1      44.529   3.983   8.651  0.00  0.00    +0.000 C 
ENDBRANCH  29  30
ENDBRANCH  26  29
ENDBRANCH  23  26
ENDBRANCH  19  20
ENDBRANCH   1  19
TORSDOF 10
ENDMDL
MODEL 3
REMARK VINA RESULT:    -7.056      3.151      4.924
REMARK INTER + INTRA:         -12.141
REMARK INTER:                 -11.113
REMARK INTRA:                  -1.027
REMARK UNBOUND:                -1.166
REMARK  Name = 
REMARK  11 active torsions:
REMARK  status: ('A' for Active; 'I' for Inactive)
REMARK    1  A    between atoms: C_1  and  C_2
REMARK    2  A    between atoms: C_2  and  C_3
REMARK    3  A    between atoms: C_3  and  N_4
REMARK    4  A    between atoms: C_3  and  C_20
REMARK    5  A    between atoms: N_4  and  C_5
REMARK    6  A    between atoms: C_5  and  C_6
REMARK    7  A    between atoms: C_9  and  C_10
REMARK    8  A    between atoms: C_10  and  O_11
REMARK    9  A    between atoms: C_10  and  C_12
REMARK   10  A    between atoms: C_12  and  N_13
REMARK   11  A    between atoms: C_20  and  C_22
REMARK                            x       y       z     vdW  Elec       q    Type
REMARK                         _______ _______ _______ _____ _____    ______ ____
ROOT
ATOM      1  N   UNL     1      48.069   5.418  14.361  0.00  0.00    +0.000 NA
ATOM      2  H   UNL     1      48.990   5.849  14.244  0.00  0.00    +0.000 HD
ENDROOT
BRANCH   1   3
ATOM      3  C   UNL     1      47.833   5.191  15.802  0.00  0.00    +0.000 C 
BRANCH   3   5
ATOM      4  C   UNL     1      47.158   3.267  17.373  0.00  0.00    +0.000 C 
ATOM      5  C   UNL     1      47.880   3.679  16.096  0.00  0.00    +0.000 C 
ENDBRANCH   3   5
BRANCH   3   6
ATOM      6  C   UNL     1      48.916   5.888  16.676  0.00  0.00    +0.000 C 
ATOM      7  O   UNL     1      50.111   5.638  16.502  0.00  0.00    +0.000 OA
BRANCH   6   8
ATOM      8  C   UNL     1      48.483   6.794  17.744  0.00  0.00    +0.000 A 
ATOM      9  C   UNL     1      48.267   6.382  19.051  0.00  0.00    +0.000 A 
ATOM     10  S   UNL     1      47.880   7.661  20.112  0.00  0.00    +0.000 S 
ATOM     11  C   UNL     1      47.979   8.806  18.859  0.00  0.00    +0.000 A 
ATOM     12  N   UNL     1      47.777  10.128  19.104  0.00  0.00    +0.000 NA
ATOM     13  C   UNL     1      47.920  10.887  18.069  0.00  0.00    +0.000 A 
ATOM     14  N   UNL     1      48.219  10.439  16.807  0.00  0.00    +0.000 N 
ATOM     15  C   UNL     1      48.285   9.100  16.485  0.00  0.00    +0.000 A 
ATOM     16  O   UNL     1      48.266   8.730  15.316  0.00  0.00    +0.000 OA
ATOM     17  C   UNL     1      48.262   8.218  17.640  0.00  0.00    +0.000 A 
ATOM     18  H   UNL     1      48.233  11.080  16.028  0.00  0.00    +0.000 HD
ENDBRANCH   6   8
ENDBRANCH   3   6
ENDBRANCH   1   3
BRANCH   1  19
ATOM     19  C   UNL     1      47.080   6.301  13.740  0.00  0.00    +0.000 C 
BRANCH  19  20
ATOM     20  C   UNL     1      46.259   5.531  12.733  0.00  0.00    +0.000 A 
ATOM     21  C   UNL     1      45.822   4.229  13.009  0.00  0.00    +0.000 A 
ATOM     22  C   UNL     1      45.139   3.487  12.040  0.00  0.00    +0.000 A 
ATOM     23  C   UNL     1      44.874   4.034  10.775  0.00  0.00    +0.000 A 
ATOM     24  C   UNL     1      45.278   5.352  10.518  0.00  0.00    +0.000 A 
ATOM     25  C   UNL     1      45.966   6.090  11.483  0.00  0.00    +0.000 A 
BRANCH  23  26
ATOM     26  C   UNL     1      44.199   3.184   9.713  0.00  0.00    +0.000 C 
BRANCH  26  27
ATOM     27  O   UNL     1      44.219   1.819  10.135  0.00  0.00    +0.000 OA
ATOM     28  H   UNL     1      44.835   1.342   9.558  0.00  0.00    +0.000 HD
ENDBRANCH  26  27
BRANCH  26  29
ATOM     29  C   UNL     1      44.856   3.365   8.314  0.00  0.00    +0.000 C 
BRANCH  29  30
ATOM     30  N   UNL     1      46.305   3.060   8.238  0.00  0.00    +0.000 NA
ATOM     31  C   UNL     1      46.958   3.852   7.181  0.00  0.00    +0.000 C 
ATOM     32  C   UNL     1      46.763   3.035   5.919  0.00  0.00    +0.000 C 
ATOM     33  C   UNL     1      46.968   1.617   6.414  0.00  0.00    +0.000 C 
ATOM     34  C   UNL     1      46.581   1.655   7.890  0.00  0.00    +0.000 C 
ENDBRANCH  29  30
ENDBRANCH  26  29
ENDBRANCH  23  26
ENDBRANCH  19  20
ENDBRANCH   1  19
TORSDOF 10
ENDMDL
MODEL 4
REMARK VINA RESULT:    -6.961      3.133      3.959
REMARK INTER + INTRA:         -11.992
REMARK INTER:                 -10.570
REMARK INTRA:                  -1.422
REMARK UNBOUND:                -1.166
REMARK  Name = 
REMARK  11 active torsions:
REMARK  status: ('A' for Active; 'I' for Inactive)
REMARK    1  A    between atoms: C_1  and  C_2
REMARK    2  A    between atoms: C_2  and  C_3
REMARK    3  A    between atoms: C_3  and  N_4
REMARK    4  A    between atoms: C_3  and  C_20
REMARK    5  A    between atoms: N_4  and  C_5
REMARK    6  A    between atoms: C_5  and  C_6
REMARK    7  A    between atoms: C_9  and  C_10
REMARK    8  A    between atoms: C_10  and  O_11
REMARK    9  A    between atoms: C_10  and  C_12
REMARK   10  A    between atoms: C_12  and  N_13
REMARK   11  A    between atoms: C_20  and  C_22
REMARK                            x       y       z     vdW  Elec       q    Type
REMARK                         _______ _______ _______ _____ _____    ______ ____
ROOT
ATOM      1  N   UNL     1      47.453   7.808  14.288  0.00  0.00    +0.000 NA
ATOM      2  H   UNL     1      47.015   7.002  14.742  0.00  0.00    +0.000 HD
ENDROOT
BRANCH   1   3
ATOM      3  C   UNL     1      48.813   7.426  13.856  0.00  0.00    +0.000 C 
BRANCH   3   5
ATOM      4  C   UNL     1      49.911   7.638  11.538  0.00  0.00    +0.000 C 
ATOM      5  C   UNL     1      49.269   8.358  12.716  0.00  0.00    +0.000 C 
ENDBRANCH   3   5
BRANCH   3   6
ATOM      6  C   UNL     1      49.839   7.549  15.021  0.00  0.00    +0.000 C 
ATOM      7  O   UNL     1      51.045   7.408  14.805  0.00  0.00    +0.000 OA
BRANCH   6   8
ATOM      8  C   UNL     1      49.337   7.772  16.380  0.00  0.00    +0.000 A 
ATOM      9  C   UNL     1      49.514   8.963  17.070  0.00  0.00    +0.000 A 
ATOM     10  S   UNL     1      48.732   8.993  18.587  0.00  0.00    +0.000 S 
ATOM     11  C   UNL     1      48.140   7.412  18.376  0.00  0.00    +0.000 A 
ATOM     12  N   UNL     1      47.355   6.830  19.320  0.00  0.00    +0.000 NA
ATOM     13  C   UNL     1      46.948   5.643  19.012  0.00  0.00    +0.000 A 
ATOM     14  N   UNL     1      47.277   4.979  17.858  0.00  0.00    +0.000 N 
ATOM     15  C   UNL     1      48.186   5.471  16.946  0.00  0.00    +0.000 A 
ATOM     16  O   UNL     1      48.674   4.745  16.086  0.00  0.00    +0.000 OA
ATOM     17  C   UNL     1      48.567   6.853  17.185  0.00  0.00    +0.000 A 
ATOM     18  H   UNL     1      46.990   4.021  17.721  0.00  0.00    +0.000 HD
ENDBRANCH   6   8
ENDBRANCH   3   6
ENDBRANCH   1   3
BRANCH   1  19
ATOM     19  C   UNL     1      46.586   8.223  13.183  0.00  0.00    +0.000 C 
BRANCH  19  20
ATOM     20  C   UNL     1      45.960   7.012  12.533  0.00  0.00    +0.000 A 
ATOM     21  C   UNL     1      46.310   6.637  11.229  0.00  0.00    +0.000 A 
ATOM     22  C   UNL     1      45.664   5.569  10.599  0.00  0.00    +0.000 A 
ATOM     23  C   UNL     1      44.657   4.851  11.261  0.00  0.00    +0.000 A 
ATOM     24  C   UNL     1      44.338   5.204  12.580  0.00  0.00    +0.000 A 
ATOM     25  C   UNL     1      44.979   6.275  13.207  0.00  0.00    +0.000 A 
BRANCH  23  26
ATOM     26  C   UNL     1      43.916   3.745  10.530  0.00  0.00    +0.000 C 
BRANCH  26  27
ATOM     27  O   UNL     1      42.916   3.208  11.399  0.00  0.00    +0.000 OA
ATOM     28  H   UNL     1      43.171   2.298  11.613  0.00  0.00    +0.000 HD
ENDBRANCH  26  27
BRANCH  26  29
ATOM     29  C   UNL     1      44.880   2.640  10.008  0.00  0.00    +0.000 C 
BRANCH  29  30
ATOM     30  N   UNL     1      44.720   2.265   8.583  0.00  0.00    +0.000 NA
ATOM     31  C   UNL     1      45.767   1.316   8.164  0.00  0.00    +0.000 C 
ATOM     32  C   UNL     1      46.934   2.194   7.758  0.00  0.00    +0.000 C 
ATOM     33  C   UNL     1      46.246   3.344   7.048  0.00  0.00    +0.000 C 
ATOM     34  C   UNL     1      44.852   3.411   7.667  0.00  0.00    +0.000 C 
ENDBRANCH  29  30
ENDBRANCH  26  29
ENDBRANCH  23  26
ENDBRANCH  19  20
ENDBRANCH   1  19
TORSDOF 10
ENDMDL
MODEL 5
REMARK VINA RESULT:    -6.896      3.380      4.609
REMARK INTER + INTRA:         -11.892
REMARK INTER:                 -10.224
REMARK INTRA:                  -1.668
REMARK UNBOUND:                -1.166
REMARK  Name = 
REMARK  11 active torsions:
REMARK  status: ('A' for Active; 'I' for Inactive)
REMARK    1  A    between atoms: C_1  and  C_2
REMARK    2  A    between atoms: C_2  and  C_3
REMARK    3  A    between atoms: C_3  and  N_4
REMARK    4  A    between atoms: C_3  and  C_20
REMARK    5  A    between atoms: N_4  and  C_5
REMARK    6  A    between atoms: C_5  and  C_6
REMARK    7  A    between atoms: C_9  and  C_10
REMARK    8  A    between atoms: C_10  and  O_11
REMARK    9  A    between atoms: C_10  and  C_12
REMARK   10  A    between atoms: C_12  and  N_13
REMARK   11  A    between atoms: C_20  and  C_22
REMARK                            x       y       z     vdW  Elec       q    Type
REMARK                         _______ _______ _______ _____ _____    ______ ____
ROOT
ATOM      1  N   UNL     1      47.331   7.472  14.247  0.00  0.00    +0.000 NA
ATOM      2  H   UNL     1      46.872   6.608  14.548  0.00  0.00    +0.000 HD
ENDROOT
BRANCH   1   3
ATOM      3  C   UNL     1      48.724   7.159  13.868  0.00  0.00    +0.000 C 
BRANCH   3   5
ATOM      4  C   UNL     1      50.042   7.714  11.728  0.00  0.00    +0.000 C 
ATOM      5  C   UNL     1      49.252   8.250  12.915  0.00  0.00    +0.000 C 
ENDBRANCH   3   5
BRANCH   3   6
ATOM      6  C   UNL     1      49.659   7.112  15.113  0.00  0.00    +0.000 C 
ATOM      7  O   UNL     1      50.868   7.323  14.992  0.00  0.00    +0.000 OA
BRANCH   6   8
ATOM      8  C   UNL     1      49.083   6.752  16.412  0.00  0.00    +0.000 A 
ATOM      9  C   UNL     1      49.067   5.455  16.904  0.00  0.00    +0.000 A 
ATOM     10  S   UNL     1      48.440   5.336  18.487  0.00  0.00    +0.000 S 
ATOM     11  C   UNL     1      48.161   7.012  18.563  0.00  0.00    +0.000 A 
ATOM     12  N   UNL     1      47.648   7.583  19.685  0.00  0.00    +0.000 NA
ATOM     13  C   UNL     1      47.523   8.867  19.616  0.00  0.00    +0.000 A 
ATOM     14  N   UNL     1      47.840   9.625  18.518  0.00  0.00    +0.000 N 
ATOM     15  C   UNL     1      48.221   9.073  17.313  0.00  0.00    +0.000 A 
ATOM     16  O   UNL     1      48.219   9.740  16.283  0.00  0.00    +0.000 OA
ATOM     17  C   UNL     1      48.501   7.648  17.384  0.00  0.00    +0.000 A 
ATOM     18  H   UNL     1      47.638  10.614  18.504  0.00  0.00    +0.000 HD
ENDBRANCH   6   8
ENDBRANCH   3   6
ENDBRANCH   1   3
BRANCH   1  19
ATOM     19  C   UNL     1      46.542   8.038  13.151  0.00  0.00    +0.000 C 
BRANCH  19  20
ATOM     20  C   UNL     1      45.788   6.942  12.436  0.00  0.00    +0.000 A 
ATOM     21  C   UNL     1      44.757   6.243  13.078  0.00  0.00    +0.000 A 
ATOM     22  C   UNL     1      44.122   5.171  12.445  0.00  0.00    +0.000 A 
ATOM     23  C   UNL     1      44.502   4.776  11.153  0.00  0.00    +0.000 A 
ATOM     24  C   UNL     1      45.506   5.504  10.498  0.00  0.00    +0.000 A 
ATOM     25  C   UNL     1      46.145   6.571  11.134  0.00  0.00    +0.000 A 
BRANCH  23  26
ATOM     26  C   UNL     1      43.851   3.562  10.515  0.00  0.00    +0.000 C 
BRANCH  26  27
ATOM     27  O   UNL     1      42.971   2.958  11.465  0.00  0.00    +0.000 OA
ATOM     28  H   UNL     1      43.490   2.328  11.988  0.00  0.00    +0.000 HD
ENDBRANCH  26  27
BRANCH  26  29
ATOM     29  C   UNL     1      44.904   2.547   9.980  0.00  0.00    +0.000 C 
BRANCH  29  30
ATOM     30  N   UNL     1      44.754   2.150   8.559  0.00  0.00    +0.000 NA
ATOM     31  C   UNL     1      45.854   1.267   8.136  0.00  0.00    +0.000 C 
ATOM     32  C   UNL     1      46.959   2.213   7.711  0.00  0.00    +0.000 C 
ATOM     33  C   UNL     1      46.192   3.311   7.000  0.00  0.00    +0.000 C 
ATOM     34  C   UNL     1      44.803   3.295   7.633  0.00  0.00    +0.000 C 
ENDBRANCH  29  30
ENDBRANCH  26  29
ENDBRANCH  23  26
ENDBRANCH  19  20
ENDBRANCH   1  19
TORSDOF 10
ENDMDL
MODEL 6
REMARK VINA RESULT:    -6.787      2.192      2.870
REMARK INTER + INTRA:         -11.722
REMARK INTER:                 -10.014
REMARK INTRA:                  -1.708
REMARK UNBOUND:                -1.166
REMARK  Name = 
REMARK  11 active torsions:
REMARK  status: ('A' for Active; 'I' for Inactive)
REMARK    1  A    between atoms: C_1  and  C_2
REMARK    2  A    between atoms: C_2  and  C_3
REMARK    3  A    between atoms: C_3  and  N_4
REMARK    4  A    between atoms: C_3  and  C_20
REMARK    5  A    between atoms: N_4  and  C_5
REMARK    6  A    between atoms: C_5  and  C_6
REMARK    7  A    between atoms: C_9  and  C_10
REMARK    8  A    between atoms: C_10  and  O_11
REMARK    9  A    between atoms: C_10  and  C_12
REMARK   10  A    between atoms: C_12  and  N_13
REMARK   11  A    between atoms: C_20  and  C_22
REMARK                            x       y       z     vdW  Elec       q    Type
REMARK                         _______ _______ _______ _____ _____    ______ ____
ROOT
ATOM      1  N   UNL     1      48.395   8.004  16.198  0.00  0.00    +0.000 NA
ATOM      2  H   UNL     1      47.457   7.600  16.271  0.00  0.00    +0.000 HD
ENDROOT
BRANCH   1   3
ATOM      3  C   UNL     1      49.217   7.490  17.314  0.00  0.00    +0.000 C 
BRANCH   3   5
ATOM      4  C   UNL     1      48.529   9.804  18.207  0.00  0.00    +0.000 C 
ATOM      5  C   UNL     1      49.496   8.632  18.311  0.00  0.00    +0.000 C 
ENDBRANCH   3   5
BRANCH   3   6
ATOM      6  C   UNL     1      48.492   6.346  18.080  0.00  0.00    +0.000 C 
ATOM      7  O   UNL     1      47.946   6.570  19.163  0.00  0.00    +0.000 OA
BRANCH   6   8
ATOM      8  C   UNL     1      48.526   4.991  17.519  0.00  0.00    +0.000 A 
ATOM      9  C   UNL     1      47.518   4.474  16.719  0.00  0.00    +0.000 A 
ATOM     10  S   UNL     1      47.864   2.918  16.109  0.00  0.00    +0.000 S 
ATOM     11  C   UNL     1      49.368   2.880  16.903  0.00  0.00    +0.000 A 
ATOM     12  N   UNL     1      50.199   1.813  16.773  0.00  0.00    +0.000 NA
ATOM     13  C   UNL     1      51.322   1.936  17.399  0.00  0.00    +0.000 A 
ATOM     14  N   UNL     1      51.676   3.017  18.165  0.00  0.00    +0.000 N 
ATOM     15  C   UNL     1      50.807   4.052  18.443  0.00  0.00    +0.000 A 
ATOM     16  O   UNL     1      51.042   4.847  19.347  0.00  0.00    +0.000 OA
ATOM     17  C   UNL     1      49.586   4.020  17.656  0.00  0.00    +0.000 A 
ATOM     18  H   UNL     1      52.535   3.010  18.694  0.00  0.00    +0.000 HD
ENDBRANCH   6   8
ENDBRANCH   3   6
ENDBRANCH   1   3
BRANCH   1  19
ATOM     19  C   UNL     1      48.927   7.664  14.878  0.00  0.00    +0.000 C 
BRANCH  19  20
ATOM     20  C   UNL     1      47.793   7.431  13.907  0.00  0.00    +0.000 A 
ATOM     21  C   UNL     1      46.895   8.459  13.593  0.00  0.00    +0.000 A 
ATOM     22  C   UNL     1      45.796   8.216  12.764  0.00  0.00    +0.000 A 
ATOM     23  C   UNL     1      45.573   6.938  12.228  0.00  0.00    +0.000 A 
ATOM     24  C   UNL     1      46.497   5.922  12.513  0.00  0.00    +0.000 A 
ATOM     25  C   UNL     1      47.591   6.164  13.346  0.00  0.00    +0.000 A 
BRANCH  23  26
ATOM     26  C   UNL     1      44.332   6.678  11.393  0.00  0.00    +0.000 C 
BRANCH  26  27
ATOM     27  O   UNL     1      43.661   7.919  11.165  0.00  0.00    +0.000 OA
ATOM     28  H   UNL     1      43.589   8.043  10.207  0.00  0.00    +0.000 HD
ENDBRANCH  26  27
BRANCH  26  29
ATOM     29  C   UNL     1      43.392   5.627  12.054  0.00  0.00    +0.000 C 
BRANCH  29  30
ATOM     30  N   UNL     1      43.063   4.443  11.225  0.00  0.00    +0.000 NA
ATOM     31  C   UNL     1      43.358   3.193  11.946  0.00  0.00    +0.000 C 
ATOM     32  C   UNL     1      44.824   2.930  11.667  0.00  0.00    +0.000 C 
ATOM     33  C   UNL     1      44.956   3.331  10.211  0.00  0.00    +0.000 C 
ATOM     34  C   UNL     1      43.859   4.368   9.987  0.00  0.00    +0.000 C 
ENDBRANCH  29  30
ENDBRANCH  26  29
ENDBRANCH  23  26
ENDBRANCH  19  20
ENDBRANCH   1  19
TORSDOF 10
ENDMDL
MODEL 7
REMARK VINA RESULT:    -6.748      2.895      3.607
REMARK INTER + INTRA:         -11.661
REMARK INTER:                  -9.669
REMARK INTRA:                  -1.992
REMARK UNBOUND:                -1.166
REMARK  Name = 
REMARK  11 active torsions:
REMARK  status: ('A' for Active; 'I' for Inactive)
REMARK    1  A    between atoms: C_1  and  C_2
REMARK    2  A    between atoms: C_2  and  C_3
REMARK    3  A    between atoms: C_3  and  N_4
REMARK    4  A    between atoms: C_3  and  C_20
REMARK    5  A    between atoms: N_4  and  C_5
REMARK    6  A    between atoms: C_5  and  C_6
REMARK    7  A    between atoms: C_9  and  C_10
REMARK    8  A    between atoms: C_10  and  O_11
REMARK    9  A    between atoms: C_10  and  C_12
REMARK   10  A    between atoms: C_12  and  N_13
REMARK   11  A    between atoms: C_20  and  C_22
REMARK                            x       y       z     vdW  Elec       q    Type
REMARK                         _______ _______ _______ _____ _____    ______ ____
ROOT
ATOM      1  N   UNL     1      49.552   9.023  14.495  0.00  0.00    +0.000 NA
ATOM      2  H   UNL     1      48.616   9.355  14.746  0.00  0.00    +0.000 HD
ENDROOT
BRANCH   1   3
ATOM      3  C   UNL     1      49.933   7.940  15.424  0.00  0.00    +0.000 C 
BRANCH   3   5
ATOM      4  C   UNL     1      52.313   7.071  15.878  0.00  0.00    +0.000 C 
ATOM      5  C   UNL     1      51.332   8.230  16.002  0.00  0.00    +0.000 C 
ENDBRANCH   3   5
BRANCH   3   6
ATOM      6  C   UNL     1      48.933   7.826  16.612  0.00  0.00    +0.000 C 
ATOM      7  O   UNL     1      48.123   8.729  16.833  0.00  0.00    +0.000 OA
BRANCH   6   8
ATOM      8  C   UNL     1      49.017   6.657  17.494  0.00  0.00    +0.000 A 
ATOM      9  C   UNL     1      49.632   6.684  18.737  0.00  0.00    +0.000 A 
ATOM     10  S   UNL     1      49.486   5.219  19.600  0.00  0.00    +0.000 S 
ATOM     11  C   UNL     1      48.605   4.497  18.337  0.00  0.00    +0.000 A 
ATOM     12  N   UNL     1      48.142   3.224  18.449  0.00  0.00    +0.000 NA
ATOM     13  C   UNL     1      47.458   2.818  17.430  0.00  0.00    +0.000 A 
ATOM     14  N   UNL     1      47.220   3.561  16.302  0.00  0.00    +0.000 N 
ATOM     15  C   UNL     1      47.793   4.796  16.086  0.00  0.00    +0.000 A 
ATOM     16  O   UNL     1      47.799   5.303  14.969  0.00  0.00    +0.000 OA
ATOM     17  C   UNL     1      48.459   5.346  17.255  0.00  0.00    +0.000 A 
ATOM     18  H   UNL     1      46.748   3.150  15.510  0.00  0.00    +0.000 HD
ENDBRANCH   6   8
ENDBRANCH   3   6
ENDBRANCH   1   3
BRANCH   1  19
ATOM     19  C   UNL     1      49.515   8.603  13.093  0.00  0.00    +0.000 C 
BRANCH  19  20
ATOM     20  C   UNL     1      48.145   8.069  12.748  0.00  0.00    +0.000 A 
ATOM     21  C   UNL     1      47.997   6.996  11.859  0.00  0.00    +0.000 A 
ATOM     22  C   UNL     1      46.725   6.563  11.474  0.00  0.00    +0.000 A 
ATOM     23  C   UNL     1      45.574   7.190  11.972  0.00  0.00    +0.000 A 
ATOM     24  C   UNL     1      45.726   8.237  12.893  0.00  0.00    +0.000 A 
ATOM     25  C   UNL     1      46.997   8.674  13.273  0.00  0.00    +0.000 A 
BRANCH  23  26
ATOM     26  C   UNL     1      44.205   6.752  11.481  0.00  0.00    +0.000 C 
BRANCH  26  27
ATOM     27  O   UNL     1      43.396   7.913  11.277  0.00  0.00    +0.000 OA
ATOM     28  H   UNL     1      42.664   7.876  11.910  0.00  0.00    +0.000 HD
ENDBRANCH  26  27
BRANCH  26  29
ATOM     29  C   UNL     1      43.528   5.743  12.454  0.00  0.00    +0.000 C 
BRANCH  29  30
ATOM     30  N   UNL     1      43.138   4.440  11.864  0.00  0.00    +0.000 NA
ATOM     31  C   UNL     1      43.680   3.318  12.650  0.00  0.00    +0.000 C 
ATOM     32  C   UNL     1      45.075   3.105  12.094  0.00  0.00    +0.000 C 
ATOM     33  C   UNL     1      44.869   3.311  10.607  0.00  0.00    +0.000 C 
ATOM     34  C   UNL     1      43.665   4.244  10.502  0.00  0.00    +0.000 C 
ENDBRANCH  29  30
ENDBRANCH  26  29
ENDBRANCH  23  26
ENDBRANCH  19  20
ENDBRANCH   1  19
TORSDOF 10
ENDMDL
MODEL 8
REMARK VINA RESULT:    -6.678      2.278      3.422
REMARK INTER + INTRA:         -11.553
REMARK INTER:                 -10.174
REMARK INTRA:                  -1.379
REMARK UNBOUND:                -1.166
REMARK  Name = 
REMARK  11 active torsions:
REMARK  status: ('A' for Active; 'I' for Inactive)
REMARK    1  A    between atoms: C_1  and  C_2
REMARK    2  A    between atoms: C_2  and  C_3
REMARK    3  A    between atoms: C_3  and  N_4
REMARK    4  A    between atoms: C_3  and  C_20
REMARK    5  A    between atoms: N_4  and  C_5
REMARK    6  A    between atoms: C_5  and  C_6
REMARK    7  A    between atoms: C_9  and  C_10
REMARK    8  A    between atoms: C_10  and  O_11
REMARK    9  A    between atoms: C_10  and  C_12
REMARK   10  A    between atoms: C_12  and  N_13
REMARK   11  A    between atoms: C_20  and  C_22
REMARK                            x       y       z     vdW  Elec       q    Type
REMARK                         _______ _______ _______ _____ _____    ______ ____
ROOT
ATOM      1  N   UNL     1      47.183   8.563  12.926  0.00  0.00    +0.000 NA
ATOM      2  H   UNL     1      47.388   9.471  13.352  0.00  0.00    +0.000 HD
ENDROOT
BRANCH   1   3
ATOM      3  C   UNL     1      47.881   7.513  13.695  0.00  0.00    +0.000 C 
BRANCH   3   5
ATOM      4  C   UNL     1      49.328   7.711  11.575  0.00  0.00    +0.000 C 
ATOM      5  C   UNL     1      49.011   6.914  12.834  0.00  0.00    +0.000 C 
ENDBRANCH   3   5
BRANCH   3   6
ATOM      6  C   UNL     1      48.517   8.083  14.997  0.00  0.00    +0.000 C 
ATOM      7  O   UNL     1      47.975   9.013  15.599  0.00  0.00    +0.000 OA
BRANCH   6   8
ATOM      8  C   UNL     1      49.797   7.534  15.455  0.00  0.00    +0.000 A 
ATOM      9  C   UNL     1      51.021   8.124  15.174  0.00  0.00    +0.000 A 
ATOM     10  S   UNL     1      52.341   7.342  15.923  0.00  0.00    +0.000 S 
ATOM     11  C   UNL     1      51.321   6.184  16.639  0.00  0.00    +0.000 A 
ATOM     12  N   UNL     1      51.825   5.216  17.449  0.00  0.00    +0.000 NA
ATOM     13  C   UNL     1      50.933   4.429  17.953  0.00  0.00    +0.000 A 
ATOM     14  N   UNL     1      49.588   4.508  17.697  0.00  0.00    +0.000 N 
ATOM     15  C   UNL     1      49.052   5.376  16.770  0.00  0.00    +0.000 A 
ATOM     16  O   UNL     1      47.907   5.231  16.356  0.00  0.00    +0.000 OA
ATOM     17  C   UNL     1      49.998   6.365  16.279  0.00  0.00    +0.000 A 
ATOM     18  H   UNL     1      48.957   3.808  18.059  0.00  0.00    +0.000 HD
ENDBRANCH   6   8
ENDBRANCH   3   6
ENDBRANCH   1   3
BRANCH   1  19
ATOM     19  C   UNL     1      45.728   8.399  12.904  0.00  0.00    +0.000 C 
BRANCH  19  20
ATOM     20  C   UNL     1      45.368   7.048  12.334  0.00  0.00    +0.000 A 
ATOM     21  C   UNL     1      45.761   6.689  11.037  0.00  0.00    +0.000 A 
ATOM     22  C   UNL     1      45.350   5.474  10.480  0.00  0.00    +0.000 A 
ATOM     23  C   UNL     1      44.541   4.589  11.210  0.00  0.00    +0.000 A 
ATOM     24  C   UNL     1      44.185   4.934  12.521  0.00  0.00    +0.000 A 
ATOM     25  C   UNL     1      44.589   6.151  13.075  0.00  0.00    +0.000 A 
BRANCH  23  26
ATOM     26  C   UNL     1      44.045   3.311  10.557  0.00  0.00    +0.000 C 
BRANCH  26  27
ATOM     27  O   UNL     1      43.359   2.530  11.539  0.00  0.00    +0.000 OA
ATOM     28  H   UNL     1      42.645   2.054  11.089  0.00  0.00    +0.000 HD
ENDBRANCH  26  27
BRANCH  26  29
ATOM     29  C   UNL     1      45.198   2.510   9.885  0.00  0.00    +0.000 C 
BRANCH  29  30
ATOM     30  N   UNL     1      44.978   2.128   8.470  0.00  0.00    +0.000 NA
ATOM     31  C   UNL     1      46.044   1.230   7.992  0.00  0.00    +0.000 C 
ATOM     32  C   UNL     1      47.145   2.162   7.526  0.00  0.00    +0.000 C 
ATOM     33  C   UNL     1      46.366   3.278   6.857  0.00  0.00    +0.000 C 
ATOM     34  C   UNL     1      45.006   3.279   7.551  0.00  0.00    +0.000 C 
ENDBRANCH  29  30
ENDBRANCH  26  29
ENDBRANCH  23  26
ENDBRANCH  19  20
ENDBRANCH   1  19
TORSDOF 10
ENDMDL
MODEL 9
REMARK VINA RESULT:    -6.412      2.988      9.182
REMARK INTER + INTRA:         -11.139
REMARK INTER:                  -9.763
REMARK INTRA:                  -1.376
REMARK UNBOUND:                -1.166
REMARK  Name = 
REMARK  11 active torsions:
REMARK  status: ('A' for Active; 'I' for Inactive)
REMARK    1  A    between atoms: C_1  and  C_2
REMARK    2  A    between atoms: C_2  and  C_3
REMARK    3  A    between atoms: C_3  and  N_4
REMARK    4  A    between atoms: C_3  and  C_20
REMARK    5  A    between atoms: N_4  and  C_5
REMARK    6  A    between atoms: C_5  and  C_6
REMARK    7  A    between atoms: C_9  and  C_10
REMARK    8  A    between atoms: C_10  and  O_11
REMARK    9  A    between atoms: C_10  and  C_12
REMARK   10  A    between atoms: C_12  and  N_13
REMARK   11  A    between atoms: C_20  and  C_22
REMARK                            x       y       z     vdW  Elec       q    Type
REMARK                         _______ _______ _______ _____ _____    ______ ____
ROOT
ATOM      1  N   UNL     1      46.714   6.060  12.618  0.00  0.00    +0.000 NA
ATOM      2  H   UNL     1      46.758   5.833  11.621  0.00  0.00    +0.000 HD
ENDROOT
BRANCH   1   3
ATOM      3  C   UNL     1      45.430   6.737  12.891  0.00  0.00    +0.000 C 
BRANCH   3   5
ATOM      4  C   UNL     1      47.012   8.690  12.335  0.00  0.00    +0.000 C 
ATOM      5  C   UNL     1      45.627   8.264  12.806  0.00  0.00    +0.000 C 
ENDBRANCH   3   5
BRANCH   3   6
ATOM      6  C   UNL     1      44.338   6.333  11.858  0.00  0.00    +0.000 C 
ATOM      7  O   UNL     1      43.582   7.185  11.386  0.00  0.00    +0.000 OA
BRANCH   6   8
ATOM      8  C   UNL     1      44.191   4.917  11.507  0.00  0.00    +0.000 A 
ATOM      9  C   UNL     1      43.490   4.009  12.288  0.00  0.00    +0.000 A 
ATOM     10  S   UNL     1      43.379   2.455  11.589  0.00  0.00    +0.000 S 
ATOM     11  C   UNL     1      44.272   2.943  10.226  0.00  0.00    +0.000 A 
ATOM     12  N   UNL     1      44.520   2.076   9.208  0.00  0.00    +0.000 NA
ATOM     13  C   UNL     1      45.176   2.591   8.222  0.00  0.00    +0.000 A 
ATOM     14  N   UNL     1      45.628   3.885   8.175  0.00  0.00    +0.000 N 
ATOM     15  C   UNL     1      45.529   4.751   9.243  0.00  0.00    +0.000 A 
ATOM     16  O   UNL     1      46.184   5.787   9.280  0.00  0.00    +0.000 OA
ATOM     17  C   UNL     1      44.685   4.259  10.319  0.00  0.00    +0.000 A 
ATOM     18  H   UNL     1      46.207   4.197   7.408  0.00  0.00    +0.000 HD
ENDBRANCH   6   8
ENDBRANCH   3   6
ENDBRANCH   1   3
BRANCH   1  19
ATOM     19  C   UNL     1      46.889   4.816  13.369  0.00  0.00    +0.000 C 
BRANCH  19  20
ATOM     20  C   UNL     1      47.464   5.111  14.734  0.00  0.00    +0.000 A 
ATOM     21  C   UNL     1      48.300   6.217  14.936  0.00  0.00    +0.000 A 
ATOM     22  C   UNL     1      48.902   6.436  16.178  0.00  0.00    +0.000 A 
ATOM     23  C   UNL     1      48.677   5.557  17.248  0.00  0.00    +0.000 A 
ATOM     24  C   UNL     1      47.807   4.474  17.053  0.00  0.00    +0.000 A 
ATOM     25  C   UNL     1      47.211   4.251  15.809  0.00  0.00    +0.000 A 
BRANCH  23  26
ATOM     26  C   UNL     1      49.400   5.772  18.565  0.00  0.00    +0.000 C 
BRANCH  26  27
ATOM     27  O   UNL     1      49.919   7.103  18.594  0.00  0.00    +0.000 OA
ATOM     28  H   UNL     1      49.662   7.501  19.439  0.00  0.00    +0.000 HD
ENDBRANCH  26  27
BRANCH  26  29
ATOM     29  C   UNL     1      50.517   4.712  18.799  0.00  0.00    +0.000 C 
BRANCH  29  30
ATOM     30  N   UNL     1      51.274   4.296  17.595  0.00  0.00    +0.000 NA
ATOM     31  C   UNL     1      51.632   2.869  17.660  0.00  0.00    +0.000 C 
ATOM     32  C   UNL     1      52.934   2.840  18.437  0.00  0.00    +0.000 C 
ATOM     33  C   UNL     1      53.661   4.057  17.901  0.00  0.00    +0.000 C 
ATOM     34  C   UNL     1      52.556   5.007  17.446  0.00  0.00    +0.000 C 
ENDBRANCH  29  30
ENDBRANCH  26  29
ENDBRANCH  23  26
ENDBRANCH  19  20
ENDBRANCH   1  19
TORSDOF 10
ENDMDL
