MODEL 1
REMARK VINA RESULT:    -8.552      0.000      0.000
REMARK INTER + INTRA:         -11.274
REMARK INTER:                 -10.802
REMARK INTRA:                  -0.472
REMARK UNBOUND:                -0.472
REMARK  Name = 
REMARK  5 active torsions:
REMARK  status: ('A' for Active; 'I' for Inactive)
REMARK    1  A    between atoms: C_2  and  C_4
REMARK    2  A    between atoms: N_8  and  C_9
REMARK    3  A    between atoms: C_9  and  C_10
REMARK    4  A    between atoms: C_10  and  O_11
REMARK    5  A    between atoms: C_10  and  C_12
REMARK                            x       y       z     vdW  Elec       q    Type
REMARK                         _______ _______ _______ _____ _____    ______ ____
ROOT
ATOM      1  C   UNL     1      46.208   2.125   7.988  0.00  0.00    +0.000 A 
ATOM      2  C   UNL     1      46.305   3.470   7.645  0.00  0.00    +0.000 A 
ATOM      3  C   UNL     1      45.465   4.389   8.269  0.00  0.00    +0.000 A 
ATOM      4  C   UNL     1      44.571   3.957   9.247  0.00  0.00    +0.000 A 
ATOM      5  N   UNL     1      43.898   4.937   9.967  0.00  0.00    +0.000 N 
ATOM      6  N   UNL     1      44.442   2.650   9.561  0.00  0.00    +0.000 NA
ATOM      7  C   UNL     1      45.243   1.762   8.914  0.00  0.00    +0.000 A 
ATOM      8  H   UNL     1      43.341   5.548   9.375  0.00  0.00    +0.000 HD
ENDROOT
BRANCH   1  10
ATOM      9  N   UNL     1      46.768  -0.218   7.691  0.00  0.00    +0.000 N 
ATOM     10  C   UNL     1      47.082   1.086   7.411  0.00  0.00    +0.000 C 
ATOM     11  O   UNL     1      48.016   1.369   6.676  0.00  0.00    +0.000 OA
ATOM     12  H   UNL     1      47.304  -0.921   7.196  0.00  0.00    +0.000 HD
ATOM     13  H   UNL     1      45.873  -0.495   8.067  0.00  0.00    +0.000 HD
ENDBRANCH   1  10
BRANCH   5  14
ATOM     14  C   UNL     1      43.188   4.506  11.170  0.00  0.00    +0.000 C 
BRANCH  14  15
ATOM     15  C   UNL     1      43.369   5.591  12.262  0.00  0.00    +0.000 C 
BRANCH  15  16
ATOM     16  C   UNL     1      44.797   5.826  12.710  0.00  0.00    +0.000 A 
ATOM     17  C   UNL     1      45.497   4.776  13.330  0.00  0.00    +0.000 A 
ATOM     18  C   UNL     1      46.811   4.949  13.765  0.00  0.00    +0.000 A 
ATOM     19  C   UNL     1      47.452   6.171  13.574  0.00  0.00    +0.000 A 
ATOM     20  C   UNL     1      46.778   7.217  12.950  0.00  0.00    +0.000 A 
ATOM     21  C   UNL     1      45.461   7.047  12.515  0.00  0.00    +0.000 A 
ENDBRANCH  15  16
BRANCH  15  22
ATOM     22  O   UNL     1      42.567   5.250  13.402  0.00  0.00    +0.000 OA
ATOM     23  H   UNL     1      42.521   4.279  13.434  0.00  0.00    +0.000 HD
ENDBRANCH  15  22
ENDBRANCH  14  15
ENDBRANCH   5  14
TORSDOF 5
ENDMDL
MODEL 2
REMARK VINA RESULT:    -7.735      1.307      1.926
REMARK INTER + INTRA:         -10.243
REMARK INTER:                  -9.667
REMARK INTRA:                  -0.575
REMARK UNBOUND:                -0.472
REMARK  Name = 
REMARK  5 active torsions:
REMARK  status: ('A' for Active; 'I' for Inactive)
REMARK    1  A    between atoms: C_2  and  C_4
REMARK    2  A    between atoms: N_8  and  C_9
REMARK    3  A    between atoms: C_9  and  C_10
REMARK    4  A    between atoms: C_10  and  O_11
REMARK    5  A    between atoms: C_10  and  C_12
REMARK                            x       y       z     vdW  Elec       q    Type
REMARK                         _______ _______ _______ _____ _____    ______ ____
ROOT
ATOM      1  C   UNL     1      46.407   2.692   7.599  0.00  0.00    +0.000 A 
ATOM      2  C   UNL     1      45.808   1.717   8.391  0.00  0.00    +0.000 A 
ATOM      3  C   UNL     1      44.985   2.112   9.443  0.00  0.00    +0.000 A 
ATOM      4  C   UNL     1      44.746   3.467   9.664  0.00  0.00    +0.000 A 
ATOM      5  N   UNL     1      43.772   3.794  10.600  0.00  0.00    +0.000 N 
ATOM      6  N   UNL     1      45.351   4.423   8.926  0.00  0.00    +0.000 NA
ATOM      7  C   UNL     1      46.181   4.020   7.927  0.00  0.00    +0.000 A 
ATOM      8  H   UNL     1      43.976   3.425  11.526  0.00  0.00    +0.000 HD
ENDROOT
BRANCH   1  10
ATOM      9  N   UNL     1      47.210   3.229   5.372  0.00  0.00    +0.000 N 
ATOM     10  C   UNL     1      47.260   2.371   6.439  0.00  0.00    +0.000 C 
ATOM     11  O   UNL     1      48.015   1.411   6.446  0.00  0.00    +0.000 OA
ATOM     12  H   UNL     1      47.884   3.062   4.635  0.00  0.00    +0.000 HD
ATOM     13  H   UNL     1      46.807   4.152   5.434  0.00  0.00    +0.000 HD
ENDBRANCH   1  10
BRANCH   5  14
ATOM     14  C   UNL     1      43.318   5.183  10.628  0.00  0.00    +0.000 C 
BRANCH  14  15
ATOM     15  C   UNL     1      43.631   5.774  12.026  0.00  0.00    +0.000 C 
BRANCH  15  16
ATOM     16  C   UNL     1      45.102   5.900  12.362  0.00  0.00    +0.000 A 
ATOM     17  C   UNL     1      45.885   6.827  11.651  0.00  0.00    +0.000 A 
ATOM     18  C   UNL     1      47.247   6.972  11.921  0.00  0.00    +0.000 A 
ATOM     19  C   UNL     1      47.844   6.204  12.918  0.00  0.00    +0.000 A 
ATOM     20  C   UNL     1      47.080   5.291  13.641  0.00  0.00    +0.000 A 
ATOM     21  C   UNL     1      45.717   5.142  13.370  0.00  0.00    +0.000 A 
ENDBRANCH  15  16
BRANCH  15  22
ATOM     22  O   UNL     1      42.985   4.975  13.030  0.00  0.00    +0.000 OA
ATOM     23  H   UNL     1      42.229   5.493  13.358  0.00  0.00    +0.000 HD
ENDBRANCH  15  22
ENDBRANCH  14  15
ENDBRANCH   5  14
TORSDOF 5
ENDMDL
MODEL 3
REMARK VINA RESULT:    -7.310      2.936      6.881
REMARK INTER + INTRA:          -9.705
REMARK INTER:                  -9.387
REMARK INTRA:                  -0.318
REMARK UNBOUND:                -0.472
REMARK  Name = 
REMARK  5 active torsions:
REMARK  status: ('A' for Active; 'I' for Inactive)
REMARK    1  A    between atoms: C_2  and  C_4
REMARK    2  A    between atoms: N_8  and  C_9
REMARK    3  A    between atoms: C_9  and  C_10
REMARK    4  A    between atoms: C_10  and  O_11
REMARK    5  A    between atoms: C_10  and  C_12
REMARK                            x       y       z     vdW  Elec       q    Type
REMARK                         _______ _______ _______ _____ _____    ______ ____
ROOT
ATOM      1  C   UNL     1      46.654   8.192  12.691  0.00  0.00    +0.000 A 
ATOM      2  C   UNL     1      45.389   8.535  12.223  0.00  0.00    +0.000 A 
ATOM      3  C   UNL     1      44.687   7.622  11.440  0.00  0.00    +0.000 A 
ATOM      4  C   UNL     1      45.242   6.373  11.169  0.00  0.00    +0.000 A 
ATOM      5  N   UNL     1      44.422   5.437  10.549  0.00  0.00    +0.000 N 
ATOM      6  N   UNL     1      46.483   6.042  11.586  0.00  0.00    +0.000 NA
ATOM      7  C   UNL     1      47.170   6.961  12.317  0.00  0.00    +0.000 A 
ATOM      8  H   UNL     1      44.074   5.754   9.647  0.00  0.00    +0.000 HD
ENDROOT
BRANCH   1  10
ATOM      9  N   UNL     1      47.346   8.886  14.912  0.00  0.00    +0.000 N 
ATOM     10  C   UNL     1      47.455   9.076  13.559  0.00  0.00    +0.000 C 
ATOM     11  O   UNL     1      48.218   9.909  13.096  0.00  0.00    +0.000 OA
ATOM     12  H   UNL     1      47.986   9.417  15.489  0.00  0.00    +0.000 HD
ATOM     13  H   UNL     1      46.937   8.054  15.314  0.00  0.00    +0.000 HD
ENDBRANCH   1  10
BRANCH   5  14
ATOM     14  C   UNL     1      44.895   4.054  10.522  0.00  0.00    +0.000 C 
BRANCH  14  15
ATOM     15  C   UNL     1      44.426   3.400   9.198  0.00  0.00    +0.000 C 
BRANCH  15  16
ATOM     16  C   UNL     1      45.523   2.788   8.354  0.00  0.00    +0.000 A 
ATOM     17  C   UNL     1      46.238   3.611   7.465  0.00  0.00    +0.000 A 
ATOM     18  C   UNL     1      47.252   3.088   6.662  0.00  0.00    +0.000 A 
ATOM     19  C   UNL     1      47.579   1.738   6.745  0.00  0.00    +0.000 A 
ATOM     20  C   UNL     1      46.892   0.911   7.630  0.00  0.00    +0.000 A 
ATOM     21  C   UNL     1      45.873   1.431   8.433  0.00  0.00    +0.000 A 
ENDBRANCH  15  16
BRANCH  15  22
ATOM     22  O   UNL     1      43.717   4.374   8.417  0.00  0.00    +0.000 OA
ATOM     23  H   UNL     1      42.945   4.648   8.942  0.00  0.00    +0.000 HD
ENDBRANCH  15  22
ENDBRANCH  14  15
ENDBRANCH   5  14
TORSDOF 5
ENDMDL
MODEL 4
REMARK VINA RESULT:    -7.285      2.942      6.597
REMARK INTER + INTRA:          -9.674
REMARK INTER:                  -9.303
REMARK INTRA:                  -0.371
REMARK UNBOUND:                -0.472
REMARK  Name = 
REMARK  5 active torsions:
REMARK  status: ('A' for Active; 'I' for Inactive)
REMARK    1  A    between atoms: C_2  and  C_4
REMARK    2  A    between atoms: N_8  and  C_9
REMARK    3  A    between atoms: C_9  and  C_10
REMARK    4  A    between atoms: C_10  and  O_11
REMARK    5  A    between atoms: C_10  and  C_12
REMARK                            x       y       z     vdW  Elec       q    Type
REMARK                         _______ _______ _______ _____ _____    ______ ____
ROOT
ATOM      1  C   UNL     1      47.114   4.709  14.654  0.00  0.00    +0.000 A 
ATOM      2  C   UNL     1      46.832   5.870  13.941  0.00  0.00    +0.000 A 
ATOM      3  C   UNL     1      46.203   5.767  12.703  0.00  0.00    +0.000 A 
ATOM      4  C   UNL     1      45.834   4.514  12.216  0.00  0.00    +0.000 A 
ATOM      5  N   UNL     1      45.043   4.486  11.074  0.00  0.00    +0.000 N 
ATOM      6  N   UNL     1      46.135   3.378  12.881  0.00  0.00    +0.000 NA
ATOM      7  C   UNL     1      46.784   3.495  14.071  0.00  0.00    +0.000 A 
ATOM      8  H   UNL     1      45.485   4.941  10.278  0.00  0.00    +0.000 HD
ENDROOT
BRANCH   1  10
ATOM      9  N   UNL     1      48.215   5.923  16.445  0.00  0.00    +0.000 N 
ATOM     10  C   UNL     1      47.740   4.721  15.990  0.00  0.00    +0.000 C 
ATOM     11  O   UNL     1      47.792   3.716  16.683  0.00  0.00    +0.000 OA
ATOM     12  H   UNL     1      48.535   5.941  17.406  0.00  0.00    +0.000 HD
ATOM     13  H   UNL     1      47.960   6.804  16.023  0.00  0.00    +0.000 HD
ENDBRANCH   1  10
BRANCH   5  14
ATOM     14  C   UNL     1      44.421   3.210  10.727  0.00  0.00    +0.000 C 
BRANCH  14  15
ATOM     15  C   UNL     1      44.215   3.165   9.192  0.00  0.00    +0.000 C 
BRANCH  15  16
ATOM     16  C   UNL     1      45.408   2.682   8.393  0.00  0.00    +0.000 A 
ATOM     17  C   UNL     1      46.125   3.609   7.615  0.00  0.00    +0.000 A 
ATOM     18  C   UNL     1      47.226   3.208   6.857  0.00  0.00    +0.000 A 
ATOM     19  C   UNL     1      47.636   1.877   6.876  0.00  0.00    +0.000 A 
ATOM     20  C   UNL     1      46.946   0.949   7.652  0.00  0.00    +0.000 A 
ATOM     21  C   UNL     1      45.842   1.348   8.410  0.00  0.00    +0.000 A 
ENDBRANCH  15  16
BRANCH  15  22
ATOM     22  O   UNL     1      43.833   4.469   8.730  0.00  0.00    +0.000 OA
ATOM     23  H   UNL     1      44.026   4.497   7.777  0.00  0.00    +0.000 HD
ENDBRANCH  15  22
ENDBRANCH  14  15
ENDBRANCH   5  14
TORSDOF 5
ENDMDL
MODEL 5
REMARK VINA RESULT:    -6.969      2.773      6.367
REMARK INTER + INTRA:          -9.275
REMARK INTER:                  -8.853
REMARK INTRA:                  -0.422
REMARK UNBOUND:                -0.472
REMARK  Name = 
REMARK  5 active torsions:
REMARK  status: ('A' for Active; 'I' for Inactive)
REMARK    1  A    between atoms: C_2  and  C_4
REMARK    2  A    between atoms: N_8  and  C_9
REMARK    3  A    between atoms: C_9  and  C_10
REMARK    4  A    between atoms: C_10  and  O_11
REMARK    5  A    between atoms: C_10  and  C_12
REMARK                            x       y       z     vdW  Elec       q    Type
REMARK                         _______ _______ _______ _____ _____    ______ ____
ROOT
ATOM      1  C   UNL     1      47.393   6.692  12.528  0.00  0.00    +0.000 A 
ATOM      2  C   UNL     1      46.850   5.855  13.498  0.00  0.00    +0.000 A 
ATOM      3  C   UNL     1      45.817   4.991  13.144  0.00  0.00    +0.000 A 
ATOM      4  C   UNL     1      45.369   4.952  11.824  0.00  0.00    +0.000 A 
ATOM      5  N   UNL     1      44.475   3.942  11.488  0.00  0.00    +0.000 N 
ATOM      6  N   UNL     1      45.862   5.785  10.883  0.00  0.00    +0.000 NA
ATOM      7  C   UNL     1      46.845   6.649  11.256  0.00  0.00    +0.000 A 
ATOM      8  H   UNL     1      43.620   3.974  12.039  0.00  0.00    +0.000 HD
ENDROOT
BRANCH   1  10
ATOM      9  N   UNL     1      49.775   7.069  12.808  0.00  0.00    +0.000 N 
ATOM     10  C   UNL     1      48.515   7.611  12.800  0.00  0.00    +0.000 C 
ATOM     11  O   UNL     1      48.340   8.808  12.961  0.00  0.00    +0.000 OA
ATOM     12  H   UNL     1      50.541   7.727  12.879  0.00  0.00    +0.000 HD
ATOM     13  H   UNL     1      49.978   6.157  12.428  0.00  0.00    +0.000 HD
ENDBRANCH   1  10
BRANCH   5  14
ATOM     14  C   UNL     1      44.228   3.720  10.065  0.00  0.00    +0.000 C 
BRANCH  14  15
ATOM     15  C   UNL     1      44.905   2.389   9.651  0.00  0.00    +0.000 C 
BRANCH  15  16
ATOM     16  C   UNL     1      45.753   2.455   8.399  0.00  0.00    +0.000 A 
ATOM     17  C   UNL     1      46.459   1.308   7.992  0.00  0.00    +0.000 A 
ATOM     18  C   UNL     1      47.258   1.326   6.849  0.00  0.00    +0.000 A 
ATOM     19  C   UNL     1      47.353   2.486   6.084  0.00  0.00    +0.000 A 
ATOM     20  C   UNL     1      46.651   3.626   6.464  0.00  0.00    +0.000 A 
ATOM     21  C   UNL     1      45.852   3.612   7.611  0.00  0.00    +0.000 A 
ENDBRANCH  15  16
BRANCH  15  22
ATOM     22  O   UNL     1      43.897   1.380   9.486  0.00  0.00    +0.000 OA
ATOM     23  H   UNL     1      43.162   1.616  10.077  0.00  0.00    +0.000 HD
ENDBRANCH  15  22
ENDBRANCH  14  15
ENDBRANCH   5  14
TORSDOF 5
ENDMDL
MODEL 6
REMARK VINA RESULT:    -6.714      4.030      5.518
REMARK INTER + INTRA:          -8.953
REMARK INTER:                  -8.664
REMARK INTRA:                  -0.289
REMARK UNBOUND:                -0.472
REMARK  Name = 
REMARK  5 active torsions:
REMARK  status: ('A' for Active; 'I' for Inactive)
REMARK    1  A    between atoms: C_2  and  C_4
REMARK    2  A    between atoms: N_8  and  C_9
REMARK    3  A    between atoms: C_9  and  C_10
REMARK    4  A    between atoms: C_10  and  O_11
REMARK    5  A    between atoms: C_10  and  C_12
REMARK                            x       y       z     vdW  Elec       q    Type
REMARK                         _______ _______ _______ _____ _____    ______ ____
ROOT
ATOM      1  C   UNL     1      45.484   4.939  10.817  0.00  0.00    +0.000 A 
ATOM      2  C   UNL     1      46.036   6.095  11.360  0.00  0.00    +0.000 A 
ATOM      3  C   UNL     1      46.398   6.104  12.705  0.00  0.00    +0.000 A 
ATOM      4  C   UNL     1      46.237   4.952  13.473  0.00  0.00    +0.000 A 
ATOM      5  N   UNL     1      46.790   4.959  14.748  0.00  0.00    +0.000 N 
ATOM      6  N   UNL     1      45.669   3.836  12.967  0.00  0.00    +0.000 NA
ATOM      7  C   UNL     1      45.286   3.858  11.662  0.00  0.00    +0.000 A 
ATOM      8  H   UNL     1      46.416   5.702  15.335  0.00  0.00    +0.000 HD
ENDROOT
BRANCH   1  10
ATOM      9  N   UNL     1      43.813   4.465   9.120  0.00  0.00    +0.000 N 
ATOM     10  C   UNL     1      45.108   4.821   9.395  0.00  0.00    +0.000 C 
ATOM     11  O   UNL     1      45.898   5.076   8.500  0.00  0.00    +0.000 OA
ATOM     12  H   UNL     1      43.538   4.502   8.146  0.00  0.00    +0.000 HD
ATOM     13  H   UNL     1      43.079   4.502   9.813  0.00  0.00    +0.000 HD
ENDBRANCH   1  10
BRANCH   5  14
ATOM     14  C   UNL     1      46.877   3.675  15.441  0.00  0.00    +0.000 C 
BRANCH  14  15
ATOM     15  C   UNL     1      47.328   3.935  16.901  0.00  0.00    +0.000 C 
BRANCH  15  16
ATOM     16  C   UNL     1      48.794   3.683  17.180  0.00  0.00    +0.000 A 
ATOM     17  C   UNL     1      49.293   2.372  17.072  0.00  0.00    +0.000 A 
ATOM     18  C   UNL     1      50.636   2.093  17.327  0.00  0.00    +0.000 A 
ATOM     19  C   UNL     1      51.506   3.121  17.680  0.00  0.00    +0.000 A 
ATOM     20  C   UNL     1      51.033   4.427  17.778  0.00  0.00    +0.000 A 
ATOM     21  C   UNL     1      49.687   4.709  17.526  0.00  0.00    +0.000 A 
ENDBRANCH  15  16
BRANCH  15  22
ATOM     22  O   UNL     1      46.533   3.134  17.789  0.00  0.00    +0.000 OA
ATOM     23  H   UNL     1      46.410   2.272  17.355  0.00  0.00    +0.000 HD
ENDBRANCH  15  22
ENDBRANCH  14  15
ENDBRANCH   5  14
TORSDOF 5
ENDMDL
MODEL 7
REMARK VINA RESULT:    -6.286      4.323      5.950
REMARK INTER + INTRA:          -8.412
REMARK INTER:                  -8.086
REMARK INTRA:                  -0.326
REMARK UNBOUND:                -0.472
REMARK  Name = 
REMARK  5 active torsions:
REMARK  status: ('A' for Active; 'I' for Inactive)
REMARK    1  A    between atoms: C_2  and  C_4
REMARK    2  A    between atoms: N_8  and  C_9
REMARK    3  A    between atoms: C_9  and  C_10
REMARK    4  A    between atoms: C_10  and  O_11
REMARK    5  A    between atoms: C_10  and  C_12
REMARK                            x       y       z     vdW  Elec       q    Type
REMARK                         _______ _______ _______ _____ _____    ______ ____
ROOT
ATOM      1  C   UNL     1      45.192   4.652  11.518  0.00  0.00    +0.000 A 
ATOM      2  C   UNL     1      45.695   5.896  11.887  0.00  0.00    +0.000 A 
ATOM      3  C   UNL     1      46.295   6.039  13.135  0.00  0.00    +0.000 A 
ATOM      4  C   UNL     1      46.415   4.934  13.976  0.00  0.00    +0.000 A 
ATOM      5  N   UNL     1      47.188   5.090  15.121  0.00  0.00    +0.000 N 
ATOM      6  N   UNL     1      45.899   3.731  13.645  0.00  0.00    +0.000 NA
ATOM      7  C   UNL     1      45.282   3.619  12.438  0.00  0.00    +0.000 A 
ATOM      8  H   UNL     1      46.844   5.829  15.730  0.00  0.00    +0.000 HD
ENDROOT
BRANCH   1  10
ATOM      9  N   UNL     1      45.226   4.895   9.102  0.00  0.00    +0.000 N 
ATOM     10  C   UNL     1      44.578   4.394  10.201  0.00  0.00    +0.000 C 
ATOM     11  O   UNL     1      43.564   3.723  10.088  0.00  0.00    +0.000 OA
ATOM     12  H   UNL     1      44.858   4.612   8.202  0.00  0.00    +0.000 HD
ATOM     13  H   UNL     1      46.181   5.220   9.134  0.00  0.00    +0.000 HD
ENDBRANCH   1  10
BRANCH   5  14
ATOM     14  C   UNL     1      47.552   3.875  15.848  0.00  0.00    +0.000 C 
BRANCH  14  15
ATOM     15  C   UNL     1      46.948   3.957  17.273  0.00  0.00    +0.000 C 
BRANCH  15  16
ATOM     16  C   UNL     1      47.807   4.662  18.301  0.00  0.00    +0.000 A 
ATOM     17  C   UNL     1      47.287   5.786  18.967  0.00  0.00    +0.000 A 
ATOM     18  C   UNL     1      48.046   6.471  19.917  0.00  0.00    +0.000 A 
ATOM     19  C   UNL     1      49.331   6.034  20.227  0.00  0.00    +0.000 A 
ATOM     20  C   UNL     1      49.857   4.915  19.587  0.00  0.00    +0.000 A 
ATOM     21  C   UNL     1      49.100   4.229  18.634  0.00  0.00    +0.000 A 
ENDBRANCH  15  16
BRANCH  15  22
ATOM     22  O   UNL     1      46.652   2.630  17.735  0.00  0.00    +0.000 OA
ATOM     23  H   UNL     1      47.190   2.483  18.531  0.00  0.00    +0.000 HD
ENDBRANCH  15  22
ENDBRANCH  14  15
ENDBRANCH   5  14
TORSDOF 5
ENDMDL
MODEL 8
REMARK VINA RESULT:    -5.962      4.222      7.265
REMARK INTER + INTRA:          -8.003
REMARK INTER:                  -7.706
REMARK INTRA:                  -0.297
REMARK UNBOUND:                -0.472
REMARK  Name = 
REMARK  5 active torsions:
REMARK  status: ('A' for Active; 'I' for Inactive)
REMARK    1  A    between atoms: C_2  and  C_4
REMARK    2  A    between atoms: N_8  and  C_9
REMARK    3  A    between atoms: C_9  and  C_10
REMARK    4  A    between atoms: C_10  and  O_11
REMARK    5  A    between atoms: C_10  and  C_12
REMARK                            x       y       z     vdW  Elec       q    Type
REMARK                         _______ _______ _______ _____ _____    ______ ____
ROOT
ATOM      1  C   UNL     1      48.543   4.073  16.915  0.00  0.00    +0.000 A 
ATOM      2  C   UNL     1      48.849   5.402  16.638  0.00  0.00    +0.000 A 
ATOM      3  C   UNL     1      48.280   6.008  15.520  0.00  0.00    +0.000 A 
ATOM      4  C   UNL     1      47.391   5.290  14.722  0.00  0.00    +0.000 A 
ATOM      5  N   UNL     1      46.710   5.998  13.738  0.00  0.00    +0.000 N 
ATOM      6  N   UNL     1      47.115   3.989  14.959  0.00  0.00    +0.000 NA
ATOM      7  C   UNL     1      47.710   3.403  16.032  0.00  0.00    +0.000 A 
ATOM      8  H   UNL     1      47.335   6.446  13.072  0.00  0.00    +0.000 HD
ENDROOT
BRANCH   1  10
ATOM      9  N   UNL     1      50.328   2.839  18.003  0.00  0.00    +0.000 N 
ATOM     10  C   UNL     1      49.065   3.361  18.097  0.00  0.00    +0.000 C 
ATOM     11  O   UNL     1      48.422   3.280  19.132  0.00  0.00    +0.000 OA
ATOM     12  H   UNL     1      50.717   2.457  18.856  0.00  0.00    +0.000 HD
ATOM     13  H   UNL     1      50.976   3.107  17.276  0.00  0.00    +0.000 HD
ENDBRANCH   1  10
BRANCH   5  14
ATOM     14  C   UNL     1      45.581   5.325  13.097  0.00  0.00    +0.000 C 
BRANCH  14  15
ATOM     15  C   UNL     1      45.481   5.823  11.632  0.00  0.00    +0.000 C 
BRANCH  15  16
ATOM     16  C   UNL     1      45.215   4.747  10.600  0.00  0.00    +0.000 A 
ATOM     17  C   UNL     1      45.637   4.957   9.275  0.00  0.00    +0.000 A 
ATOM     18  C   UNL     1      45.407   3.996   8.289  0.00  0.00    +0.000 A 
ATOM     19  C   UNL     1      44.765   2.805   8.615  0.00  0.00    +0.000 A 
ATOM     20  C   UNL     1      44.352   2.575   9.925  0.00  0.00    +0.000 A 
ATOM     21  C   UNL     1      44.579   3.536  10.914  0.00  0.00    +0.000 A 
ENDBRANCH  15  16
BRANCH  15  22
ATOM     22  O   UNL     1      46.688   6.519  11.288  0.00  0.00    +0.000 OA
ATOM     23  H   UNL     1      46.992   6.153  10.440  0.00  0.00    +0.000 HD
ENDBRANCH  15  22
ENDBRANCH  14  15
ENDBRANCH   5  14
TORSDOF 5
ENDMDL
MODEL 9
REMARK VINA RESULT:    -5.682      5.383      7.840
REMARK INTER + INTRA:          -7.649
REMARK INTER:                  -7.293
REMARK INTRA:                  -0.356
REMARK UNBOUND:                -0.472
REMARK  Name = 
REMARK  5 active torsions:
REMARK  status: ('A' for Active; 'I' for Inactive)
REMARK    1  A    between atoms: C_2  and  C_4
REMARK    2  A    between atoms: N_8  and  C_9
REMARK    3  A    between atoms: C_9  and  C_10
REMARK    4  A    between atoms: C_10  and  O_11
REMARK    5  A    between atoms: C_10  and  C_12
REMARK                            x       y       z     vdW  Elec       q    Type
REMARK                         _______ _______ _______ _____ _____    ______ ____
ROOT
ATOM      1  C   UNL     1      47.123   6.982  13.392  0.00  0.00    +0.000 A 
ATOM      2  C   UNL     1      46.244   5.929  13.156  0.00  0.00    +0.000 A 
ATOM      3  C   UNL     1      46.368   4.764  13.909  0.00  0.00    +0.000 A 
ATOM      4  C   UNL     1      47.340   4.684  14.906  0.00  0.00    +0.000 A 
ATOM      5  N   UNL     1      47.293   3.579  15.749  0.00  0.00    +0.000 N 
ATOM      6  N   UNL     1      48.221   5.684  15.119  0.00  0.00    +0.000 NA
ATOM      7  C   UNL     1      48.110   6.799  14.348  0.00  0.00    +0.000 A 
ATOM      8  H   UNL     1      47.378   2.698  15.248  0.00  0.00    +0.000 HD
ENDROOT
BRANCH   1  10
ATOM      9  N   UNL     1      46.046   9.131  13.050  0.00  0.00    +0.000 N 
ATOM     10  C   UNL     1      47.043   8.268  12.674  0.00  0.00    +0.000 C 
ATOM     11  O   UNL     1      47.856   8.575  11.817  0.00  0.00    +0.000 OA
ATOM     12  H   UNL     1      46.075  10.053  12.632  0.00  0.00    +0.000 HD
ATOM     13  H   UNL     1      45.531   9.026  13.912  0.00  0.00    +0.000 HD
ENDBRANCH   1  10
BRANCH   5  14
ATOM     14  C   UNL     1      48.115   3.630  16.956  0.00  0.00    +0.000 C 
BRANCH  14  15
ATOM     15  C   UNL     1      49.010   2.366  16.995  0.00  0.00    +0.000 C 
BRANCH  15  16
ATOM     16  C   UNL     1      50.451   2.605  17.391  0.00  0.00    +0.000 A 
ATOM     17  C   UNL     1      51.352   1.525  17.368  0.00  0.00    +0.000 A 
ATOM     18  C   UNL     1      52.688   1.698  17.732  0.00  0.00    +0.000 A 
ATOM     19  C   UNL     1      53.149   2.956  18.111  0.00  0.00    +0.000 A 
ATOM     20  C   UNL     1      52.275   4.039  18.126  0.00  0.00    +0.000 A 
ATOM     21  C   UNL     1      50.935   3.868  17.765  0.00  0.00    +0.000 A 
ENDBRANCH  15  16
BRANCH  15  22
ATOM     22  O   UNL     1      48.973   1.724  15.711  0.00  0.00    +0.000 OA
ATOM     23  H   UNL     1      48.424   0.928  15.810  0.00  0.00    +0.000 HD
ENDBRANCH  15  22
ENDBRANCH  14  15
ENDBRANCH   5  14
TORSDOF 5
ENDMDL
