MODEL 1
REMARK VINA RESULT:    -7.883      0.000      0.000
REMARK INTER + INTRA:         -11.065
REMARK INTER:                 -10.417
REMARK INTRA:                  -0.648
REMARK UNBOUND:                -0.648
REMARK  Name = 
REMARK  9 active torsions:
REMARK  status: ('A' for Active; 'I' for Inactive)
REMARK    1  A    between atoms: C_1  and  C_2
REMARK    2  A    between atoms: C_7  and  C_8
REMARK    3  A    between atoms: C_8  and  C_9
REMARK    4  A    between atoms: C_8  and  C_10
REMARK    5  A    between atoms: C_8  and  C_11
REMARK    6  A    between atoms: C_11  and  N_12
REMARK    7  A    between atoms: N_12  and  C_13
REMARK    8  A    between atoms: C_16  and  C_17
REMARK    9  A    between atoms: N_19  and  O_20
REMARK                            x       y       z     vdW  Elec       q    Type
REMARK                         _______ _______ _______ _____ _____    ______ ____
ROOT
ATOM      1  C   UNL     1      44.104   5.158  12.417  0.00  0.00    +0.000 C 
ATOM      2  C   UNL     1      43.022   5.135  13.520  0.00  0.00    +0.000 C 
ATOM      3  C   UNL     1      43.694   6.151  11.308  0.00  0.00    +0.000 C 
ENDROOT
BRANCH   1  10
ATOM      4  C   UNL     1      50.671   8.262  13.909  0.00  0.00    +0.000 C 
ATOM      5  C   UNL     1      49.818   9.530  13.908  0.00  0.00    +0.000 C 
ATOM      6  C   UNL     1      48.367   9.271  14.382  0.00  0.00    +0.000 C 
ATOM      7  N   UNL     1      47.503   8.685  13.350  0.00  0.00    +0.000 N 
ATOM      8  C   UNL     1      47.119   7.358  13.496  0.00  0.00    +0.000 A 
ATOM      9  C   UNL     1      45.905   6.948  12.934  0.00  0.00    +0.000 A 
ATOM     10  C   UNL     1      45.437   5.629  13.047  0.00  0.00    +0.000 A 
ATOM     11  C   UNL     1      46.256   4.750  13.765  0.00  0.00    +0.000 A 
ATOM     12  C   UNL     1      47.439   5.224  14.314  0.00  0.00    +0.000 A 
ATOM     13  N   UNL     1      47.873   6.499  14.205  0.00  0.00    +0.000 NA
ATOM     14  C   UNL     1      47.653   9.200  11.980  0.00  0.00    +0.000 C 
ATOM     15  C   UNL     1      49.124   9.464  11.593  0.00  0.00    +0.000 C 
ATOM     16  N   UNL     1      49.885  10.229  12.599  0.00  0.00    +0.000 NA
ATOM     17  H   UNL     1      49.423  11.132  12.713  0.00  0.00    +0.000 HD
ENDBRANCH   1  10
BRANCH   1  18
ATOM     18  C   UNL     1      44.223   3.719  11.813  0.00  0.00    +0.000 C 
BRANCH  18  19
ATOM     19  N   UNL     1      43.640   3.563  10.472  0.00  0.00    +0.000 N 
ATOM     20  H   UNL     1      43.026   4.333  10.213  0.00  0.00    +0.000 HD
BRANCH  19  21
ATOM     21  C   UNL     1      44.526   3.247   9.426  0.00  0.00    +0.000 A 
ATOM     22  C   UNL     1      45.081   4.208   8.579  0.00  0.00    +0.000 A 
ATOM     23  C   UNL     1      46.027   3.851   7.619  0.00  0.00    +0.000 A 
ATOM     24  C   UNL     1      46.417   2.523   7.541  0.00  0.00    +0.000 A 
ATOM     25  N   UNL     1      45.927   1.544   8.346  0.00  0.00    +0.000 NA
ATOM     26  C   UNL     1      45.017   1.943   9.273  0.00  0.00    +0.000 A 
BRANCH  24  27
ATOM     27  C   UNL     1      47.448   2.129   6.539  0.00  0.00    +0.000 C 
ATOM     28  O   UNL     1      48.236   1.201   6.736  0.00  0.00    +0.000 OA
ATOM     29  N   UNL     1      47.461   2.868   5.386  0.00  0.00    +0.000 N 
ATOM     30  H   UNL     1      46.864   3.677   5.237  0.00  0.00    +0.000 HD
BRANCH  29  31
ATOM     31  O   UNL     1      48.438   2.543   4.423  0.00  0.00    +0.000 OA
ATOM     32  H   UNL     1      48.736   1.657   4.724  0.00  0.00    +0.000 HD
ENDBRANCH  29  31
ENDBRANCH  24  27
ENDBRANCH  19  21
ENDBRANCH  18  19
ENDBRANCH   1  18
TORSDOF 6
ENDMDL
MODEL 2
REMARK VINA RESULT:    -7.813      2.507      3.654
REMARK INTER + INTRA:         -10.974
REMARK INTER:                 -10.327
REMARK INTRA:                  -0.646
REMARK UNBOUND:                -0.648
REMARK  Name = 
REMARK  9 active torsions:
REMARK  status: ('A' for Active; 'I' for Inactive)
REMARK    1  A    between atoms: C_1  and  C_2
REMARK    2  A    between atoms: C_7  and  C_8
REMARK    3  A    between atoms: C_8  and  C_9
REMARK    4  A    between atoms: C_8  and  C_10
REMARK    5  A    between atoms: C_8  and  C_11
REMARK    6  A    between atoms: C_11  and  N_12
REMARK    7  A    between atoms: N_12  and  C_13
REMARK    8  A    between atoms: C_16  and  C_17
REMARK    9  A    between atoms: N_19  and  O_20
REMARK                            x       y       z     vdW  Elec       q    Type
REMARK                         _______ _______ _______ _____ _____    ______ ____
ROOT
ATOM      1  C   UNL     1      45.991   6.297  12.201  0.00  0.00    +0.000 C 
ATOM      2  C   UNL     1      45.398   7.566  12.851  0.00  0.00    +0.000 C 
ATOM      3  C   UNL     1      47.112   6.692  11.215  0.00  0.00    +0.000 C 
ENDROOT
BRANCH   1  10
ATOM      4  C   UNL     1      50.194   3.211  17.475  0.00  0.00    +0.000 C 
ATOM      5  C   UNL     1      49.809   4.493  18.215  0.00  0.00    +0.000 C 
ATOM      6  C   UNL     1      48.408   5.014  17.811  0.00  0.00    +0.000 C 
ATOM      7  N   UNL     1      48.393   5.742  16.537  0.00  0.00    +0.000 N 
ATOM      8  C   UNL     1      47.789   5.133  15.444  0.00  0.00    +0.000 A 
ATOM      9  C   UNL     1      47.235   5.945  14.448  0.00  0.00    +0.000 A 
ATOM     10  C   UNL     1      46.594   5.410  13.318  0.00  0.00    +0.000 A 
ATOM     11  C   UNL     1      46.535   4.014  13.254  0.00  0.00    +0.000 A 
ATOM     12  C   UNL     1      47.088   3.266  14.284  0.00  0.00    +0.000 A 
ATOM     13  N   UNL     1      47.692   3.793  15.370  0.00  0.00    +0.000 NA
ATOM     14  C   UNL     1      49.522   6.647  16.269  0.00  0.00    +0.000 C 
ATOM     15  C   UNL     1      50.878   6.071  16.728  0.00  0.00    +0.000 C 
ATOM     16  N   UNL     1      50.869   5.527  18.099  0.00  0.00    +0.000 NA
ATOM     17  H   UNL     1      50.621   6.288  18.731  0.00  0.00    +0.000 HD
ENDBRANCH   1  10
BRANCH   1  18
ATOM     18  C   UNL     1      44.849   5.559  11.427  0.00  0.00    +0.000 C 
BRANCH  18  19
ATOM     19  N   UNL     1      44.906   5.697   9.964  0.00  0.00    +0.000 N 
ATOM     20  H   UNL     1      45.379   6.547   9.664  0.00  0.00    +0.000 HD
BRANCH  19  21
ATOM     21  C   UNL     1      45.358   4.581   9.237  0.00  0.00    +0.000 A 
ATOM     22  C   UNL     1      46.149   4.685   8.091  0.00  0.00    +0.000 A 
ATOM     23  C   UNL     1      46.648   3.545   7.463  0.00  0.00    +0.000 A 
ATOM     24  C   UNL     1      46.357   2.307   8.016  0.00  0.00    +0.000 A 
ATOM     25  N   UNL     1      45.607   2.140   9.138  0.00  0.00    +0.000 NA
ATOM     26  C   UNL     1      45.153   3.281   9.720  0.00  0.00    +0.000 A 
BRANCH  24  27
ATOM     27  C   UNL     1      46.905   1.079   7.374  0.00  0.00    +0.000 C 
ATOM     28  O   UNL     1      47.823   1.121   6.551  0.00  0.00    +0.000 OA
ATOM     29  N   UNL     1      46.319  -0.098   7.759  0.00  0.00    +0.000 N 
ATOM     30  H   UNL     1      45.518  -0.142   8.383  0.00  0.00    +0.000 HD
BRANCH  29  31
ATOM     31  O   UNL     1      46.792  -1.281   7.155  0.00  0.00    +0.000 OA
ATOM     32  H   UNL     1      46.003  -1.863   7.198  0.00  0.00    +0.000 HD
ENDBRANCH  29  31
ENDBRANCH  24  27
ENDBRANCH  19  21
ENDBRANCH  18  19
ENDBRANCH   1  18
TORSDOF 6
ENDMDL
MODEL 3
REMARK VINA RESULT:    -7.440      3.014      5.828
REMARK INTER + INTRA:         -10.481
REMARK INTER:                  -9.505
REMARK INTRA:                  -0.976
REMARK UNBOUND:                -0.648
REMARK  Name = 
REMARK  9 active torsions:
REMARK  status: ('A' for Active; 'I' for Inactive)
REMARK    1  A    between atoms: C_1  and  C_2
REMARK    2  A    between atoms: C_7  and  C_8
REMARK    3  A    between atoms: C_8  and  C_9
REMARK    4  A    between atoms: C_8  and  C_10
REMARK    5  A    between atoms: C_8  and  C_11
REMARK    6  A    between atoms: C_11  and  N_12
REMARK    7  A    between atoms: N_12  and  C_13
REMARK    8  A    between atoms: C_16  and  C_17
REMARK    9  A    between atoms: N_19  and  O_20
REMARK                            x       y       z     vdW  Elec       q    Type
REMARK                         _______ _______ _______ _____ _____    ______ ____
ROOT
ATOM      1  C   UNL     1      48.411   8.629  12.971  0.00  0.00    +0.000 C 
ATOM      2  C   UNL     1      49.177   9.945  12.714  0.00  0.00    +0.000 C 
ATOM      3  C   UNL     1      49.047   7.488  12.145  0.00  0.00    +0.000 C 
ENDROOT
BRANCH   1  10
ATOM      4  C   UNL     1      47.910   5.622  19.731  0.00  0.00    +0.000 C 
ATOM      5  C   UNL     1      48.738   4.527  19.058  0.00  0.00    +0.000 C 
ATOM      6  C   UNL     1      49.667   5.080  17.949  0.00  0.00    +0.000 C 
ATOM      7  N   UNL     1      48.979   5.344  16.680  0.00  0.00    +0.000 N 
ATOM      8  C   UNL     1      48.786   6.668  16.304  0.00  0.00    +0.000 A 
ATOM      9  C   UNL     1      48.702   6.970  14.940  0.00  0.00    +0.000 A 
ATOM     10  C   UNL     1      48.522   8.283  14.475  0.00  0.00    +0.000 A 
ATOM     11  C   UNL     1      48.440   9.273  15.460  0.00  0.00    +0.000 A 
ATOM     12  C   UNL     1      48.549   8.909  16.795  0.00  0.00    +0.000 A 
ATOM     13  N   UNL     1      48.733   7.643  17.228  0.00  0.00    +0.000 NA
ATOM     14  C   UNL     1      47.970   4.364  16.249  0.00  0.00    +0.000 C 
ATOM     15  C   UNL     1      47.107   3.835  17.414  0.00  0.00    +0.000 C 
ATOM     16  N   UNL     1      47.882   3.406  18.593  0.00  0.00    +0.000 NA
ATOM     17  H   UNL     1      48.504   2.653  18.295  0.00  0.00    +0.000 HD
ENDBRANCH   1  10
BRANCH   1  18
ATOM     18  C   UNL     1      46.924   8.828  12.529  0.00  0.00    +0.000 C 
BRANCH  18  19
ATOM     19  N   UNL     1      45.947   8.008  13.262  0.00  0.00    +0.000 N 
ATOM     20  H   UNL     1      45.122   8.532  13.545  0.00  0.00    +0.000 HD
BRANCH  19  21
ATOM     21  C   UNL     1      45.592   6.776  12.685  0.00  0.00    +0.000 A 
ATOM     22  C   UNL     1      45.946   5.543  13.238  0.00  0.00    +0.000 A 
ATOM     23  C   UNL     1      45.488   4.352  12.676  0.00  0.00    +0.000 A 
ATOM     24  C   UNL     1      44.656   4.422  11.569  0.00  0.00    +0.000 A 
ATOM     25  N   UNL     1      44.262   5.589  10.995  0.00  0.00    +0.000 NA
ATOM     26  C   UNL     1      44.725   6.723  11.584  0.00  0.00    +0.000 A 
BRANCH  24  27
ATOM     27  C   UNL     1      44.135   3.159  10.973  0.00  0.00    +0.000 C 
ATOM     28  O   UNL     1      43.074   2.648  11.340  0.00  0.00    +0.000 OA
ATOM     29  N   UNL     1      44.915   2.605   9.994  0.00  0.00    +0.000 N 
ATOM     30  H   UNL     1      45.824   2.977   9.729  0.00  0.00    +0.000 HD
BRANCH  29  31
ATOM     31  O   UNL     1      44.470   1.396   9.422  0.00  0.00    +0.000 OA
ATOM     32  H   UNL     1      45.309   0.998   9.104  0.00  0.00    +0.000 HD
ENDBRANCH  29  31
ENDBRANCH  24  27
ENDBRANCH  19  21
ENDBRANCH  18  19
ENDBRANCH   1  18
TORSDOF 6
ENDMDL
MODEL 4
REMARK VINA RESULT:    -6.809      4.589      8.632
REMARK INTER + INTRA:          -9.647
REMARK INTER:                  -8.620
REMARK INTRA:                  -1.027
REMARK UNBOUND:                -0.648
REMARK  Name = 
REMARK  9 active torsions:
REMARK  status: ('A' for Active; 'I' for Inactive)
REMARK    1  A    between atoms: C_1  and  C_2
REMARK    2  A    between atoms: C_7  and  C_8
REMARK    3  A    between atoms: C_8  and  C_9
REMARK    4  A    between atoms: C_8  and  C_10
REMARK    5  A    between atoms: C_8  and  C_11
REMARK    6  A    between atoms: C_11  and  N_12
REMARK    7  A    between atoms: N_12  and  C_13
REMARK    8  A    between atoms: C_16  and  C_17
REMARK    9  A    between atoms: N_19  and  O_20
REMARK                            x       y       z     vdW  Elec       q    Type
REMARK                         _______ _______ _______ _____ _____    ______ ____
ROOT
ATOM      1  C   UNL     1      49.084   8.568  12.219  0.00  0.00    +0.000 C 
ATOM      2  C   UNL     1      49.796   7.444  11.434  0.00  0.00    +0.000 C 
ATOM      3  C   UNL     1      49.148   9.885  11.414  0.00  0.00    +0.000 C 
ENDROOT
BRANCH   1  10
ATOM      4  C   UNL     1      42.276   5.670  11.716  0.00  0.00    +0.000 C 
ATOM      5  C   UNL     1      43.034   4.399  12.101  0.00  0.00    +0.000 C 
ATOM      6  C   UNL     1      44.258   4.688  13.004  0.00  0.00    +0.000 C 
ATOM      7  N   UNL     1      45.434   5.170  12.269  0.00  0.00    +0.000 N 
ATOM      8  C   UNL     1      45.799   6.502  12.423  0.00  0.00    +0.000 A 
ATOM      9  C   UNL     1      47.146   6.848  12.260  0.00  0.00    +0.000 A 
ATOM     10  C   UNL     1      47.601   8.168  12.411  0.00  0.00    +0.000 A 
ATOM     11  C   UNL     1      46.626   9.115  12.743  0.00  0.00    +0.000 A 
ATOM     12  C   UNL     1      45.311   8.704  12.908  0.00  0.00    +0.000 A 
ATOM     13  N   UNL     1      44.889   7.429  12.770  0.00  0.00    +0.000 NA
ATOM     14  C   UNL     1      45.721   4.534  10.974  0.00  0.00    +0.000 C 
ATOM     15  C   UNL     1      44.449   4.248  10.147  0.00  0.00    +0.000 C 
ATOM     16  N   UNL     1      43.373   3.585  10.906  0.00  0.00    +0.000 NA
ATOM     17  H   UNL     1      43.737   2.692  11.241  0.00  0.00    +0.000 HD
ENDBRANCH   1  10
BRANCH   1  18
ATOM     18  C   UNL     1      49.817   8.755  13.588  0.00  0.00    +0.000 C 
BRANCH  18  19
ATOM     19  N   UNL     1      50.575   7.581  14.048  0.00  0.00    +0.000 N 
ATOM     20  H   UNL     1      51.581   7.731  14.042  0.00  0.00    +0.000 HD
BRANCH  19  21
ATOM     21  C   UNL     1      50.157   6.987  15.253  0.00  0.00    +0.000 A 
ATOM     22  C   UNL     1      48.847   6.559  15.480  0.00  0.00    +0.000 A 
ATOM     23  C   UNL     1      48.508   5.892  16.656  0.00  0.00    +0.000 A 
ATOM     24  C   UNL     1      49.508   5.645  17.585  0.00  0.00    +0.000 A 
ATOM     25  N   UNL     1      50.803   6.021  17.416  0.00  0.00    +0.000 NA
ATOM     26  C   UNL     1      51.086   6.658  16.250  0.00  0.00    +0.000 A 
BRANCH  24  27
ATOM     27  C   UNL     1      49.169   4.908  18.835  0.00  0.00    +0.000 C 
ATOM     28  O   UNL     1      49.417   5.364  19.954  0.00  0.00    +0.000 OA
ATOM     29  N   UNL     1      48.567   3.692  18.656  0.00  0.00    +0.000 N 
ATOM     30  H   UNL     1      48.418   3.274  17.742  0.00  0.00    +0.000 HD
BRANCH  29  31
ATOM     31  O   UNL     1      48.253   2.951  19.815  0.00  0.00    +0.000 OA
ATOM     32  H   UNL     1      47.300   2.758  19.683  0.00  0.00    +0.000 HD
ENDBRANCH  29  31
ENDBRANCH  24  27
ENDBRANCH  19  21
ENDBRANCH  18  19
ENDBRANCH   1  18
TORSDOF 6
ENDMDL
MODEL 5
REMARK VINA RESULT:    -6.807      3.963      7.989
REMARK INTER + INTRA:          -9.645
REMARK INTER:                  -8.888
REMARK INTRA:                  -0.756
REMARK UNBOUND:                -0.648
REMARK  Name = 
REMARK  9 active torsions:
REMARK  status: ('A' for Active; 'I' for Inactive)
REMARK    1  A    between atoms: C_1  and  C_2
REMARK    2  A    between atoms: C_7  and  C_8
REMARK    3  A    between atoms: C_8  and  C_9
REMARK    4  A    between atoms: C_8  and  C_10
REMARK    5  A    between atoms: C_8  and  C_11
REMARK    6  A    between atoms: C_11  and  N_12
REMARK    7  A    between atoms: N_12  and  C_13
REMARK    8  A    between atoms: C_16  and  C_17
REMARK    9  A    between atoms: N_19  and  O_20
REMARK                            x       y       z     vdW  Elec       q    Type
REMARK                         _______ _______ _______ _____ _____    ______ ____
ROOT
ATOM      1  C   UNL     1      43.759   4.520  12.182  0.00  0.00    +0.000 C 
ATOM      2  C   UNL     1      42.481   5.365  11.990  0.00  0.00    +0.000 C 
ATOM      3  C   UNL     1      43.375   3.044  12.427  0.00  0.00    +0.000 C 
ENDROOT
BRANCH   1  10
ATOM      4  C   UNL     1      48.167   3.277   6.350  0.00  0.00    +0.000 C 
ATOM      5  C   UNL     1      46.989   2.396   5.933  0.00  0.00    +0.000 C 
ATOM      6  C   UNL     1      45.631   2.940   6.442  0.00  0.00    +0.000 C 
ATOM      7  N   UNL     1      45.363   2.637   7.852  0.00  0.00    +0.000 N 
ATOM      8  C   UNL     1      45.410   3.682   8.766  0.00  0.00    +0.000 A 
ATOM      9  C   UNL     1      44.628   3.594   9.923  0.00  0.00    +0.000 A 
ATOM     10  C   UNL     1      44.607   4.612  10.890  0.00  0.00    +0.000 A 
ATOM     11  C   UNL     1      45.409   5.726  10.621  0.00  0.00    +0.000 A 
ATOM     12  C   UNL     1      46.147   5.760   9.446  0.00  0.00    +0.000 A 
ATOM     13  N   UNL     1      46.150   4.778   8.519  0.00  0.00    +0.000 NA
ATOM     14  C   UNL     1      45.745   1.299   8.333  0.00  0.00    +0.000 C 
ATOM     15  C   UNL     1      47.092   0.813   7.758  0.00  0.00    +0.000 C 
ATOM     16  N   UNL     1      47.217   0.974   6.297  0.00  0.00    +0.000 NA
ATOM     17  H   UNL     1      46.474   0.427   5.862  0.00  0.00    +0.000 HD
ENDBRANCH   1  10
BRANCH   1  18
ATOM     18  C   UNL     1      44.533   5.072  13.425  0.00  0.00    +0.000 C 
BRANCH  18  19
ATOM     19  N   UNL     1      45.710   4.282  13.819  0.00  0.00    +0.000 N 
ATOM     20  H   UNL     1      45.965   3.578  13.130  0.00  0.00    +0.000 HD
BRANCH  19  21
ATOM     21  C   UNL     1      46.840   4.999  14.254  0.00  0.00    +0.000 A 
ATOM     22  C   UNL     1      47.334   6.122  13.587  0.00  0.00    +0.000 A 
ATOM     23  C   UNL     1      48.400   6.851  14.113  0.00  0.00    +0.000 A 
ATOM     24  C   UNL     1      48.942   6.447  15.323  0.00  0.00    +0.000 A 
ATOM     25  N   UNL     1      48.496   5.374  16.028  0.00  0.00    +0.000 NA
ATOM     26  C   UNL     1      47.449   4.702  15.481  0.00  0.00    +0.000 A 
BRANCH  24  27
ATOM     27  C   UNL     1      50.064   7.231  15.913  0.00  0.00    +0.000 C 
ATOM     28  O   UNL     1      49.932   7.893  16.945  0.00  0.00    +0.000 OA
ATOM     29  N   UNL     1      51.249   7.168  15.230  0.00  0.00    +0.000 N 
ATOM     30  H   UNL     1      51.355   6.683  14.343  0.00  0.00    +0.000 HD
BRANCH  29  31
ATOM     31  O   UNL     1      52.329   7.917  15.742  0.00  0.00    +0.000 OA
ATOM     32  H   UNL     1      52.331   8.702  15.153  0.00  0.00    +0.000 HD
ENDBRANCH  29  31
ENDBRANCH  24  27
ENDBRANCH  19  21
ENDBRANCH  18  19
ENDBRANCH   1  18
TORSDOF 6
ENDMDL
MODEL 6
REMARK VINA RESULT:    -6.771      2.634      4.152
REMARK INTER + INTRA:          -9.597
REMARK INTER:                  -9.766
REMARK INTRA:                   0.170
REMARK UNBOUND:                -0.648
REMARK  Name = 
REMARK  9 active torsions:
REMARK  status: ('A' for Active; 'I' for Inactive)
REMARK    1  A    between atoms: C_1  and  C_2
REMARK    2  A    between atoms: C_7  and  C_8
REMARK    3  A    between atoms: C_8  and  C_9
REMARK    4  A    between atoms: C_8  and  C_10
REMARK    5  A    between atoms: C_8  and  C_11
REMARK    6  A    between atoms: C_11  and  N_12
REMARK    7  A    between atoms: N_12  and  C_13
REMARK    8  A    between atoms: C_16  and  C_17
REMARK    9  A    between atoms: N_19  and  O_20
REMARK                            x       y       z     vdW  Elec       q    Type
REMARK                         _______ _______ _______ _____ _____    ______ ____
ROOT
ATOM      1  C   UNL     1      46.344   6.526  12.495  0.00  0.00    +0.000 C 
ATOM      2  C   UNL     1      45.312   7.605  12.890  0.00  0.00    +0.000 C 
ATOM      3  C   UNL     1      47.013   6.910  11.157  0.00  0.00    +0.000 C 
ENDROOT
BRANCH   1  10
ATOM      4  C   UNL     1      50.148   6.023  18.840  0.00  0.00    +0.000 C 
ATOM      5  C   UNL     1      49.617   4.590  18.782  0.00  0.00    +0.000 C 
ATOM      6  C   UNL     1      49.440   4.080  17.331  0.00  0.00    +0.000 C 
ATOM      7  N   UNL     1      48.217   4.564  16.679  0.00  0.00    +0.000 N 
ATOM      8  C   UNL     1      48.345   5.504  15.665  0.00  0.00    +0.000 A 
ATOM      9  C   UNL     1      47.366   5.546  14.665  0.00  0.00    +0.000 A 
ATOM     10  C   UNL     1      47.428   6.457  13.598  0.00  0.00    +0.000 A 
ATOM     11  C   UNL     1      48.534   7.313  13.589  0.00  0.00    +0.000 A 
ATOM     12  C   UNL     1      49.479   7.207  14.599  0.00  0.00    +0.000 A 
ATOM     13  N   UNL     1      49.413   6.321  15.616  0.00  0.00    +0.000 NA
ATOM     14  C   UNL     1      46.997   4.615  17.500  0.00  0.00    +0.000 C 
ATOM     15  C   UNL     1      47.260   5.101  18.941  0.00  0.00    +0.000 C 
ATOM     16  N   UNL     1      48.392   4.431  19.607  0.00  0.00    +0.000 NA
ATOM     17  H   UNL     1      48.180   3.433  19.646  0.00  0.00    +0.000 HD
ENDBRANCH   1  10
BRANCH   1  18
ATOM     18  C   UNL     1      45.594   5.162  12.331  0.00  0.00    +0.000 C 
BRANCH  18  19
ATOM     19  N   UNL     1      44.766   5.054  11.120  0.00  0.00    +0.000 N 
ATOM     20  H   UNL     1      44.356   5.942  10.840  0.00  0.00    +0.000 HD
BRANCH  19  21
ATOM     21  C   UNL     1      45.334   4.387  10.020  0.00  0.00    +0.000 A 
ATOM     22  C   UNL     1      45.222   3.009   9.821  0.00  0.00    +0.000 A 
ATOM     23  C   UNL     1      45.723   2.413   8.665  0.00  0.00    +0.000 A 
ATOM     24  C   UNL     1      46.316   3.223   7.709  0.00  0.00    +0.000 A 
ATOM     25  N   UNL     1      46.441   4.571   7.836  0.00  0.00    +0.000 NA
ATOM     26  C   UNL     1      45.928   5.107   8.974  0.00  0.00    +0.000 A 
BRANCH  24  27
ATOM     27  C   UNL     1      46.832   2.606   6.454  0.00  0.00    +0.000 C 
ATOM     28  O   UNL     1      46.113   2.418   5.470  0.00  0.00    +0.000 OA
ATOM     29  N   UNL     1      48.157   2.261   6.471  0.00  0.00    +0.000 N 
ATOM     30  H   UNL     1      48.745   2.347   7.296  0.00  0.00    +0.000 HD
BRANCH  29  31
ATOM     31  O   UNL     1      48.679   1.650   5.311  0.00  0.00    +0.000 OA
ATOM     32  H   UNL     1      48.652   0.699   5.551  0.00  0.00    +0.000 HD
ENDBRANCH  29  31
ENDBRANCH  24  27
ENDBRANCH  19  21
ENDBRANCH  18  19
ENDBRANCH   1  18
TORSDOF 6
ENDMDL
MODEL 7
REMARK VINA RESULT:    -6.196      3.345      5.247
REMARK INTER + INTRA:          -8.836
REMARK INTER:                  -8.054
REMARK INTRA:                  -0.782
REMARK UNBOUND:                -0.648
REMARK  Name = 
REMARK  9 active torsions:
REMARK  status: ('A' for Active; 'I' for Inactive)
REMARK    1  A    between atoms: C_1  and  C_2
REMARK    2  A    between atoms: C_7  and  C_8
REMARK    3  A    between atoms: C_8  and  C_9
REMARK    4  A    between atoms: C_8  and  C_10
REMARK    5  A    between atoms: C_8  and  C_11
REMARK    6  A    between atoms: C_11  and  N_12
REMARK    7  A    between atoms: N_12  and  C_13
REMARK    8  A    between atoms: C_16  and  C_17
REMARK    9  A    between atoms: N_19  and  O_20
REMARK                            x       y       z     vdW  Elec       q    Type
REMARK                         _______ _______ _______ _____ _____    ______ ____
ROOT
ATOM      1  C   UNL     1      48.109   8.605  12.662  0.00  0.00    +0.000 C 
ATOM      2  C   UNL     1      48.774   9.961  12.338  0.00  0.00    +0.000 C 
ATOM      3  C   UNL     1      48.701   7.505  11.753  0.00  0.00    +0.000 C 
ENDROOT
BRANCH   1  10
ATOM      4  C   UNL     1      50.139   8.569  19.795  0.00  0.00    +0.000 C 
ATOM      5  C   UNL     1      48.965   9.543  19.900  0.00  0.00    +0.000 C 
ATOM      6  C   UNL     1      47.852   9.245  18.865  0.00  0.00    +0.000 C 
ATOM      7  N   UNL     1      48.149   9.744  17.517  0.00  0.00    +0.000 N 
ATOM      8  C   UNL     1      48.445   8.815  16.528  0.00  0.00    +0.000 A 
ATOM      9  C   UNL     1      48.155   9.140  15.198  0.00  0.00    +0.000 A 
ATOM     10  C   UNL     1      48.410   8.253  14.139  0.00  0.00    +0.000 A 
ATOM     11  C   UNL     1      48.964   7.019  14.497  0.00  0.00    +0.000 A 
ATOM     12  C   UNL     1      49.211   6.751  15.836  0.00  0.00    +0.000 A 
ATOM     13  N   UNL     1      48.952   7.610  16.846  0.00  0.00    +0.000 NA
ATOM     14  C   UNL     1      48.787  11.066  17.418  0.00  0.00    +0.000 C 
ATOM     15  C   UNL     1      49.861  11.300  18.502  0.00  0.00    +0.000 C 
ATOM     16  N   UNL     1      49.425  10.955  19.867  0.00  0.00    +0.000 NA
ATOM     17  H   UNL     1      48.620  11.541  20.091  0.00  0.00    +0.000 HD
ENDBRANCH   1  10
BRANCH   1  18
ATOM     18  C   UNL     1      46.573   8.732  12.397  0.00  0.00    +0.000 C 
BRANCH  18  19
ATOM     19  N   UNL     1      45.730   7.849  13.217  0.00  0.00    +0.000 N 
ATOM     20  H   UNL     1      44.982   8.346  13.697  0.00  0.00    +0.000 HD
BRANCH  19  21
ATOM     21  C   UNL     1      45.248   6.679  12.601  0.00  0.00    +0.000 A 
ATOM     22  C   UNL     1      44.913   6.612  11.247  0.00  0.00    +0.000 A 
ATOM     23  C   UNL     1      44.530   5.403  10.667  0.00  0.00    +0.000 A 
ATOM     24  C   UNL     1      44.510   4.268  11.462  0.00  0.00    +0.000 A 
ATOM     25  N   UNL     1      44.841   4.264  12.781  0.00  0.00    +0.000 NA
ATOM     26  C   UNL     1      45.218   5.463  13.298  0.00  0.00    +0.000 A 
BRANCH  24  27
ATOM     27  C   UNL     1      44.130   2.962  10.852  0.00  0.00    +0.000 C 
ATOM     28  O   UNL     1      43.166   2.305  11.251  0.00  0.00    +0.000 OA
ATOM     29  N   UNL     1      44.926   2.542   9.819  0.00  0.00    +0.000 N 
ATOM     30  H   UNL     1      45.762   3.038   9.523  0.00  0.00    +0.000 HD
BRANCH  29  31
ATOM     31  O   UNL     1      44.615   1.298   9.231  0.00  0.00    +0.000 OA
ATOM     32  H   UNL     1      44.173   0.827   9.969  0.00  0.00    +0.000 HD
ENDBRANCH  29  31
ENDBRANCH  24  27
ENDBRANCH  19  21
ENDBRANCH  18  19
ENDBRANCH   1  18
TORSDOF 6
ENDMDL
MODEL 8
REMARK VINA RESULT:    -6.090      4.761      9.023
REMARK INTER + INTRA:          -8.697
REMARK INTER:                  -7.879
REMARK INTRA:                  -0.818
REMARK UNBOUND:                -0.648
REMARK  Name = 
REMARK  9 active torsions:
REMARK  status: ('A' for Active; 'I' for Inactive)
REMARK    1  A    between atoms: C_1  and  C_2
REMARK    2  A    between atoms: C_7  and  C_8
REMARK    3  A    between atoms: C_8  and  C_9
REMARK    4  A    between atoms: C_8  and  C_10
REMARK    5  A    between atoms: C_8  and  C_11
REMARK    6  A    between atoms: C_11  and  N_12
REMARK    7  A    between atoms: N_12  and  C_13
REMARK    8  A    between atoms: C_16  and  C_17
REMARK    9  A    between atoms: N_19  and  O_20
REMARK                            x       y       z     vdW  Elec       q    Type
REMARK                         _______ _______ _______ _____ _____    ______ ____
ROOT
ATOM      1  C   UNL     1      48.789   8.286  13.161  0.00  0.00    +0.000 C 
ATOM      2  C   UNL     1      49.328   8.500  11.729  0.00  0.00    +0.000 C 
ATOM      3  C   UNL     1      47.894   9.479  13.563  0.00  0.00    +0.000 C 
ENDROOT
BRANCH   1  10
ATOM      4  C   UNL     1      43.410   3.191  12.840  0.00  0.00    +0.000 C 
ATOM      5  C   UNL     1      43.460   3.559  11.357  0.00  0.00    +0.000 C 
ATOM      6  C   UNL     1      44.877   3.981  10.897  0.00  0.00    +0.000 C 
ATOM      7  N   UNL     1      45.228   5.360  11.254  0.00  0.00    +0.000 N 
ATOM      8  C   UNL     1      46.177   5.556  12.250  0.00  0.00    +0.000 A 
ATOM      9  C   UNL     1      46.949   6.723  12.216  0.00  0.00    +0.000 A 
ATOM     10  C   UNL     1      47.939   6.992  13.176  0.00  0.00    +0.000 A 
ATOM     11  C   UNL     1      48.112   6.016  14.163  0.00  0.00    +0.000 A 
ATOM     12  C   UNL     1      47.327   4.873  14.129  0.00  0.00    +0.000 A 
ATOM     13  N   UNL     1      46.385   4.622  13.194  0.00  0.00    +0.000 NA
ATOM     14  C   UNL     1      44.174   6.377  11.114  0.00  0.00    +0.000 C 
ATOM     15  C   UNL     1      42.785   5.871  11.562  0.00  0.00    +0.000 C 
ATOM     16  N   UNL     1      42.416   4.555  11.008  0.00  0.00    +0.000 NA
ATOM     17  H   UNL     1      42.406   4.641   9.990  0.00  0.00    +0.000 HD
ENDBRANCH   1  10
BRANCH   1  18
ATOM     18  C   UNL     1      50.007   8.192  14.138  0.00  0.00    +0.000 C 
BRANCH  18  19
ATOM     19  N   UNL     1      49.830   8.901  15.415  0.00  0.00    +0.000 N 
ATOM     20  H   UNL     1      49.184   9.684  15.347  0.00  0.00    +0.000 HD
BRANCH  19  21
ATOM     21  C   UNL     1      49.556   8.112  16.546  0.00  0.00    +0.000 A 
ATOM     22  C   UNL     1      48.471   8.346  17.395  0.00  0.00    +0.000 A 
ATOM     23  C   UNL     1      48.191   7.477  18.449  0.00  0.00    +0.000 A 
ATOM     24  C   UNL     1      49.002   6.366  18.620  0.00  0.00    +0.000 A 
ATOM     25  N   UNL     1      50.061   6.074  17.820  0.00  0.00    +0.000 NA
ATOM     26  C   UNL     1      50.287   6.944  16.800  0.00  0.00    +0.000 A 
BRANCH  24  27
ATOM     27  C   UNL     1      48.700   5.411  19.725  0.00  0.00    +0.000 C 
ATOM     28  O   UNL     1      48.618   5.772  20.902  0.00  0.00    +0.000 OA
ATOM     29  N   UNL     1      48.521   4.108  19.344  0.00  0.00    +0.000 N 
ATOM     30  H   UNL     1      48.652   3.785  18.389  0.00  0.00    +0.000 HD
BRANCH  29  31
ATOM     31  O   UNL     1      48.259   3.169  20.362  0.00  0.00    +0.000 OA
ATOM     32  H   UNL     1      47.339   2.895  20.157  0.00  0.00    +0.000 HD
ENDBRANCH  29  31
ENDBRANCH  24  27
ENDBRANCH  19  21
ENDBRANCH  18  19
ENDBRANCH   1  18
TORSDOF 6
ENDMDL
MODEL 9
REMARK VINA RESULT:    -6.061      4.477      7.090
REMARK INTER + INTRA:          -8.659
REMARK INTER:                  -7.860
REMARK INTRA:                  -0.799
REMARK UNBOUND:                -0.648
REMARK  Name = 
REMARK  9 active torsions:
REMARK  status: ('A' for Active; 'I' for Inactive)
REMARK    1  A    between atoms: C_1  and  C_2
REMARK    2  A    between atoms: C_7  and  C_8
REMARK    3  A    between atoms: C_8  and  C_9
REMARK    4  A    between atoms: C_8  and  C_10
REMARK    5  A    between atoms: C_8  and  C_11
REMARK    6  A    between atoms: C_11  and  N_12
REMARK    7  A    between atoms: N_12  and  C_13
REMARK    8  A    between atoms: C_16  and  C_17
REMARK    9  A    between atoms: N_19  and  O_20
REMARK                            x       y       z     vdW  Elec       q    Type
REMARK                         _______ _______ _______ _____ _____    ______ ____
ROOT
ATOM      1  C   UNL     1      50.326   8.805  13.897  0.00  0.00    +0.000 C 
ATOM      2  C   UNL     1      50.157  10.298  13.541  0.00  0.00    +0.000 C 
ATOM      3  C   UNL     1      51.828   8.458  13.986  0.00  0.00    +0.000 C 
ENDROOT
BRANCH   1  10
ATOM      4  C   UNL     1      47.176   5.922  19.960  0.00  0.00    +0.000 C 
ATOM      5  C   UNL     1      48.571   5.316  20.121  0.00  0.00    +0.000 C 
ATOM      6  C   UNL     1      49.684   6.224  19.543  0.00  0.00    +0.000 C 
ATOM      7  N   UNL     1      49.814   6.145  18.084  0.00  0.00    +0.000 N 
ATOM      8  C   UNL     1      49.403   7.237  17.330  0.00  0.00    +0.000 A 
ATOM      9  C   UNL     1      50.015   7.463  16.092  0.00  0.00    +0.000 A 
ATOM     10  C   UNL     1      49.669   8.552  15.275  0.00  0.00    +0.000 A 
ATOM     11  C   UNL     1      48.679   9.403  15.780  0.00  0.00    +0.000 A 
ATOM     12  C   UNL     1      48.125   9.133  17.023  0.00  0.00    +0.000 A 
ATOM     13  N   UNL     1      48.475   8.088  17.803  0.00  0.00    +0.000 NA
ATOM     14  C   UNL     1      49.684   4.813  17.472  0.00  0.00    +0.000 C 
ATOM     15  C   UNL     1      48.577   3.956  18.122  0.00  0.00    +0.000 C 
ATOM     16  N   UNL     1      48.624   3.928  19.596  0.00  0.00    +0.000 NA
ATOM     17  H   UNL     1      49.526   3.535  19.868  0.00  0.00    +0.000 HD
ENDBRANCH   1  10
BRANCH   1  18
ATOM     18  C   UNL     1      49.658   7.950  12.769  0.00  0.00    +0.000 C 
BRANCH  18  19
ATOM     19  N   UNL     1      49.148   6.641  13.207  0.00  0.00    +0.000 N 
ATOM     20  H   UNL     1      49.527   6.348  14.105  0.00  0.00    +0.000 HD
BRANCH  19  21
ATOM     21  C   UNL     1      47.756   6.453  13.157  0.00  0.00    +0.000 A 
ATOM     22  C   UNL     1      46.876   7.397  12.624  0.00  0.00    +0.000 A 
ATOM     23  C   UNL     1      45.514   7.119  12.513  0.00  0.00    +0.000 A 
ATOM     24  C   UNL     1      45.059   5.876  12.925  0.00  0.00    +0.000 A 
ATOM     25  N   UNL     1      45.866   4.910  13.437  0.00  0.00    +0.000 NA
ATOM     26  C   UNL     1      47.186   5.222  13.515  0.00  0.00    +0.000 A 
BRANCH  24  27
ATOM     27  C   UNL     1      43.610   5.553  12.788  0.00  0.00    +0.000 C 
ATOM     28  O   UNL     1      43.095   4.589  13.360  0.00  0.00    +0.000 OA
ATOM     29  N   UNL     1      42.893   6.397  11.983  0.00  0.00    +0.000 N 
ATOM     30  H   UNL     1      43.316   7.153  11.452  0.00  0.00    +0.000 HD
BRANCH  29  31
ATOM     31  O   UNL     1      41.523   6.110  11.806  0.00  0.00    +0.000 OA
ATOM     32  H   UNL     1      41.095   6.877  12.242  0.00  0.00    +0.000 HD
ENDBRANCH  29  31
ENDBRANCH  24  27
ENDBRANCH  19  21
ENDBRANCH  18  19
ENDBRANCH   1  18
TORSDOF 6
ENDMDL
