MODEL 1
REMARK VINA RESULT:    -7.809      0.000      0.000
REMARK INTER + INTRA:         -10.818
REMARK INTER:                 -10.319
REMARK INTRA:                  -0.499
REMARK UNBOUND:                -0.499
REMARK  Name = 
REMARK  6 active torsions:
REMARK  status: ('A' for Active; 'I' for Inactive)
REMARK    1  A    between atoms: C_2  and  C_3
REMARK    2  A    between atoms: N_7  and  C_8
REMARK    3  A    between atoms: C_8  and  C_9
REMARK    4  A    between atoms: C_13  and  C_14
REMARK    5  A    between atoms: CA_24  and  C_25
REMARK    6  A    between atoms: C_25  and  O_26
REMARK                            x       y       z     vdW  Elec       q    Type
REMARK                         _______ _______ _______ _____ _____    ______ ____
ROOT
ATOM      1  C   UNL     1      45.451   5.850  12.247  0.00  0.00    +0.000 C 
ATOM      2  C   UNL     1      46.303   6.905  11.565  0.00  0.00    +0.000 C 
ATOM      3  C   UNL     1      44.832   7.125  11.678  0.00  0.00    +0.000 C 
ENDROOT
BRANCH   1   8
ATOM      4  C   UNL     1      48.045   3.174  15.784  0.00  0.00    +0.000 A 
ATOM      5  N   UNL     1      47.817   2.846  14.487  0.00  0.00    +0.000 NA
ATOM      6  C   UNL     1      47.000   3.696  13.801  0.00  0.00    +0.000 A 
ATOM      7  C   UNL     1      46.418   4.831  14.361  0.00  0.00    +0.000 A 
ATOM      8  N   UNL     1      45.554   5.700  13.700  0.00  0.00    +0.000 N 
ATOM      9  N   UNL     1      46.672   5.143  15.651  0.00  0.00    +0.000 NA
ATOM     10  CA  UNL     1      47.503   4.322  16.354  0.00  0.00    +0.000 A 
ATOM     11  H   UNL     1      45.325   6.479  14.305  0.00  0.00    +0.000 HD
BRANCH   4  13
ATOM     12  N   UNL     1      49.591   1.553  17.106  0.00  0.00    +0.000 NA
ATOM     13  C   UNL     1      48.884   2.264  16.514  0.00  0.00    +0.000 C 
ENDBRANCH   4  13
BRANCH  10  14
ATOM     14  C   UNL     1      47.753   4.719  17.785  0.00  0.00    +0.000 C 
BRANCH  14  15
ATOM     15  O   UNL     1      46.539   5.145  18.388  0.00  0.00    +0.000 OA
ATOM     16  H   UNL     1      46.710   5.180  19.348  0.00  0.00    +0.000 HD
ENDBRANCH  14  15
ENDBRANCH  10  14
ENDBRANCH   1   8
BRANCH   1  17
ATOM     17  C   UNL     1      45.000   4.596  11.511  0.00  0.00    +0.000 A 
ATOM     18  C   UNL     1      43.903   3.847  11.968  0.00  0.00    +0.000 A 
ATOM     19  C   UNL     1      43.400   2.780  11.228  0.00  0.00    +0.000 A 
ATOM     20  C   UNL     1      44.018   2.410  10.034  0.00  0.00    +0.000 A 
ATOM     21  C   UNL     1      45.154   3.086   9.563  0.00  0.00    +0.000 A 
ATOM     22  C   UNL     1      45.611   4.182  10.317  0.00  0.00    +0.000 A 
BRANCH  21  23
ATOM     23  C   UNL     1      45.852   2.683   8.322  0.00  0.00    +0.000 A 
ATOM     24  C   UNL     1      46.352   1.382   8.148  0.00  0.00    +0.000 A 
ATOM     25  C   UNL     1      47.019   1.011   6.977  0.00  0.00    +0.000 A 
ATOM     26  C   UNL     1      47.185   1.930   5.945  0.00  0.00    +0.000 A 
ATOM     27  C   UNL     1      46.692   3.222   6.087  0.00  0.00    +0.000 A 
ATOM     28  C   UNL     1      46.041   3.594   7.264  0.00  0.00    +0.000 A 
ENDBRANCH  21  23
ENDBRANCH   1  17
TORSDOF 6
ENDMDL
MODEL 2
REMARK VINA RESULT:    -7.807      3.606      7.924
REMARK INTER + INTRA:         -10.816
REMARK INTER:                 -10.945
REMARK INTRA:                   0.129
REMARK UNBOUND:                -0.499
REMARK  Name = 
REMARK  6 active torsions:
REMARK  status: ('A' for Active; 'I' for Inactive)
REMARK    1  A    between atoms: C_2  and  C_3
REMARK    2  A    between atoms: N_7  and  C_8
REMARK    3  A    between atoms: C_8  and  C_9
REMARK    4  A    between atoms: C_13  and  C_14
REMARK    5  A    between atoms: CA_24  and  C_25
REMARK    6  A    between atoms: C_25  and  O_26
REMARK                            x       y       z     vdW  Elec       q    Type
REMARK                         _______ _______ _______ _____ _____    ______ ____
ROOT
ATOM      1  C   UNL     1      44.236   4.672  11.860  0.00  0.00    +0.000 C 
ATOM      2  C   UNL     1      42.911   4.938  12.550  0.00  0.00    +0.000 C 
ATOM      3  C   UNL     1      43.307   5.789  11.391  0.00  0.00    +0.000 C 
ENDROOT
BRANCH   1   8
ATOM      4  C   UNL     1      46.218   3.122   7.380  0.00  0.00    +0.000 A 
ATOM      5  N   UNL     1      45.853   4.377   7.744  0.00  0.00    +0.000 NA
ATOM      6  C   UNL     1      45.250   4.484   8.963  0.00  0.00    +0.000 A 
ATOM      7  C   UNL     1      45.008   3.399   9.804  0.00  0.00    +0.000 A 
ATOM      8  N   UNL     1      44.366   3.468  11.038  0.00  0.00    +0.000 N 
ATOM      9  N   UNL     1      45.394   2.161   9.424  0.00  0.00    +0.000 NA
ATOM     10  CA  UNL     1      46.018   2.030   8.218  0.00  0.00    +0.000 A 
ATOM     11  H   UNL     1      44.374   2.555  11.477  0.00  0.00    +0.000 HD
BRANCH   4  13
ATOM     12  N   UNL     1      47.323   2.875   5.038  0.00  0.00    +0.000 NA
ATOM     13  C   UNL     1      46.828   3.006   6.084  0.00  0.00    +0.000 C 
ENDBRANCH   4  13
BRANCH  10  14
ATOM     14  C   UNL     1      46.429   0.629   7.848  0.00  0.00    +0.000 C 
BRANCH  14  15
ATOM     15  O   UNL     1      47.793   0.616   7.450  0.00  0.00    +0.000 OA
ATOM     16  H   UNL     1      47.987  -0.300   7.174  0.00  0.00    +0.000 HD
ENDBRANCH  14  15
ENDBRANCH  10  14
ENDBRANCH   1   8
BRANCH   1  17
ATOM     17  C   UNL     1      45.546   5.195  12.431  0.00  0.00    +0.000 A 
ATOM     18  C   UNL     1      46.271   6.199  11.768  0.00  0.00    +0.000 A 
ATOM     19  C   UNL     1      47.397   6.779  12.349  0.00  0.00    +0.000 A 
ATOM     20  C   UNL     1      47.849   6.329  13.589  0.00  0.00    +0.000 A 
ATOM     21  C   UNL     1      47.197   5.286  14.266  0.00  0.00    +0.000 A 
ATOM     22  C   UNL     1      46.042   4.751  13.667  0.00  0.00    +0.000 A 
BRANCH  21  23
ATOM     23  C   UNL     1      47.684   4.763  15.561  0.00  0.00    +0.000 A 
ATOM     24  C   UNL     1      48.357   5.585  16.481  0.00  0.00    +0.000 A 
ATOM     25  C   UNL     1      48.823   5.082  17.699  0.00  0.00    +0.000 A 
ATOM     26  C   UNL     1      48.610   3.747  18.032  0.00  0.00    +0.000 A 
ATOM     27  C   UNL     1      47.938   2.914  17.145  0.00  0.00    +0.000 A 
ATOM     28  C   UNL     1      47.489   3.416  15.922  0.00  0.00    +0.000 A 
ENDBRANCH  21  23
ENDBRANCH   1  17
TORSDOF 6
ENDMDL
MODEL 3
REMARK VINA RESULT:    -6.968      1.580      2.145
REMARK INTER + INTRA:          -9.707
REMARK INTER:                  -9.915
REMARK INTRA:                   0.208
REMARK UNBOUND:                -0.499
REMARK  Name = 
REMARK  6 active torsions:
REMARK  status: ('A' for Active; 'I' for Inactive)
REMARK    1  A    between atoms: C_2  and  C_3
REMARK    2  A    between atoms: N_7  and  C_8
REMARK    3  A    between atoms: C_8  and  C_9
REMARK    4  A    between atoms: C_13  and  C_14
REMARK    5  A    between atoms: CA_24  and  C_25
REMARK    6  A    between atoms: C_25  and  O_26
REMARK                            x       y       z     vdW  Elec       q    Type
REMARK                         _______ _______ _______ _____ _____    ______ ____
ROOT
ATOM      1  C   UNL     1      45.466   4.928  12.903  0.00  0.00    +0.000 C 
ATOM      2  C   UNL     1      45.908   6.301  12.431  0.00  0.00    +0.000 C 
ATOM      3  C   UNL     1      44.531   6.134  12.978  0.00  0.00    +0.000 C 
ENDROOT
BRANCH   1   8
ATOM      4  C   UNL     1      49.086   6.014  16.383  0.00  0.00    +0.000 A 
ATOM      5  N   UNL     1      49.015   6.427  15.094  0.00  0.00    +0.000 NA
ATOM      6  C   UNL     1      47.994   5.896  14.361  0.00  0.00    +0.000 A 
ATOM      7  C   UNL     1      47.071   4.985  14.869  0.00  0.00    +0.000 A 
ATOM      8  N   UNL     1      46.038   4.398  14.141  0.00  0.00    +0.000 N 
ATOM      9  N   UNL     1      47.155   4.598  16.161  0.00  0.00    +0.000 NA
ATOM     10  CA  UNL     1      48.154   5.132  16.921  0.00  0.00    +0.000 A 
ATOM     11  H   UNL     1      45.471   3.825  14.755  0.00  0.00    +0.000 HD
BRANCH   4  13
ATOM     12  N   UNL     1      51.065   6.957  17.783  0.00  0.00    +0.000 NA
ATOM     13  C   UNL     1      50.177   6.553  17.147  0.00  0.00    +0.000 C 
ENDBRANCH   4  13
BRANCH  10  14
ATOM     14  C   UNL     1      48.199   4.669  18.354  0.00  0.00    +0.000 C 
BRANCH  14  15
ATOM     15  O   UNL     1      46.993   5.028  19.016  0.00  0.00    +0.000 OA
ATOM     16  H   UNL     1      47.022   4.592  19.888  0.00  0.00    +0.000 HD
ENDBRANCH  14  15
ENDBRANCH  10  14
ENDBRANCH   1   8
BRANCH   1  17
ATOM     17  C   UNL     1      44.984   3.869  11.922  0.00  0.00    +0.000 A 
ATOM     18  C   UNL     1      43.853   3.086  12.204  0.00  0.00    +0.000 A 
ATOM     19  C   UNL     1      43.326   2.212  11.257  0.00  0.00    +0.000 A 
ATOM     20  C   UNL     1      43.952   2.068  10.019  0.00  0.00    +0.000 A 
ATOM     21  C   UNL     1      45.121   2.781   9.708  0.00  0.00    +0.000 A 
ATOM     22  C   UNL     1      45.602   3.683  10.675  0.00  0.00    +0.000 A 
BRANCH  21  23
ATOM     23  C   UNL     1      45.826   2.612   8.419  0.00  0.00    +0.000 A 
ATOM     24  C   UNL     1      45.963   3.675   7.511  0.00  0.00    +0.000 A 
ATOM     25  C   UNL     1      46.623   3.506   6.290  0.00  0.00    +0.000 A 
ATOM     26  C   UNL     1      47.177   2.273   5.959  0.00  0.00    +0.000 A 
ATOM     27  C   UNL     1      47.065   1.207   6.844  0.00  0.00    +0.000 A 
ATOM     28  C   UNL     1      46.391   1.375   8.055  0.00  0.00    +0.000 A 
ENDBRANCH  21  23
ENDBRANCH   1  17
TORSDOF 6
ENDMDL
MODEL 4
REMARK VINA RESULT:    -6.957      3.201      3.565
REMARK INTER + INTRA:          -9.692
REMARK INTER:                  -8.949
REMARK INTRA:                  -0.743
REMARK UNBOUND:                -0.499
REMARK  Name = 
REMARK  6 active torsions:
REMARK  status: ('A' for Active; 'I' for Inactive)
REMARK    1  A    between atoms: C_2  and  C_3
REMARK    2  A    between atoms: N_7  and  C_8
REMARK    3  A    between atoms: C_8  and  C_9
REMARK    4  A    between atoms: C_13  and  C_14
REMARK    5  A    between atoms: CA_24  and  C_25
REMARK    6  A    between atoms: C_25  and  O_26
REMARK                            x       y       z     vdW  Elec       q    Type
REMARK                         _______ _______ _______ _____ _____    ______ ____
ROOT
ATOM      1  C   UNL     1      44.335   6.546  11.640  0.00  0.00    +0.000 C 
ATOM      2  C   UNL     1      44.080   7.650  10.630  0.00  0.00    +0.000 C 
ATOM      3  C   UNL     1      42.960   7.199  11.506  0.00  0.00    +0.000 C 
ENDROOT
BRANCH   1   8
ATOM      4  C   UNL     1      49.102   7.998  12.890  0.00  0.00    +0.000 A 
ATOM      5  N   UNL     1      48.687   7.372  11.761  0.00  0.00    +0.000 NA
ATOM      6  C   UNL     1      47.373   7.006  11.740  0.00  0.00    +0.000 A 
ATOM      7  C   UNL     1      46.489   7.240  12.790  0.00  0.00    +0.000 A 
ATOM      8  N   UNL     1      45.152   6.850  12.816  0.00  0.00    +0.000 N 
ATOM      9  N   UNL     1      46.923   7.877  13.900  0.00  0.00    +0.000 NA
ATOM     10  CA  UNL     1      48.227   8.273  13.938  0.00  0.00    +0.000 A 
ATOM     11  H   UNL     1      44.712   7.196  13.661  0.00  0.00    +0.000 HD
BRANCH   4  13
ATOM     12  N   UNL     1      51.624   8.634  12.917  0.00  0.00    +0.000 NA
ATOM     13  C   UNL     1      50.493   8.359  12.923  0.00  0.00    +0.000 C 
ENDBRANCH   4  13
BRANCH  10  14
ATOM     14  C   UNL     1      48.656   8.982  15.195  0.00  0.00    +0.000 C 
BRANCH  14  15
ATOM     15  O   UNL     1      47.528   9.219  16.025  0.00  0.00    +0.000 OA
ATOM     16  H   UNL     1      47.609   8.602  16.777  0.00  0.00    +0.000 HD
ENDBRANCH  14  15
ENDBRANCH  10  14
ENDBRANCH   1   8
BRANCH   1  17
ATOM     17  C   UNL     1      44.334   5.080  11.230  0.00  0.00    +0.000 A 
ATOM     18  C   UNL     1      43.572   4.135  11.936  0.00  0.00    +0.000 A 
ATOM     19  C   UNL     1      43.457   2.821  11.488  0.00  0.00    +0.000 A 
ATOM     20  C   UNL     1      44.144   2.414  10.345  0.00  0.00    +0.000 A 
ATOM     21  C   UNL     1      44.969   3.303   9.637  0.00  0.00    +0.000 A 
ATOM     22  C   UNL     1      45.030   4.631  10.097  0.00  0.00    +0.000 A 
BRANCH  21  23
ATOM     23  C   UNL     1      45.741   2.882   8.448  0.00  0.00    +0.000 A 
ATOM     24  C   UNL     1      46.053   3.784   7.416  0.00  0.00    +0.000 A 
ATOM     25  C   UNL     1      46.775   3.377   6.290  0.00  0.00    +0.000 A 
ATOM     26  C   UNL     1      47.218   2.062   6.181  0.00  0.00    +0.000 A 
ATOM     27  C   UNL     1      46.933   1.152   7.192  0.00  0.00    +0.000 A 
ATOM     28  C   UNL     1      46.197   1.557   8.307  0.00  0.00    +0.000 A 
ENDBRANCH  21  23
ENDBRANCH   1  17
TORSDOF 6
ENDMDL
MODEL 5
REMARK VINA RESULT:    -6.720      1.697      2.683
REMARK INTER + INTRA:          -9.379
REMARK INTER:                  -8.592
REMARK INTRA:                  -0.788
REMARK UNBOUND:                -0.499
REMARK  Name = 
REMARK  6 active torsions:
REMARK  status: ('A' for Active; 'I' for Inactive)
REMARK    1  A    between atoms: C_2  and  C_3
REMARK    2  A    between atoms: N_7  and  C_8
REMARK    3  A    between atoms: C_8  and  C_9
REMARK    4  A    between atoms: C_13  and  C_14
REMARK    5  A    between atoms: CA_24  and  C_25
REMARK    6  A    between atoms: C_25  and  O_26
REMARK                            x       y       z     vdW  Elec       q    Type
REMARK                         _______ _______ _______ _____ _____    ______ ____
ROOT
ATOM      1  C   UNL     1      44.723   3.645  12.448  0.00  0.00    +0.000 C 
ATOM      2  C   UNL     1      43.503   4.110  13.222  0.00  0.00    +0.000 C 
ATOM      3  C   UNL     1      43.414   2.859  12.415  0.00  0.00    +0.000 C 
ENDROOT
BRANCH   1   8
ATOM      4  C   UNL     1      48.299   5.087  15.845  0.00  0.00    +0.000 A 
ATOM      5  N   UNL     1      47.609   5.866  14.975  0.00  0.00    +0.000 NA
ATOM      6  C   UNL     1      46.793   5.200  14.108  0.00  0.00    +0.000 A 
ATOM      7  C   UNL     1      46.655   3.814  14.086  0.00  0.00    +0.000 A 
ATOM      8  N   UNL     1      45.858   3.100  13.194  0.00  0.00    +0.000 N 
ATOM      9  N   UNL     1      47.343   3.060  14.972  0.00  0.00    +0.000 NA
ATOM     10  CA  UNL     1      48.150   3.703  15.864  0.00  0.00    +0.000 A 
ATOM     11  H   UNL     1      45.881   2.114  13.430  0.00  0.00    +0.000 HD
BRANCH   4  13
ATOM     12  N   UNL     1      49.876   6.386  17.454  0.00  0.00    +0.000 NA
ATOM     13  C   UNL     1      49.179   5.787  16.740  0.00  0.00    +0.000 C 
ENDBRANCH   4  13
BRANCH  10  14
ATOM     14  C   UNL     1      48.890   2.815  16.830  0.00  0.00    +0.000 C 
BRANCH  14  15
ATOM     15  O   UNL     1      49.478   1.726  16.132  0.00  0.00    +0.000 OA
ATOM     16  H   UNL     1      49.449   0.965  16.742  0.00  0.00    +0.000 HD
ENDBRANCH  14  15
ENDBRANCH  10  14
ENDBRANCH   1   8
BRANCH   1  17
ATOM     17  C   UNL     1      45.083   4.249  11.098  0.00  0.00    +0.000 A 
ATOM     18  C   UNL     1      45.051   5.639  10.899  0.00  0.00    +0.000 A 
ATOM     19  C   UNL     1      45.509   6.209   9.713  0.00  0.00    +0.000 A 
ATOM     20  C   UNL     1      45.965   5.391   8.680  0.00  0.00    +0.000 A 
ATOM     21  C   UNL     1      45.961   3.992   8.804  0.00  0.00    +0.000 A 
ATOM     22  C   UNL     1      45.528   3.455  10.030  0.00  0.00    +0.000 A 
BRANCH  21  23
ATOM     23  C   UNL     1      46.399   3.104   7.705  0.00  0.00    +0.000 A 
ATOM     24  C   UNL     1      46.581   1.724   7.903  0.00  0.00    +0.000 A 
ATOM     25  C   UNL     1      47.004   0.892   6.863  0.00  0.00    +0.000 A 
ATOM     26  C   UNL     1      47.238   1.419   5.596  0.00  0.00    +0.000 A 
ATOM     27  C   UNL     1      47.057   2.778   5.370  0.00  0.00    +0.000 A 
ATOM     28  C   UNL     1      46.650   3.610   6.415  0.00  0.00    +0.000 A 
ENDBRANCH  21  23
ENDBRANCH   1  17
TORSDOF 6
ENDMDL
MODEL 6
REMARK VINA RESULT:    -6.719      2.199      3.690
REMARK INTER + INTRA:          -9.378
REMARK INTER:                  -8.750
REMARK INTRA:                  -0.629
REMARK UNBOUND:                -0.499
REMARK  Name = 
REMARK  6 active torsions:
REMARK  status: ('A' for Active; 'I' for Inactive)
REMARK    1  A    between atoms: C_2  and  C_3
REMARK    2  A    between atoms: N_7  and  C_8
REMARK    3  A    between atoms: C_8  and  C_9
REMARK    4  A    between atoms: C_13  and  C_14
REMARK    5  A    between atoms: CA_24  and  C_25
REMARK    6  A    between atoms: C_25  and  O_26
REMARK                            x       y       z     vdW  Elec       q    Type
REMARK                         _______ _______ _______ _____ _____    ______ ____
ROOT
ATOM      1  C   UNL     1      48.549   8.029  12.621  0.00  0.00    +0.000 C 
ATOM      2  C   UNL     1      49.733   7.655  11.749  0.00  0.00    +0.000 C 
ATOM      3  C   UNL     1      49.230   9.059  11.723  0.00  0.00    +0.000 C 
ENDROOT
BRANCH   1   8
ATOM      4  C   UNL     1      48.599   5.032  16.795  0.00  0.00    +0.000 A 
ATOM      5  N   UNL     1      47.981   4.806  15.609  0.00  0.00    +0.000 NA
ATOM      6  C   UNL     1      48.044   5.827  14.707  0.00  0.00    +0.000 A 
ATOM      7  C   UNL     1      48.690   7.037  14.953  0.00  0.00    +0.000 A 
ATOM      8  N   UNL     1      48.746   8.111  14.069  0.00  0.00    +0.000 N 
ATOM      9  N   UNL     1      49.310   7.234  16.137  0.00  0.00    +0.000 NA
ATOM     10  CA  UNL     1      49.280   6.220  17.049  0.00  0.00    +0.000 A 
ATOM     11  H   UNL     1      49.328   8.844  14.459  0.00  0.00    +0.000 HD
BRANCH   4  13
ATOM     12  N   UNL     1      48.417   3.128  18.556  0.00  0.00    +0.000 NA
ATOM     13  C   UNL     1      48.508   3.967  17.755  0.00  0.00    +0.000 C 
ENDBRANCH   4  13
BRANCH  10  14
ATOM     14  C   UNL     1      49.990   6.491  18.349  0.00  0.00    +0.000 C 
BRANCH  14  15
ATOM     15  O   UNL     1      49.106   7.132  19.258  0.00  0.00    +0.000 OA
ATOM     16  H   UNL     1      49.592   7.212  20.100  0.00  0.00    +0.000 HD
ENDBRANCH  14  15
ENDBRANCH  10  14
ENDBRANCH   1   8
BRANCH   1  17
ATOM     17  C   UNL     1      47.120   7.725  12.192  0.00  0.00    +0.000 A 
ATOM     18  C   UNL     1      46.086   8.645  12.427  0.00  0.00    +0.000 A 
ATOM     19  C   UNL     1      44.806   8.437  11.919  0.00  0.00    +0.000 A 
ATOM     20  C   UNL     1      44.523   7.275  11.202  0.00  0.00    +0.000 A 
ATOM     21  C   UNL     1      45.505   6.294  10.990  0.00  0.00    +0.000 A 
ATOM     22  C   UNL     1      46.796   6.556  11.486  0.00  0.00    +0.000 A 
BRANCH  21  23
ATOM     23  C   UNL     1      45.216   5.034  10.271  0.00  0.00    +0.000 A 
ATOM     24  C   UNL     1      45.644   4.827   8.949  0.00  0.00    +0.000 A 
ATOM     25  C   UNL     1      45.360   3.637   8.272  0.00  0.00    +0.000 A 
ATOM     26  C   UNL     1      44.656   2.620   8.910  0.00  0.00    +0.000 A 
ATOM     27  C   UNL     1      44.230   2.794  10.222  0.00  0.00    +0.000 A 
ATOM     28  C   UNL     1      44.501   3.990  10.889  0.00  0.00    +0.000 A 
ENDBRANCH  21  23
ENDBRANCH   1  17
TORSDOF 6
ENDMDL
MODEL 7
REMARK VINA RESULT:    -6.480      3.359      8.001
REMARK INTER + INTRA:          -9.062
REMARK INTER:                  -8.544
REMARK INTRA:                  -0.518
REMARK UNBOUND:                -0.499
REMARK  Name = 
REMARK  6 active torsions:
REMARK  status: ('A' for Active; 'I' for Inactive)
REMARK    1  A    between atoms: C_2  and  C_3
REMARK    2  A    between atoms: N_7  and  C_8
REMARK    3  A    between atoms: C_8  and  C_9
REMARK    4  A    between atoms: C_13  and  C_14
REMARK    5  A    between atoms: CA_24  and  C_25
REMARK    6  A    between atoms: C_25  and  O_26
REMARK                            x       y       z     vdW  Elec       q    Type
REMARK                         _______ _______ _______ _____ _____    ______ ____
ROOT
ATOM      1  C   UNL     1      47.551   8.194  12.801  0.00  0.00    +0.000 C 
ATOM      2  C   UNL     1      46.429   9.098  13.279  0.00  0.00    +0.000 C 
ATOM      3  C   UNL     1      47.563   9.695  12.515  0.00  0.00    +0.000 C 
ENDROOT
BRANCH   1   8
ATOM      4  C   UNL     1      44.580   4.162  11.656  0.00  0.00    +0.000 A 
ATOM      5  N   UNL     1      44.958   4.601  12.882  0.00  0.00    +0.000 NA
ATOM      6  C   UNL     1      45.844   5.638  12.888  0.00  0.00    +0.000 A 
ATOM      7  C   UNL     1      46.351   6.230  11.733  0.00  0.00    +0.000 A 
ATOM      8  N   UNL     1      47.280   7.266  11.702  0.00  0.00    +0.000 N 
ATOM      9  N   UNL     1      45.948   5.783  10.523  0.00  0.00    +0.000 NA
ATOM     10  CA  UNL     1      45.045   4.761  10.489  0.00  0.00    +0.000 A 
ATOM     11  H   UNL     1      47.433   7.559  10.744  0.00  0.00    +0.000 HD
BRANCH   4  13
ATOM     12  N   UNL     1      42.932   2.150  11.608  0.00  0.00    +0.000 NA
ATOM     13  C   UNL     1      43.667   3.052  11.650  0.00  0.00    +0.000 C 
ENDBRANCH   4  13
BRANCH  10  14
ATOM     14  C   UNL     1      44.628   4.306   9.115  0.00  0.00    +0.000 C 
BRANCH  14  15
ATOM     15  O   UNL     1      45.542   4.798   8.145  0.00  0.00    +0.000 OA
ATOM     16  H   UNL     1      46.420   4.792   8.570  0.00  0.00    +0.000 HD
ENDBRANCH  14  15
ENDBRANCH  10  14
ENDBRANCH   1   8
BRANCH   1  17
ATOM     17  C   UNL     1      48.674   7.763  13.734  0.00  0.00    +0.000 A 
ATOM     18  C   UNL     1      49.969   8.290  13.594  0.00  0.00    +0.000 A 
ATOM     19  C   UNL     1      50.967   8.006  14.524  0.00  0.00    +0.000 A 
ATOM     20  C   UNL     1      50.700   7.148  15.590  0.00  0.00    +0.000 A 
ATOM     21  C   UNL     1      49.440   6.546  15.742  0.00  0.00    +0.000 A 
ATOM     22  C   UNL     1      48.446   6.886  14.805  0.00  0.00    +0.000 A 
BRANCH  21  23
ATOM     23  C   UNL     1      49.147   5.599  16.839  0.00  0.00    +0.000 A 
ATOM     24  C   UNL     1      49.882   5.611  18.037  0.00  0.00    +0.000 A 
ATOM     25  C   UNL     1      49.606   4.706  19.067  0.00  0.00    +0.000 A 
ATOM     26  C   UNL     1      48.577   3.780  18.927  0.00  0.00    +0.000 A 
ATOM     27  C   UNL     1      47.828   3.753  17.757  0.00  0.00    +0.000 A 
ATOM     28  C   UNL     1      48.116   4.647  16.724  0.00  0.00    +0.000 A 
ENDBRANCH  21  23
ENDBRANCH   1  17
TORSDOF 6
ENDMDL
MODEL 8
REMARK VINA RESULT:    -6.461      2.863      5.489
REMARK INTER + INTRA:          -9.037
REMARK INTER:                  -8.394
REMARK INTRA:                  -0.642
REMARK UNBOUND:                -0.499
REMARK  Name = 
REMARK  6 active torsions:
REMARK  status: ('A' for Active; 'I' for Inactive)
REMARK    1  A    between atoms: C_2  and  C_3
REMARK    2  A    between atoms: N_7  and  C_8
REMARK    3  A    between atoms: C_8  and  C_9
REMARK    4  A    between atoms: C_13  and  C_14
REMARK    5  A    between atoms: CA_24  and  C_25
REMARK    6  A    between atoms: C_25  and  O_26
REMARK                            x       y       z     vdW  Elec       q    Type
REMARK                         _______ _______ _______ _____ _____    ______ ____
ROOT
ATOM      1  C   UNL     1      45.948   4.916  12.834  0.00  0.00    +0.000 C 
ATOM      2  C   UNL     1      45.765   4.800  14.336  0.00  0.00    +0.000 C 
ATOM      3  C   UNL     1      47.017   4.276  13.717  0.00  0.00    +0.000 C 
ENDROOT
BRANCH   1   8
ATOM      4  C   UNL     1      43.418   8.987  10.981  0.00  0.00    +0.000 A 
ATOM      5  N   UNL     1      42.988   7.703  11.069  0.00  0.00    +0.000 NA
ATOM      6  C   UNL     1      43.913   6.801  11.506  0.00  0.00    +0.000 A 
ATOM      7  C   UNL     1      45.222   7.138  11.845  0.00  0.00    +0.000 A 
ATOM      8  N   UNL     1      46.201   6.239  12.261  0.00  0.00    +0.000 N 
ATOM      9  N   UNL     1      45.623   8.426  11.761  0.00  0.00    +0.000 NA
ATOM     10  CA  UNL     1      44.710   9.352  11.348  0.00  0.00    +0.000 A 
ATOM     11  H   UNL     1      47.044   6.744  12.509  0.00  0.00    +0.000 HD
BRANCH   4  13
ATOM     12  N   UNL     1      41.684  10.725  10.124  0.00  0.00    +0.000 NA
ATOM     13  C   UNL     1      42.451   9.932  10.495  0.00  0.00    +0.000 C 
ENDBRANCH   4  13
BRANCH  10  14
ATOM     14  C   UNL     1      45.209  10.771  11.277  0.00  0.00    +0.000 C 
BRANCH  14  15
ATOM     15  O   UNL     1      46.013  11.058  12.413  0.00  0.00    +0.000 OA
ATOM     16  H   UNL     1      45.728  11.934  12.733  0.00  0.00    +0.000 HD
ENDBRANCH  14  15
ENDBRANCH  10  14
ENDBRANCH   1   8
BRANCH   1  17
ATOM     17  C   UNL     1      45.302   3.924  11.877  0.00  0.00    +0.000 A 
ATOM     18  C   UNL     1      44.086   3.299  12.199  0.00  0.00    +0.000 A 
ATOM     19  C   UNL     1      43.420   2.497  11.275  0.00  0.00    +0.000 A 
ATOM     20  C   UNL     1      43.985   2.266  10.021  0.00  0.00    +0.000 A 
ATOM     21  C   UNL     1      45.228   2.816   9.670  0.00  0.00    +0.000 A 
ATOM     22  C   UNL     1      45.853   3.652  10.615  0.00  0.00    +0.000 A 
BRANCH  21  23
ATOM     23  C   UNL     1      45.867   2.548   8.363  0.00  0.00    +0.000 A 
ATOM     24  C   UNL     1      46.420   1.293   8.058  0.00  0.00    +0.000 A 
ATOM     25  C   UNL     1      47.031   1.050   6.825  0.00  0.00    +0.000 A 
ATOM     26  C   UNL     1      47.087   2.053   5.861  0.00  0.00    +0.000 A 
ATOM     27  C   UNL     1      46.538   3.301   6.133  0.00  0.00    +0.000 A 
ATOM     28  C   UNL     1      45.943   3.546   7.372  0.00  0.00    +0.000 A 
ENDBRANCH  21  23
ENDBRANCH   1  17
TORSDOF 6
ENDMDL
MODEL 9
REMARK VINA RESULT:    -6.187      3.196      3.716
REMARK INTER + INTRA:          -8.675
REMARK INTER:                  -8.666
REMARK INTRA:                  -0.009
REMARK UNBOUND:                -0.499
REMARK  Name = 
REMARK  6 active torsions:
REMARK  status: ('A' for Active; 'I' for Inactive)
REMARK    1  A    between atoms: C_2  and  C_3
REMARK    2  A    between atoms: N_7  and  C_8
REMARK    3  A    between atoms: C_8  and  C_9
REMARK    4  A    between atoms: C_13  and  C_14
REMARK    5  A    between atoms: CA_24  and  C_25
REMARK    6  A    between atoms: C_25  and  O_26
REMARK                            x       y       z     vdW  Elec       q    Type
REMARK                         _______ _______ _______ _____ _____    ______ ____
ROOT
ATOM      1  C   UNL     1      45.843   7.425  12.560  0.00  0.00    +0.000 C 
ATOM      2  C   UNL     1      46.145   8.685  11.770  0.00  0.00    +0.000 C 
ATOM      3  C   UNL     1      45.001   8.688  12.727  0.00  0.00    +0.000 C 
ENDROOT
BRANCH   1   8
ATOM      4  C   UNL     1      50.755   7.959  13.970  0.00  0.00    +0.000 A 
ATOM      5  N   UNL     1      50.227   8.052  12.724  0.00  0.00    +0.000 NA
ATOM      6  C   UNL     1      48.900   7.757  12.624  0.00  0.00    +0.000 A 
ATOM      7  C   UNL     1      48.108   7.378  13.706  0.00  0.00    +0.000 A 
ATOM      8  N   UNL     1      46.759   7.037  13.634  0.00  0.00    +0.000 N 
ATOM      9  N   UNL     1      48.654   7.306  14.940  0.00  0.00    +0.000 NA
ATOM     10  CA  UNL     1      49.975   7.617  15.071  0.00  0.00    +0.000 A 
ATOM     11  H   UNL     1      46.401   6.865  14.566  0.00  0.00    +0.000 HD
BRANCH   4  13
ATOM     12  N   UNL     1      53.298   8.487  14.116  0.00  0.00    +0.000 NA
ATOM     13  C   UNL     1      52.160   8.245  14.071  0.00  0.00    +0.000 C 
ENDBRANCH   4  13
BRANCH  10  14
ATOM     14  C   UNL     1      50.531   7.524  16.468  0.00  0.00    +0.000 C 
BRANCH  14  15
ATOM     15  O   UNL     1      50.914   6.185  16.747  0.00  0.00    +0.000 OA
ATOM     16  H   UNL     1      51.771   6.238  17.209  0.00  0.00    +0.000 HD
ENDBRANCH  14  15
ENDBRANCH  10  14
ENDBRANCH   1   8
BRANCH   1  17
ATOM     17  C   UNL     1      45.062   6.272  11.946  0.00  0.00    +0.000 A 
ATOM     18  C   UNL     1      43.757   5.977  12.373  0.00  0.00    +0.000 A 
ATOM     19  C   UNL     1      42.986   5.015  11.726  0.00  0.00    +0.000 A 
ATOM     20  C   UNL     1      43.526   4.292  10.663  0.00  0.00    +0.000 A 
ATOM     21  C   UNL     1      44.846   4.504  10.235  0.00  0.00    +0.000 A 
ATOM     22  C   UNL     1      45.582   5.510  10.888  0.00  0.00    +0.000 A 
BRANCH  21  23
ATOM     23  C   UNL     1      45.454   3.719   9.138  0.00  0.00    +0.000 A 
ATOM     24  C   UNL     1      46.036   4.342   8.022  0.00  0.00    +0.000 A 
ATOM     25  C   UNL     1      46.601   3.594   6.985  0.00  0.00    +0.000 A 
ATOM     26  C   UNL     1      46.610   2.203   7.051  0.00  0.00    +0.000 A 
ATOM     27  C   UNL     1      46.050   1.561   8.148  0.00  0.00    +0.000 A 
ATOM     28  C   UNL     1      45.473   2.311   9.175  0.00  0.00    +0.000 A 
ENDBRANCH  21  23
ENDBRANCH   1  17
TORSDOF 6
ENDMDL
