MODEL 1
REMARK VINA RESULT:    -7.328      0.000      0.000
REMARK INTER + INTRA:          -9.322
REMARK INTER:                  -9.042
REMARK INTRA:                  -0.280
REMARK UNBOUND:                -0.280
REMARK  Name = 
REMARK  7 active torsions:
REMARK  status: ('A' for Active; 'I' for Inactive)
REMARK    1  A    between atoms: C_1  and  C_2
REMARK    2  A    between atoms: C_4  and  C_5
REMARK    3  A    between atoms: C_4  and  C_6
REMARK    4  A    between atoms: C_9  and  C_10
REMARK    5  A    between atoms: C_15  and  C_16
REMARK    6  A    between atoms: C_15  and  C_17
REMARK    7  A    between atoms: C_20  and  C_21
REMARK                            x       y       z     vdW  Elec       q    Type
REMARK                         _______ _______ _______ _____ _____    ______ ____
ROOT
ATOM      1  C   UNL     1      42.263   5.149  11.575  0.00  0.00    +0.000 C 
ATOM      2  C   UNL     1      43.662   4.666  11.922  0.00  0.00    +0.000 C 
ATOM      3  C   UNL     1      44.270   5.121  13.264  0.00  0.00    +0.000 C 
ATOM      4  C   UNL     1      45.695   5.116  12.592  0.00  0.00    +0.000 C 
ATOM      5  C   UNL     1      46.401   3.766  12.820  0.00  0.00    +0.000 C 
ATOM      6  C   UNL     1      44.914   5.309  11.184  0.00  0.00    +0.000 C 
ATOM      7  C   UNL     1      44.669   6.774  10.769  0.00  0.00    +0.000 C 
ENDROOT
BRANCH   4   8
ATOM      8  C   UNL     1      46.693   6.276  13.063  0.00  0.00    +0.000 A 
ATOM      9  C   UNL     1      46.344   7.615  13.248  0.00  0.00    +0.000 A 
ATOM     10  C   UNL     1      47.282   8.533  13.710  0.00  0.00    +0.000 A 
ATOM     11  C   UNL     1      48.585   8.117  13.962  0.00  0.00    +0.000 A 
ATOM     12  C   UNL     1      48.876   6.785  13.717  0.00  0.00    +0.000 A 
ATOM     13  N   UNL     1      47.969   5.870  13.281  0.00  0.00    +0.000 NA
BRANCH  11  14
ATOM     14  C   UNL     1      49.561   9.108  14.477  0.00  0.00    +0.000 C 
ATOM     15  N   UNL     1      49.102  10.177  15.189  0.00  0.00    +0.000 N 
ATOM     16  O   UNL     1      50.763   8.982  14.269  0.00  0.00    +0.000 OA
ATOM     17  H   UNL     1      48.143  10.373  15.424  0.00  0.00    +0.000 HD
ATOM     18  H   UNL     1      49.809  10.832  15.519  0.00  0.00    +0.000 HD
ENDBRANCH  11  14
ENDBRANCH   4   8
BRANCH   6  19
ATOM     19  C   UNL     1      45.432   4.478   9.873  0.00  0.00    +0.000 A 
ATOM     20  C   UNL     1      45.205   3.091   9.751  0.00  0.00    +0.000 A 
ATOM     21  C   UNL     1      45.655   2.339   8.660  0.00  0.00    +0.000 A 
ATOM     22  C   UNL     1      46.349   2.952   7.619  0.00  0.00    +0.000 A 
ATOM     23  C   UNL     1      46.563   4.330   7.687  0.00  0.00    +0.000 A 
ATOM     24  C   UNL     1      46.108   5.068   8.788  0.00  0.00    +0.000 A 
BRANCH  22  25
ATOM     25  C   UNL     1      46.852   2.152   6.445  0.00  0.00    +0.000 C 
ATOM     26  F   UNL     1      46.666   0.809   6.583  0.00  0.00    +0.000 F 
ATOM     27  F   UNL     1      46.239   2.494   5.278  0.00  0.00    +0.000 F 
ATOM     28  F   UNL     1      48.186   2.322   6.230  0.00  0.00    +0.000 F 
ENDBRANCH  22  25
ENDBRANCH   6  19
TORSDOF 4
ENDMDL
MODEL 2
REMARK VINA RESULT:    -6.907      5.020      7.646
REMARK INTER + INTRA:          -8.802
REMARK INTER:                  -8.410
REMARK INTRA:                  -0.392
REMARK UNBOUND:                -0.280
REMARK  Name = 
REMARK  7 active torsions:
REMARK  status: ('A' for Active; 'I' for Inactive)
REMARK    1  A    between atoms: C_1  and  C_2
REMARK    2  A    between atoms: C_4  and  C_5
REMARK    3  A    between atoms: C_4  and  C_6
REMARK    4  A    between atoms: C_9  and  C_10
REMARK    5  A    between atoms: C_15  and  C_16
REMARK    6  A    between atoms: C_15  and  C_17
REMARK    7  A    between atoms: C_20  and  C_21
REMARK                            x       y       z     vdW  Elec       q    Type
REMARK                         _______ _______ _______ _____ _____    ______ ____
ROOT
ATOM      1  C   UNL     1      43.020   4.256  13.732  0.00  0.00    +0.000 C 
ATOM      2  C   UNL     1      43.515   5.021  12.516  0.00  0.00    +0.000 C 
ATOM      3  C   UNL     1      43.159   4.469  11.122  0.00  0.00    +0.000 C 
ATOM      4  C   UNL     1      44.531   5.022  10.579  0.00  0.00    +0.000 C 
ATOM      5  C   UNL     1      44.353   6.429   9.980  0.00  0.00    +0.000 C 
ATOM      6  C   UNL     1      45.050   4.935  12.113  0.00  0.00    +0.000 C 
ATOM      7  C   UNL     1      45.692   3.590  12.510  0.00  0.00    +0.000 C 
ENDROOT
BRANCH   4   8
ATOM      8  C   UNL     1      45.265   4.113   9.485  0.00  0.00    +0.000 A 
ATOM      9  C   UNL     1      45.209   2.720   9.424  0.00  0.00    +0.000 A 
ATOM     10  C   UNL     1      45.847   2.031   8.397  0.00  0.00    +0.000 A 
ATOM     11  C   UNL     1      46.569   2.736   7.440  0.00  0.00    +0.000 A 
ATOM     12  C   UNL     1      46.621   4.113   7.583  0.00  0.00    +0.000 A 
ATOM     13  N   UNL     1      45.991   4.805   8.571  0.00  0.00    +0.000 NA
BRANCH  11  14
ATOM     14  C   UNL     1      47.220   1.982   6.341  0.00  0.00    +0.000 C 
ATOM     15  N   UNL     1      47.871   2.673   5.362  0.00  0.00    +0.000 N 
ATOM     16  O   UNL     1      47.176   0.757   6.299  0.00  0.00    +0.000 OA
ATOM     17  H   UNL     1      47.975   3.672   5.302  0.00  0.00    +0.000 HD
ATOM     18  H   UNL     1      48.298   2.112   4.627  0.00  0.00    +0.000 HD
ENDBRANCH  11  14
ENDBRANCH   4   8
BRANCH   6  19
ATOM     19  C   UNL     1      45.978   6.147  12.702  0.00  0.00    +0.000 A 
ATOM     20  C   UNL     1      47.304   5.914  13.123  0.00  0.00    +0.000 A 
ATOM     21  C   UNL     1      48.121   6.916  13.657  0.00  0.00    +0.000 A 
ATOM     22  C   UNL     1      47.647   8.220  13.783  0.00  0.00    +0.000 A 
ATOM     23  C   UNL     1      46.350   8.498  13.346  0.00  0.00    +0.000 A 
ATOM     24  C   UNL     1      45.545   7.481  12.815  0.00  0.00    +0.000 A 
BRANCH  22  25
ATOM     25  C   UNL     1      48.511   9.307  14.370  0.00  0.00    +0.000 C 
ATOM     26  F   UNL     1      49.843   9.026  14.323  0.00  0.00    +0.000 F 
ATOM     27  F   UNL     1      48.358  10.499  13.730  0.00  0.00    +0.000 F 
ATOM     28  F   UNL     1      48.228   9.548  15.680  0.00  0.00    +0.000 F 
ENDBRANCH  22  25
ENDBRANCH   6  19
TORSDOF 4
ENDMDL
MODEL 3
REMARK VINA RESULT:    -6.531      5.095      7.170
REMARK INTER + INTRA:          -8.339
REMARK INTER:                  -8.142
REMARK INTRA:                  -0.196
REMARK UNBOUND:                -0.280
REMARK  Name = 
REMARK  7 active torsions:
REMARK  status: ('A' for Active; 'I' for Inactive)
REMARK    1  A    between atoms: C_1  and  C_2
REMARK    2  A    between atoms: C_4  and  C_5
REMARK    3  A    between atoms: C_4  and  C_6
REMARK    4  A    between atoms: C_9  and  C_10
REMARK    5  A    between atoms: C_15  and  C_16
REMARK    6  A    between atoms: C_15  and  C_17
REMARK    7  A    between atoms: C_20  and  C_21
REMARK                            x       y       z     vdW  Elec       q    Type
REMARK                         _______ _______ _______ _____ _____    ______ ____
ROOT
ATOM      1  C   UNL     1      48.885   8.741  17.370  0.00  0.00    +0.000 C 
ATOM      2  C   UNL     1      48.375   7.311  17.316  0.00  0.00    +0.000 C 
ATOM      3  C   UNL     1      48.862   6.330  18.400  0.00  0.00    +0.000 C 
ATOM      4  C   UNL     1      48.788   5.163  17.343  0.00  0.00    +0.000 C 
ATOM      5  C   UNL     1      47.428   4.446  17.415  0.00  0.00    +0.000 C 
ATOM      6  C   UNL     1      48.952   6.319  16.217  0.00  0.00    +0.000 C 
ATOM      7  C   UNL     1      50.407   6.649  15.826  0.00  0.00    +0.000 C 
ENDROOT
BRANCH   4   8
ATOM      8  C   UNL     1      49.935   4.051  17.451  0.00  0.00    +0.000 A 
ATOM      9  C   UNL     1      51.186   4.237  18.042  0.00  0.00    +0.000 A 
ATOM     10  C   UNL     1      52.091   3.183  18.126  0.00  0.00    +0.000 A 
ATOM     11  C   UNL     1      51.757   1.945  17.590  0.00  0.00    +0.000 A 
ATOM     12  C   UNL     1      50.518   1.840  16.979  0.00  0.00    +0.000 A 
ATOM     13  N   UNL     1      49.613   2.853  16.901  0.00  0.00    +0.000 NA
BRANCH  11  14
ATOM     14  C   UNL     1      52.728   0.830  17.713  0.00  0.00    +0.000 C 
ATOM     15  N   UNL     1      52.391  -0.260  18.461  0.00  0.00    +0.000 N 
ATOM     16  O   UNL     1      53.822   0.878  17.161  0.00  0.00    +0.000 OA
ATOM     17  H   UNL     1      51.523  -0.406  18.948  0.00  0.00    +0.000 HD
ATOM     18  H   UNL     1      53.091  -0.996  18.519  0.00  0.00    +0.000 HD
ENDBRANCH  11  14
ENDBRANCH   4   8
BRANCH   6  19
ATOM     19  C   UNL     1      48.058   6.222  14.850  0.00  0.00    +0.000 A 
ATOM     20  C   UNL     1      47.995   7.298  13.940  0.00  0.00    +0.000 A 
ATOM     21  C   UNL     1      47.221   7.265  12.775  0.00  0.00    +0.000 A 
ATOM     22  C   UNL     1      46.476   6.132  12.454  0.00  0.00    +0.000 A 
ATOM     23  C   UNL     1      46.540   5.033  13.313  0.00  0.00    +0.000 A 
ATOM     24  C   UNL     1      47.318   5.084  14.477  0.00  0.00    +0.000 A 
BRANCH  22  25
ATOM     25  C   UNL     1      45.626   6.088  11.210  0.00  0.00    +0.000 C 
ATOM     26  F   UNL     1      44.712   5.078  11.212  0.00  0.00    +0.000 F 
ATOM     27  F   UNL     1      44.915   7.235  11.022  0.00  0.00    +0.000 F 
ATOM     28  F   UNL     1      46.365   5.918  10.078  0.00  0.00    +0.000 F 
ENDBRANCH  22  25
ENDBRANCH   6  19
TORSDOF 4
ENDMDL
MODEL 4
REMARK VINA RESULT:    -6.082      6.596      9.030
REMARK INTER + INTRA:          -7.785
REMARK INTER:                  -7.751
REMARK INTRA:                  -0.034
REMARK UNBOUND:                -0.280
REMARK  Name = 
REMARK  7 active torsions:
REMARK  status: ('A' for Active; 'I' for Inactive)
REMARK    1  A    between atoms: C_1  and  C_2
REMARK    2  A    between atoms: C_4  and  C_5
REMARK    3  A    between atoms: C_4  and  C_6
REMARK    4  A    between atoms: C_9  and  C_10
REMARK    5  A    between atoms: C_15  and  C_16
REMARK    6  A    between atoms: C_15  and  C_17
REMARK    7  A    between atoms: C_20  and  C_21
REMARK                            x       y       z     vdW  Elec       q    Type
REMARK                         _______ _______ _______ _____ _____    ______ ____
ROOT
ATOM      1  C   UNL     1      48.276   5.242  20.232  0.00  0.00    +0.000 C 
ATOM      2  C   UNL     1      49.021   5.540  18.941  0.00  0.00    +0.000 C 
ATOM      3  C   UNL     1      48.356   6.494  17.929  0.00  0.00    +0.000 C 
ATOM      4  C   UNL     1      49.023   5.676  16.758  0.00  0.00    +0.000 C 
ATOM      5  C   UNL     1      50.367   6.305  16.350  0.00  0.00    +0.000 C 
ATOM      6  C   UNL     1      49.078   4.435  17.801  0.00  0.00    +0.000 C 
ATOM      7  C   UNL     1      47.835   3.523  17.797  0.00  0.00    +0.000 C 
ENDROOT
BRANCH   4   8
ATOM      8  C   UNL     1      48.139   5.506  15.435  0.00  0.00    +0.000 A 
ATOM      9  C   UNL     1      47.126   4.563  15.256  0.00  0.00    +0.000 A 
ATOM     10  C   UNL     1      46.384   4.536  14.079  0.00  0.00    +0.000 A 
ATOM     11  C   UNL     1      46.674   5.439  13.063  0.00  0.00    +0.000 A 
ATOM     12  C   UNL     1      47.720   6.320  13.286  0.00  0.00    +0.000 A 
ATOM     13  N   UNL     1      48.445   6.372  14.436  0.00  0.00    +0.000 NA
BRANCH  11  14
ATOM     14  C   UNL     1      45.853   5.408  11.827  0.00  0.00    +0.000 C 
ATOM     15  N   UNL     1      45.988   6.416  10.919  0.00  0.00    +0.000 N 
ATOM     16  O   UNL     1      45.059   4.498  11.616  0.00  0.00    +0.000 OA
ATOM     17  H   UNL     1      46.612   7.203  10.987  0.00  0.00    +0.000 HD
ATOM     18  H   UNL     1      45.402   6.353  10.090  0.00  0.00    +0.000 HD
ENDBRANCH  11  14
ENDBRANCH   4   8
BRANCH   6  19
ATOM     19  C   UNL     1      50.414   3.491  17.835  0.00  0.00    +0.000 A 
ATOM     20  C   UNL     1      50.405   2.192  17.282  0.00  0.00    +0.000 A 
ATOM     21  C   UNL     1      51.517   1.344  17.314  0.00  0.00    +0.000 A 
ATOM     22  C   UNL     1      52.711   1.767  17.895  0.00  0.00    +0.000 A 
ATOM     23  C   UNL     1      52.770   3.059  18.422  0.00  0.00    +0.000 A 
ATOM     24  C   UNL     1      51.646   3.895  18.383  0.00  0.00    +0.000 A 
BRANCH  22  25
ATOM     25  C   UNL     1      53.912   0.859  17.949  0.00  0.00    +0.000 C 
ATOM     26  F   UNL     1      54.733   0.977  16.868  0.00  0.00    +0.000 F 
ATOM     27  F   UNL     1      54.696   1.093  19.038  0.00  0.00    +0.000 F 
ATOM     28  F   UNL     1      53.569  -0.458  18.012  0.00  0.00    +0.000 F 
ENDBRANCH  22  25
ENDBRANCH   6  19
TORSDOF 4
ENDMDL
MODEL 5
REMARK VINA RESULT:    -6.017      3.993      6.085
REMARK INTER + INTRA:          -7.704
REMARK INTER:                  -6.888
REMARK INTRA:                  -0.816
REMARK UNBOUND:                -0.280
REMARK  Name = 
REMARK  7 active torsions:
REMARK  status: ('A' for Active; 'I' for Inactive)
REMARK    1  A    between atoms: C_1  and  C_2
REMARK    2  A    between atoms: C_4  and  C_5
REMARK    3  A    between atoms: C_4  and  C_6
REMARK    4  A    between atoms: C_9  and  C_10
REMARK    5  A    between atoms: C_15  and  C_16
REMARK    6  A    between atoms: C_15  and  C_17
REMARK    7  A    between atoms: C_20  and  C_21
REMARK                            x       y       z     vdW  Elec       q    Type
REMARK                         _______ _______ _______ _____ _____    ______ ____
ROOT
ATOM      1  C   UNL     1      49.345   9.866  11.396  0.00  0.00    +0.000 C 
ATOM      2  C   UNL     1      48.783   9.461  12.749  0.00  0.00    +0.000 C 
ATOM      3  C   UNL     1      49.703   9.591  13.979  0.00  0.00    +0.000 C 
ATOM      4  C   UNL     1      48.994   8.334  14.612  0.00  0.00    +0.000 C 
ATOM      5  C   UNL     1      47.835   8.765  15.529  0.00  0.00    +0.000 C 
ATOM      6  C   UNL     1      48.613   7.918  13.091  0.00  0.00    +0.000 C 
ATOM      7  C   UNL     1      49.654   7.034  12.376  0.00  0.00    +0.000 C 
ENDROOT
BRANCH   4   8
ATOM      8  C   UNL     1      49.938   7.348  15.446  0.00  0.00    +0.000 A 
ATOM      9  C   UNL     1      51.327   7.447  15.539  0.00  0.00    +0.000 A 
ATOM     10  C   UNL     1      52.047   6.562  16.336  0.00  0.00    +0.000 A 
ATOM     11  C   UNL     1      51.379   5.553  17.021  0.00  0.00    +0.000 A 
ATOM     12  C   UNL     1      50.006   5.483  16.851  0.00  0.00    +0.000 A 
ATOM     13  N   UNL     1      49.283   6.348  16.090  0.00  0.00    +0.000 NA
BRANCH  11  14
ATOM     14  C   UNL     1      52.165   4.637  17.884  0.00  0.00    +0.000 C 
ATOM     15  N   UNL     1      51.515   3.902  18.831  0.00  0.00    +0.000 N 
ATOM     16  O   UNL     1      53.381   4.537  17.760  0.00  0.00    +0.000 OA
ATOM     17  H   UNL     1      50.525   3.901  19.012  0.00  0.00    +0.000 HD
ATOM     18  H   UNL     1      52.097   3.292  19.400  0.00  0.00    +0.000 HD
ENDBRANCH  11  14
ENDBRANCH   4   8
BRANCH   6  19
ATOM     19  C   UNL     1      47.122   7.315  12.787  0.00  0.00    +0.000 A 
ATOM     20  C   UNL     1      46.757   6.021  13.216  0.00  0.00    +0.000 A 
ATOM     21  C   UNL     1      45.504   5.458  12.953  0.00  0.00    +0.000 A 
ATOM     22  C   UNL     1      44.538   6.179  12.254  0.00  0.00    +0.000 A 
ATOM     23  C   UNL     1      44.851   7.477  11.843  0.00  0.00    +0.000 A 
ATOM     24  C   UNL     1      46.112   8.025  12.112  0.00  0.00    +0.000 A 
BRANCH  22  25
ATOM     25  C   UNL     1      43.189   5.580  11.951  0.00  0.00    +0.000 C 
ATOM     26  F   UNL     1      43.250   4.489  11.137  0.00  0.00    +0.000 F 
ATOM     27  F   UNL     1      42.535   5.171  13.074  0.00  0.00    +0.000 F 
ATOM     28  F   UNL     1      42.354   6.459  11.332  0.00  0.00    +0.000 F 
ENDBRANCH  22  25
ENDBRANCH   6  19
TORSDOF 4
ENDMDL
MODEL 6
REMARK VINA RESULT:    -5.846      5.755      8.513
REMARK INTER + INTRA:          -7.493
REMARK INTER:                  -6.675
REMARK INTRA:                  -0.818
REMARK UNBOUND:                -0.280
REMARK  Name = 
REMARK  7 active torsions:
REMARK  status: ('A' for Active; 'I' for Inactive)
REMARK    1  A    between atoms: C_1  and  C_2
REMARK    2  A    between atoms: C_4  and  C_5
REMARK    3  A    between atoms: C_4  and  C_6
REMARK    4  A    between atoms: C_9  and  C_10
REMARK    5  A    between atoms: C_15  and  C_16
REMARK    6  A    between atoms: C_15  and  C_17
REMARK    7  A    between atoms: C_20  and  C_21
REMARK                            x       y       z     vdW  Elec       q    Type
REMARK                         _______ _______ _______ _____ _____    ______ ____
ROOT
ATOM      1  C   UNL     1      49.254  11.161  13.772  0.00  0.00    +0.000 C 
ATOM      2  C   UNL     1      49.400   9.762  13.196  0.00  0.00    +0.000 C 
ATOM      3  C   UNL     1      48.335   9.282  12.191  0.00  0.00    +0.000 C 
ATOM      4  C   UNL     1      48.517   7.814  12.737  0.00  0.00    +0.000 C 
ATOM      5  C   UNL     1      49.548   7.042  11.893  0.00  0.00    +0.000 C 
ATOM      6  C   UNL     1      49.053   8.505  14.103  0.00  0.00    +0.000 C 
ATOM      7  C   UNL     1      47.963   8.813  15.150  0.00  0.00    +0.000 C 
ENDROOT
BRANCH   4   8
ATOM      8  C   UNL     1      47.185   6.929  12.814  0.00  0.00    +0.000 A 
ATOM      9  C   UNL     1      45.912   7.352  12.431  0.00  0.00    +0.000 A 
ATOM     10  C   UNL     1      44.829   6.480  12.494  0.00  0.00    +0.000 A 
ATOM     11  C   UNL     1      45.014   5.187  12.970  0.00  0.00    +0.000 A 
ATOM     12  C   UNL     1      46.294   4.845  13.375  0.00  0.00    +0.000 A 
ATOM     13  N   UNL     1      47.367   5.677  13.306  0.00  0.00    +0.000 NA
BRANCH  11  14
ATOM     14  C   UNL     1      43.850   4.268  13.005  0.00  0.00    +0.000 C 
ATOM     15  N   UNL     1      44.040   2.949  12.714  0.00  0.00    +0.000 N 
ATOM     16  O   UNL     1      42.727   4.676  13.285  0.00  0.00    +0.000 OA
ATOM     17  H   UNL     1      44.915   2.509  12.480  0.00  0.00    +0.000 HD
ATOM     18  H   UNL     1      43.212   2.359  12.747  0.00  0.00    +0.000 HD
ENDBRANCH  11  14
ENDBRANCH   4   8
BRANCH   6  19
ATOM     19  C   UNL     1      50.338   7.843  14.871  0.00  0.00    +0.000 A 
ATOM     20  C   UNL     1      50.166   6.868  15.875  0.00  0.00    +0.000 A 
ATOM     21  C   UNL     1      51.235   6.297  16.574  0.00  0.00    +0.000 A 
ATOM     22  C   UNL     1      52.546   6.670  16.284  0.00  0.00    +0.000 A 
ATOM     23  C   UNL     1      52.759   7.609  15.272  0.00  0.00    +0.000 A 
ATOM     24  C   UNL     1      51.676   8.172  14.584  0.00  0.00    +0.000 A 
BRANCH  22  25
ATOM     25  C   UNL     1      53.707   6.075  17.038  0.00  0.00    +0.000 C 
ATOM     26  F   UNL     1      54.253   6.925  17.954  0.00  0.00    +0.000 F 
ATOM     27  F   UNL     1      53.362   4.954  17.730  0.00  0.00    +0.000 F 
ATOM     28  F   UNL     1      54.730   5.708  16.217  0.00  0.00    +0.000 F 
ENDBRANCH  22  25
ENDBRANCH   6  19
TORSDOF 4
ENDMDL
MODEL 7
REMARK VINA RESULT:    -5.705      5.766      7.820
REMARK INTER + INTRA:          -7.319
REMARK INTER:                  -6.796
REMARK INTRA:                  -0.523
REMARK UNBOUND:                -0.280
REMARK  Name = 
REMARK  7 active torsions:
REMARK  status: ('A' for Active; 'I' for Inactive)
REMARK    1  A    between atoms: C_1  and  C_2
REMARK    2  A    between atoms: C_4  and  C_5
REMARK    3  A    between atoms: C_4  and  C_6
REMARK    4  A    between atoms: C_9  and  C_10
REMARK    5  A    between atoms: C_15  and  C_16
REMARK    6  A    between atoms: C_15  and  C_17
REMARK    7  A    between atoms: C_20  and  C_21
REMARK                            x       y       z     vdW  Elec       q    Type
REMARK                         _______ _______ _______ _____ _____    ______ ____
ROOT
ATOM      1  C   UNL     1      51.358   9.491  15.662  0.00  0.00    +0.000 C 
ATOM      2  C   UNL     1      50.623   8.631  14.647  0.00  0.00    +0.000 C 
ATOM      3  C   UNL     1      50.160   9.299  13.337  0.00  0.00    +0.000 C 
ATOM      4  C   UNL     1      48.911   8.338  13.317  0.00  0.00    +0.000 C 
ATOM      5  C   UNL     1      49.204   7.079  12.480  0.00  0.00    +0.000 C 
ATOM      6  C   UNL     1      49.113   8.218  14.922  0.00  0.00    +0.000 C 
ATOM      7  C   UNL     1      48.354   9.270  15.756  0.00  0.00    +0.000 C 
ENDROOT
BRANCH   4   8
ATOM      8  C   UNL     1      47.547   8.979  12.777  0.00  0.00    +0.000 A 
ATOM      9  C   UNL     1      47.406  10.276  12.281  0.00  0.00    +0.000 A 
ATOM     10  C   UNL     1      46.180  10.715  11.790  0.00  0.00    +0.000 A 
ATOM     11  C   UNL     1      45.082   9.863  11.821  0.00  0.00    +0.000 A 
ATOM     12  C   UNL     1      45.279   8.605  12.365  0.00  0.00    +0.000 A 
ATOM     13  N   UNL     1      46.472   8.152  12.835  0.00  0.00    +0.000 NA
BRANCH  11  14
ATOM     14  C   UNL     1      43.792  10.345  11.268  0.00  0.00    +0.000 C 
ATOM     15  N   UNL     1      43.308   9.776  10.127  0.00  0.00    +0.000 N 
ATOM     16  O   UNL     1      43.163  11.244  11.817  0.00  0.00    +0.000 OA
ATOM     17  H   UNL     1      43.736   9.031   9.603  0.00  0.00    +0.000 HD
ATOM     18  H   UNL     1      42.422  10.143   9.785  0.00  0.00    +0.000 HD
ENDBRANCH  11  14
ENDBRANCH   4   8
BRANCH   6  19
ATOM     19  C   UNL     1      48.925   6.757  15.634  0.00  0.00    +0.000 A 
ATOM     20  C   UNL     1      47.859   5.904  15.281  0.00  0.00    +0.000 A 
ATOM     21  C   UNL     1      47.648   4.659  15.884  0.00  0.00    +0.000 A 
ATOM     22  C   UNL     1      48.515   4.198  16.872  0.00  0.00    +0.000 A 
ATOM     23  C   UNL     1      49.603   5.000  17.225  0.00  0.00    +0.000 A 
ATOM     24  C   UNL     1      49.798   6.245  16.612  0.00  0.00    +0.000 A 
BRANCH  22  25
ATOM     25  C   UNL     1      48.292   2.866  17.541  0.00  0.00    +0.000 C 
ATOM     26  F   UNL     1      48.696   2.838  18.843  0.00  0.00    +0.000 F 
ATOM     27  F   UNL     1      46.980   2.499  17.550  0.00  0.00    +0.000 F 
ATOM     28  F   UNL     1      48.959   1.852  16.923  0.00  0.00    +0.000 F 
ENDBRANCH  22  25
ENDBRANCH   6  19
TORSDOF 4
ENDMDL
MODEL 8
REMARK VINA RESULT:    -5.215      3.390      5.595
REMARK INTER + INTRA:          -6.714
REMARK INTER:                  -6.237
REMARK INTRA:                  -0.477
REMARK UNBOUND:                -0.280
REMARK  Name = 
REMARK  7 active torsions:
REMARK  status: ('A' for Active; 'I' for Inactive)
REMARK    1  A    between atoms: C_1  and  C_2
REMARK    2  A    between atoms: C_4  and  C_5
REMARK    3  A    between atoms: C_4  and  C_6
REMARK    4  A    between atoms: C_9  and  C_10
REMARK    5  A    between atoms: C_15  and  C_16
REMARK    6  A    between atoms: C_15  and  C_17
REMARK    7  A    between atoms: C_20  and  C_21
REMARK                            x       y       z     vdW  Elec       q    Type
REMARK                         _______ _______ _______ _____ _____    ______ ____
ROOT
ATOM      1  C   UNL     1      50.704   7.464  10.982  0.00  0.00    +0.000 C 
ATOM      2  C   UNL     1      49.493   8.226  11.496  0.00  0.00    +0.000 C 
ATOM      3  C   UNL     1      49.733   9.599  12.154  0.00  0.00    +0.000 C 
ATOM      4  C   UNL     1      48.509   9.327  13.110  0.00  0.00    +0.000 C 
ATOM      5  C   UNL     1      47.216   9.921  12.523  0.00  0.00    +0.000 C 
ATOM      6  C   UNL     1      48.785   7.752  12.838  0.00  0.00    +0.000 C 
ATOM      7  C   UNL     1      49.767   7.082  13.820  0.00  0.00    +0.000 C 
ENDROOT
BRANCH   4   8
ATOM      8  C   UNL     1      48.661   9.868  14.608  0.00  0.00    +0.000 A 
ATOM      9  C   UNL     1      49.472  10.932  15.004  0.00  0.00    +0.000 A 
ATOM     10  C   UNL     1      49.491  11.353  16.330  0.00  0.00    +0.000 A 
ATOM     11  C   UNL     1      48.715  10.688  17.273  0.00  0.00    +0.000 A 
ATOM     12  C   UNL     1      47.966   9.613  16.824  0.00  0.00    +0.000 A 
ATOM     13  N   UNL     1      47.923   9.197  15.529  0.00  0.00    +0.000 NA
BRANCH  11  14
ATOM     14  C   UNL     1      48.732  11.170  18.676  0.00  0.00    +0.000 C 
ATOM     15  N   UNL     1      47.553  11.516  19.270  0.00  0.00    +0.000 N 
ATOM     16  O   UNL     1      49.782  11.265  19.302  0.00  0.00    +0.000 OA
ATOM     17  H   UNL     1      46.638  11.470  18.853  0.00  0.00    +0.000 HD
ATOM     18  H   UNL     1      47.616  11.844  20.231  0.00  0.00    +0.000 HD
ENDBRANCH  11  14
ENDBRANCH   4   8
BRANCH   6  19
ATOM     19  C   UNL     1      47.508   6.753  12.617  0.00  0.00    +0.000 A 
ATOM     20  C   UNL     1      47.057   5.905  13.650  0.00  0.00    +0.000 A 
ATOM     21  C   UNL     1      45.987   5.017  13.494  0.00  0.00    +0.000 A 
ATOM     22  C   UNL     1      45.299   4.948  12.284  0.00  0.00    +0.000 A 
ATOM     23  C   UNL     1      45.695   5.797  11.247  0.00  0.00    +0.000 A 
ATOM     24  C   UNL     1      46.770   6.678  11.421  0.00  0.00    +0.000 A 
BRANCH  22  25
ATOM     25  C   UNL     1      44.154   3.986  12.096  0.00  0.00    +0.000 C 
ATOM     26  F   UNL     1      44.430   2.722  12.526  0.00  0.00    +0.000 F 
ATOM     27  F   UNL     1      43.033   4.371  12.767  0.00  0.00    +0.000 F 
ATOM     28  F   UNL     1      43.784   3.862  10.791  0.00  0.00    +0.000 F 
ENDBRANCH  22  25
ENDBRANCH   6  19
TORSDOF 4
ENDMDL
MODEL 9
REMARK VINA RESULT:    -5.074     11.400     13.182
REMARK INTER + INTRA:          -6.540
REMARK INTER:                  -5.843
REMARK INTRA:                  -0.697
REMARK UNBOUND:                -0.280
REMARK  Name = 
REMARK  7 active torsions:
REMARK  status: ('A' for Active; 'I' for Inactive)
REMARK    1  A    between atoms: C_1  and  C_2
REMARK    2  A    between atoms: C_4  and  C_5
REMARK    3  A    between atoms: C_4  and  C_6
REMARK    4  A    between atoms: C_9  and  C_10
REMARK    5  A    between atoms: C_15  and  C_16
REMARK    6  A    between atoms: C_15  and  C_17
REMARK    7  A    between atoms: C_20  and  C_21
REMARK                            x       y       z     vdW  Elec       q    Type
REMARK                         _______ _______ _______ _____ _____    ______ ____
ROOT
ATOM      1  C   UNL     1      41.889  -5.709  12.865  0.00  0.00    +0.000 C 
ATOM      2  C   UNL     1      40.515  -5.158  13.207  0.00  0.00    +0.000 C 
ATOM      3  C   UNL     1      39.507  -4.969  12.055  0.00  0.00    +0.000 C 
ATOM      4  C   UNL     1      38.913  -3.722  12.812  0.00  0.00    +0.000 C 
ATOM      5  C   UNL     1      37.715  -4.134  13.688  0.00  0.00    +0.000 C 
ATOM      6  C   UNL     1      40.357  -3.613  13.544  0.00  0.00    +0.000 C 
ATOM      7  C   UNL     1      41.394  -2.738  12.813  0.00  0.00    +0.000 C 
ENDROOT
BRANCH   4   8
ATOM      8  C   UNL     1      38.446  -2.502  11.887  0.00  0.00    +0.000 A 
ATOM      9  C   UNL     1      38.323  -2.544  10.498  0.00  0.00    +0.000 A 
ATOM     10  C   UNL     1      37.859  -1.436   9.795  0.00  0.00    +0.000 A 
ATOM     11  C   UNL     1      37.542  -0.269  10.482  0.00  0.00    +0.000 A 
ATOM     12  C   UNL     1      37.728  -0.280  11.855  0.00  0.00    +0.000 A 
ATOM     13  N   UNL     1      38.165  -1.357  12.560  0.00  0.00    +0.000 NA
BRANCH  11  14
ATOM     14  C   UNL     1      37.025   0.891   9.714  0.00  0.00    +0.000 C 
ATOM     15  N   UNL     1      35.959   0.710   8.883  0.00  0.00    +0.000 N 
ATOM     16  O   UNL     1      37.543   1.998   9.813  0.00  0.00    +0.000 OA
ATOM     17  H   UNL     1      35.457  -0.149   8.733  0.00  0.00    +0.000 HD
ATOM     18  H   UNL     1      35.644   1.534   8.376  0.00  0.00    +0.000 HD
ENDBRANCH  11  14
ENDBRANCH   4   8
BRANCH   6  19
ATOM     19  C   UNL     1      40.408  -3.256  15.140  0.00  0.00    +0.000 A 
ATOM     20  C   UNL     1      40.692  -4.248  16.101  0.00  0.00    +0.000 A 
ATOM     21  C   UNL     1      40.719  -3.990  17.476  0.00  0.00    +0.000 A 
ATOM     22  C   UNL     1      40.476  -2.706  17.958  0.00  0.00    +0.000 A 
ATOM     23  C   UNL     1      40.224  -1.689  17.034  0.00  0.00    +0.000 A 
ATOM     24  C   UNL     1      40.199  -1.965  15.661  0.00  0.00    +0.000 A 
BRANCH  22  25
ATOM     25  C   UNL     1      40.487  -2.417  19.437  0.00  0.00    +0.000 C 
ATOM     26  F   UNL     1      40.595  -1.090  19.730  0.00  0.00    +0.000 F 
ATOM     27  F   UNL     1      39.356  -2.846  20.062  0.00  0.00    +0.000 F 
ATOM     28  F   UNL     1      41.522  -3.024  20.080  0.00  0.00    +0.000 F 
ENDBRANCH  22  25
ENDBRANCH   6  19
TORSDOF 4
ENDMDL
