MODEL 1
REMARK VINA RESULT:    -6.977      0.000      0.000
REMARK INTER + INTRA:         -11.491
REMARK INTER:                  -9.833
REMARK INTRA:                  -1.659
REMARK UNBOUND:                -1.659
REMARK  Name = 
REMARK  8 active torsions:
REMARK  status: ('A' for Active; 'I' for Inactive)
REMARK    1  A    between atoms: C_1  and  O_2
REMARK    2  A    between atoms: O_2  and  C_3
REMARK    3  A    between atoms: C_10  and  C_11
REMARK    4  A    between atoms: N_13  and  C_14
REMARK    5  A    between atoms: C_14  and  C_15
REMARK    6  A    between atoms: C_18  and  N_19
REMARK    7  A    between atoms: N_19  and  C_20
REMARK    8  A    between atoms: C_20  and  C_21
REMARK                            x       y       z     vdW  Elec       q    Type
REMARK                         _______ _______ _______ _____ _____    ______ ____
ROOT
ATOM      1  C   UNL     1      48.222   8.715  14.504  0.00  0.00    +0.000 C 
ENDROOT
BRANCH   1   2
ATOM      2  C   UNL     1      47.380   8.190  13.372  0.00  0.00    +0.000 A 
ATOM      3  C   UNL     1      47.891   7.263  12.459  0.00  0.00    +0.000 A 
ATOM      4  C   UNL     1      47.065   6.714  11.468  0.00  0.00    +0.000 A 
ATOM      5  C   UNL     1      45.712   7.065  11.375  0.00  0.00    +0.000 A 
ATOM      6  C   UNL     1      45.257   8.094  12.202  0.00  0.00    +0.000 A 
ATOM      7  C   UNL     1      46.069   8.638  13.201  0.00  0.00    +0.000 A 
BRANCH   5   8
ATOM      8  N   UNL     1      44.915   6.452  10.409  0.00  0.00    +0.000 N 
ATOM      9  H   UNL     1      44.864   6.969   9.538  0.00  0.00    +0.000 HD
BRANCH   8  10
ATOM     10  C   UNL     1      44.923   4.992  10.246  0.00  0.00    +0.000 C 
BRANCH  10  11
ATOM     11  C   UNL     1      43.528   4.368  10.475  0.00  0.00    +0.000 C 
ATOM     12  C   UNL     1      42.654   5.146  11.473  0.00  0.00    +0.000 C 
ATOM     13  C   UNL     1      43.208   5.049  12.892  0.00  0.00    +0.000 C 
ATOM     14  C   UNL     1      43.433   3.593  13.299  0.00  0.00    +0.000 C 
ATOM     15  N   UNL     1      44.261   2.871  12.329  0.00  0.00    +0.000 NA
ATOM     16  C   UNL     1      43.683   2.921  10.983  0.00  0.00    +0.000 C 
ATOM     17  H   UNL     1      44.348   1.898  12.625  0.00  0.00    +0.000 HD
ENDBRANCH  10  11
ENDBRANCH   8  10
ENDBRANCH   5   8
ENDBRANCH   1   2
BRANCH   1  20
ATOM     18  C   UNL     1      49.455   6.953  15.681  0.00  0.00    +0.000 C 
ATOM     19  O   UNL     1      50.393   7.045  14.892  0.00  0.00    +0.000 OA
ATOM     20  N   UNL     1      48.350   7.748  15.562  0.00  0.00    +0.000 N 
ATOM     21  H   UNL     1      47.571   7.645  16.198  0.00  0.00    +0.000 HD
BRANCH  18  29
ATOM     22  C   UNL     1      47.413   4.322  16.534  0.00  0.00    +0.000 A 
ATOM     23  N   UNL     1      46.824   3.226  17.054  0.00  0.00    +0.000 NA
ATOM     24  C   UNL     1      47.377   2.677  18.140  0.00  0.00    +0.000 A 
ATOM     25  N   UNL     1      48.457   3.096  18.791  0.00  0.00    +0.000 NA
ATOM     26  C   UNL     1      49.019   4.181  18.230  0.00  0.00    +0.000 A 
ATOM     27  S   UNL     1      50.405   4.864  18.931  0.00  0.00    +0.000 S 
ATOM     28  C   UNL     1      50.483   6.062  17.731  0.00  0.00    +0.000 A 
ATOM     29  C   UNL     1      49.473   5.973  16.780  0.00  0.00    +0.000 A 
ATOM     30  C   UNL     1      48.585   4.857  17.095  0.00  0.00    +0.000 A 
BRANCH  22  32
ATOM     31  C   UNL     1      47.049   4.119  14.227  0.00  0.00    +0.000 C 
ATOM     32  O   UNL     1      46.851   4.889  15.411  0.00  0.00    +0.000 OA
ENDBRANCH  22  32
ENDBRANCH  18  29
ENDBRANCH   1  20
TORSDOF 7
ENDMDL
MODEL 2
REMARK VINA RESULT:    -6.967      2.407      3.327
REMARK INTER + INTRA:         -11.476
REMARK INTER:                 -10.097
REMARK INTRA:                  -1.380
REMARK UNBOUND:                -1.659
REMARK  Name = 
REMARK  8 active torsions:
REMARK  status: ('A' for Active; 'I' for Inactive)
REMARK    1  A    between atoms: C_1  and  O_2
REMARK    2  A    between atoms: O_2  and  C_3
REMARK    3  A    between atoms: C_10  and  C_11
REMARK    4  A    between atoms: N_13  and  C_14
REMARK    5  A    between atoms: C_14  and  C_15
REMARK    6  A    between atoms: C_18  and  N_19
REMARK    7  A    between atoms: N_19  and  C_20
REMARK    8  A    between atoms: C_20  and  C_21
REMARK                            x       y       z     vdW  Elec       q    Type
REMARK                         _______ _______ _______ _____ _____    ______ ____
ROOT
ATOM      1  C   UNL     1      49.145   7.147  15.444  0.00  0.00    +0.000 C 
ENDROOT
BRANCH   1   2
ATOM      2  C   UNL     1      48.242   6.540  14.404  0.00  0.00    +0.000 A 
ATOM      3  C   UNL     1      47.501   5.386  14.673  0.00  0.00    +0.000 A 
ATOM      4  C   UNL     1      46.594   4.889  13.727  0.00  0.00    +0.000 A 
ATOM      5  C   UNL     1      46.395   5.538  12.500  0.00  0.00    +0.000 A 
ATOM      6  C   UNL     1      47.244   6.603  12.193  0.00  0.00    +0.000 A 
ATOM      7  C   UNL     1      48.142   7.114  13.135  0.00  0.00    +0.000 A 
BRANCH   5   8
ATOM      8  N   UNL     1      45.442   5.040  11.613  0.00  0.00    +0.000 N 
ATOM      9  H   UNL     1      45.344   5.595  10.770  0.00  0.00    +0.000 HD
BRANCH   8  10
ATOM     10  C   UNL     1      45.296   3.593  11.403  0.00  0.00    +0.000 C 
BRANCH  10  11
ATOM     11  C   UNL     1      44.228   3.261  10.337  0.00  0.00    +0.000 C 
ATOM     12  C   UNL     1      44.576   2.042   9.466  0.00  0.00    +0.000 C 
ATOM     13  C   UNL     1      45.762   2.332   8.550  0.00  0.00    +0.000 C 
ATOM     14  C   UNL     1      45.534   3.606   7.737  0.00  0.00    +0.000 C 
ATOM     15  N   UNL     1      45.196   4.750   8.586  0.00  0.00    +0.000 NA
ATOM     16  C   UNL     1      44.018   4.479   9.414  0.00  0.00    +0.000 C 
ATOM     17  H   UNL     1      45.015   5.562   7.995  0.00  0.00    +0.000 HD
ENDBRANCH  10  11
ENDBRANCH   8  10
ENDBRANCH   5   8
ENDBRANCH   1   2
BRANCH   1  20
ATOM     18  C   UNL     1      50.252   6.039  17.330  0.00  0.00    +0.000 C 
ATOM     19  O   UNL     1      49.638   6.735  18.135  0.00  0.00    +0.000 OA
ATOM     20  N   UNL     1      50.059   6.176  15.984  0.00  0.00    +0.000 N 
ATOM     21  H   UNL     1      50.591   5.619  15.329  0.00  0.00    +0.000 HD
BRANCH  18  29
ATOM     22  C   UNL     1      50.394   2.610  17.119  0.00  0.00    +0.000 A 
ATOM     23  N   UNL     1      50.722   1.303  17.125  0.00  0.00    +0.000 NA
ATOM     24  C   UNL     1      51.887   0.955  17.680  0.00  0.00    +0.000 A 
ATOM     25  N   UNL     1      52.779   1.759  18.249  0.00  0.00    +0.000 NA
ATOM     26  C   UNL     1      52.417   3.053  18.208  0.00  0.00    +0.000 A 
ATOM     27  S   UNL     1      53.431   4.228  18.896  0.00  0.00    +0.000 S 
ATOM     28  C   UNL     1      52.367   5.476  18.452  0.00  0.00    +0.000 A 
ATOM     29  C   UNL     1      51.234   5.037  17.778  0.00  0.00    +0.000 A 
ATOM     30  C   UNL     1      51.258   3.582  17.653  0.00  0.00    +0.000 A 
BRANCH  22  32
ATOM     31  C   UNL     1      48.093   2.924  17.443  0.00  0.00    +0.000 C 
ATOM     32  O   UNL     1      49.197   2.976  16.543  0.00  0.00    +0.000 OA
ENDBRANCH  22  32
ENDBRANCH  18  29
ENDBRANCH   1  20
TORSDOF 7
ENDMDL
MODEL 3
REMARK VINA RESULT:    -6.754      3.869      8.882
REMARK INTER + INTRA:         -11.176
REMARK INTER:                 -10.083
REMARK INTRA:                  -1.093
REMARK UNBOUND:                -1.659
REMARK  Name = 
REMARK  8 active torsions:
REMARK  status: ('A' for Active; 'I' for Inactive)
REMARK    1  A    between atoms: C_1  and  O_2
REMARK    2  A    between atoms: O_2  and  C_3
REMARK    3  A    between atoms: C_10  and  C_11
REMARK    4  A    between atoms: N_13  and  C_14
REMARK    5  A    between atoms: C_14  and  C_15
REMARK    6  A    between atoms: C_18  and  N_19
REMARK    7  A    between atoms: N_19  and  C_20
REMARK    8  A    between atoms: C_20  and  C_21
REMARK                            x       y       z     vdW  Elec       q    Type
REMARK                         _______ _______ _______ _____ _____    ______ ____
ROOT
ATOM      1  C   UNL     1      47.228   3.451  16.758  0.00  0.00    +0.000 C 
ENDROOT
BRANCH   1   2
ATOM      2  C   UNL     1      48.703   3.555  17.045  0.00  0.00    +0.000 A 
ATOM      3  C   UNL     1      49.309   4.792  17.282  0.00  0.00    +0.000 A 
ATOM      4  C   UNL     1      50.662   4.862  17.640  0.00  0.00    +0.000 A 
ATOM      5  C   UNL     1      51.436   3.702  17.784  0.00  0.00    +0.000 A 
ATOM      6  C   UNL     1      50.853   2.491  17.406  0.00  0.00    +0.000 A 
ATOM      7  C   UNL     1      49.501   2.410  17.060  0.00  0.00    +0.000 A 
BRANCH   5   8
ATOM      8  N   UNL     1      52.763   3.816  18.196  0.00  0.00    +0.000 N 
ATOM      9  H   UNL     1      53.033   4.764  18.434  0.00  0.00    +0.000 HD
BRANCH   8  10
ATOM     10  C   UNL     1      53.378   2.783  19.039  0.00  0.00    +0.000 C 
BRANCH  10  11
ATOM     11  C   UNL     1      54.717   2.273  18.460  0.00  0.00    +0.000 C 
ATOM     12  C   UNL     1      54.583   1.587  17.091  0.00  0.00    +0.000 C 
ATOM     13  C   UNL     1      53.839   0.259  17.204  0.00  0.00    +0.000 C 
ATOM     14  C   UNL     1      54.469  -0.640  18.267  0.00  0.00    +0.000 C 
ATOM     15  N   UNL     1      54.594   0.038  19.560  0.00  0.00    +0.000 NA
ATOM     16  C   UNL     1      55.365   1.279  19.447  0.00  0.00    +0.000 C 
ATOM     17  H   UNL     1      55.055  -0.588  20.221  0.00  0.00    +0.000 HD
ENDBRANCH  10  11
ENDBRANCH   8  10
ENDBRANCH   5   8
ENDBRANCH   1   2
BRANCH   1  20
ATOM     18  C   UNL     1      46.861   4.257  14.473  0.00  0.00    +0.000 C 
ATOM     19  O   UNL     1      47.277   3.200  14.004  0.00  0.00    +0.000 OA
ATOM     20  N   UNL     1      46.798   4.456  15.824  0.00  0.00    +0.000 N 
ATOM     21  H   UNL     1      46.481   5.339  16.199  0.00  0.00    +0.000 HD
BRANCH  18  29
ATOM     22  C   UNL     1      44.028   4.820  12.607  0.00  0.00    +0.000 A 
ATOM     23  N   UNL     1      43.025   5.309  11.851  0.00  0.00    +0.000 NA
ATOM     24  C   UNL     1      43.189   6.515  11.300  0.00  0.00    +0.000 A 
ATOM     25  N   UNL     1      44.251   7.308  11.401  0.00  0.00    +0.000 NA
ATOM     26  C   UNL     1      45.219   6.788  12.176  0.00  0.00    +0.000 A 
ATOM     27  S   UNL     1      46.658   7.657  12.415  0.00  0.00    +0.000 S 
ATOM     28  C   UNL     1      47.283   6.441  13.422  0.00  0.00    +0.000 A 
ATOM     29  C   UNL     1      46.426   5.362  13.602  0.00  0.00    +0.000 A 
ATOM     30  C   UNL     1      45.199   5.564  12.836  0.00  0.00    +0.000 A 
BRANCH  22  32
ATOM     31  C   UNL     1      43.526   2.559  12.247  0.00  0.00    +0.000 C 
ATOM     32  O   UNL     1      43.862   3.580  13.183  0.00  0.00    +0.000 OA
ENDBRANCH  22  32
ENDBRANCH  18  29
ENDBRANCH   1  20
TORSDOF 7
ENDMDL
MODEL 4
REMARK VINA RESULT:    -6.368      2.372      3.386
REMARK INTER + INTRA:         -10.633
REMARK INTER:                  -9.344
REMARK INTRA:                  -1.289
REMARK UNBOUND:                -1.659
REMARK  Name = 
REMARK  8 active torsions:
REMARK  status: ('A' for Active; 'I' for Inactive)
REMARK    1  A    between atoms: C_1  and  O_2
REMARK    2  A    between atoms: O_2  and  C_3
REMARK    3  A    between atoms: C_10  and  C_11
REMARK    4  A    between atoms: N_13  and  C_14
REMARK    5  A    between atoms: C_14  and  C_15
REMARK    6  A    between atoms: C_18  and  N_19
REMARK    7  A    between atoms: N_19  and  C_20
REMARK    8  A    between atoms: C_20  and  C_21
REMARK                            x       y       z     vdW  Elec       q    Type
REMARK                         _______ _______ _______ _____ _____    ______ ____
ROOT
ATOM      1  C   UNL     1      49.156   7.976  13.343  0.00  0.00    +0.000 C 
ENDROOT
BRANCH   1   2
ATOM      2  C   UNL     1      47.955   7.140  12.988  0.00  0.00    +0.000 A 
ATOM      3  C   UNL     1      47.190   7.417  11.852  0.00  0.00    +0.000 A 
ATOM      4  C   UNL     1      46.133   6.572  11.485  0.00  0.00    +0.000 A 
ATOM      5  C   UNL     1      45.824   5.428  12.234  0.00  0.00    +0.000 A 
ATOM      6  C   UNL     1      46.505   5.248  13.440  0.00  0.00    +0.000 A 
ATOM      7  C   UNL     1      47.569   6.077  13.807  0.00  0.00    +0.000 A 
BRANCH   5   8
ATOM      8  N   UNL     1      44.801   4.587  11.801  0.00  0.00    +0.000 N 
ATOM      9  H   UNL     1      44.019   5.082  11.384  0.00  0.00    +0.000 HD
BRANCH   8  10
ATOM     10  C   UNL     1      45.106   3.298  11.168  0.00  0.00    +0.000 C 
BRANCH  10  11
ATOM     11  C   UNL     1      44.252   3.048   9.904  0.00  0.00    +0.000 C 
ATOM     12  C   UNL     1      44.777   1.911   9.012  0.00  0.00    +0.000 C 
ATOM     13  C   UNL     1      46.100   2.287   8.350  0.00  0.00    +0.000 C 
ATOM     14  C   UNL     1      45.991   3.623   7.616  0.00  0.00    +0.000 C 
ATOM     15  N   UNL     1      45.481   4.688   8.483  0.00  0.00    +0.000 NA
ATOM     16  C   UNL     1      44.181   4.339   9.062  0.00  0.00    +0.000 C 
ATOM     17  H   UNL     1      45.389   5.546   7.937  0.00  0.00    +0.000 HD
ENDBRANCH  10  11
ENDBRANCH   8  10
ENDBRANCH   5   8
ENDBRANCH   1   2
BRANCH   1  20
ATOM     18  C   UNL     1      50.830   7.847  15.130  0.00  0.00    +0.000 C 
ATOM     19  O   UNL     1      50.709   9.048  15.365  0.00  0.00    +0.000 OA
ATOM     20  N   UNL     1      50.092   7.241  14.151  0.00  0.00    +0.000 N 
ATOM     21  H   UNL     1      50.220   6.260  13.945  0.00  0.00    +0.000 HD
BRANCH  18  29
ATOM     22  C   UNL     1      50.460   5.227  17.324  0.00  0.00    +0.000 A 
ATOM     23  N   UNL     1      50.602   4.171  18.150  0.00  0.00    +0.000 NA
ATOM     24  C   UNL     1      51.842   3.792  18.473  0.00  0.00    +0.000 A 
ATOM     25  N   UNL     1      52.981   4.349  18.077  0.00  0.00    +0.000 NA
ATOM     26  C   UNL     1      52.794   5.388  17.244  0.00  0.00    +0.000 A 
ATOM     27  S   UNL     1      54.137   6.232  16.641  0.00  0.00    +0.000 S 
ATOM     28  C   UNL     1      53.142   7.277  15.745  0.00  0.00    +0.000 A 
ATOM     29  C   UNL     1      51.784   7.013  15.878  0.00  0.00    +0.000 A 
ATOM     30  C   UNL     1      51.579   5.894  16.794  0.00  0.00    +0.000 A 
BRANCH  22  32
ATOM     31  C   UNL     1      48.248   4.543  16.963  0.00  0.00    +0.000 C 
ATOM     32  O   UNL     1      49.184   5.618  16.983  0.00  0.00    +0.000 OA
ENDBRANCH  22  32
ENDBRANCH  18  29
ENDBRANCH   1  20
TORSDOF 7
ENDMDL
MODEL 5
REMARK VINA RESULT:    -6.347      2.866      4.289
REMARK INTER + INTRA:         -10.603
REMARK INTER:                  -9.455
REMARK INTRA:                  -1.148
REMARK UNBOUND:                -1.659
REMARK  Name = 
REMARK  8 active torsions:
REMARK  status: ('A' for Active; 'I' for Inactive)
REMARK    1  A    between atoms: C_1  and  O_2
REMARK    2  A    between atoms: O_2  and  C_3
REMARK    3  A    between atoms: C_10  and  C_11
REMARK    4  A    between atoms: N_13  and  C_14
REMARK    5  A    between atoms: C_14  and  C_15
REMARK    6  A    between atoms: C_18  and  N_19
REMARK    7  A    between atoms: N_19  and  C_20
REMARK    8  A    between atoms: C_20  and  C_21
REMARK                            x       y       z     vdW  Elec       q    Type
REMARK                         _______ _______ _______ _____ _____    ______ ____
ROOT
ATOM      1  C   UNL     1      45.891   4.745  14.732  0.00  0.00    +0.000 C 
ENDROOT
BRANCH   1   2
ATOM      2  C   UNL     1      45.845   4.820  13.229  0.00  0.00    +0.000 A 
ATOM      3  C   UNL     1      45.362   3.754  12.465  0.00  0.00    +0.000 A 
ATOM      4  C   UNL     1      45.238   3.877  11.074  0.00  0.00    +0.000 A 
ATOM      5  C   UNL     1      45.578   5.067  10.417  0.00  0.00    +0.000 A 
ATOM      6  C   UNL     1      46.190   6.067  11.176  0.00  0.00    +0.000 A 
ATOM      7  C   UNL     1      46.307   5.959  12.565  0.00  0.00    +0.000 A 
BRANCH   5   8
ATOM      8  N   UNL     1      45.386   5.163   9.039  0.00  0.00    +0.000 N 
ATOM      9  H   UNL     1      45.008   6.058   8.745  0.00  0.00    +0.000 HD
BRANCH   8  10
ATOM     10  C   UNL     1      46.356   4.580   8.104  0.00  0.00    +0.000 C 
BRANCH  10  11
ATOM     11  C   UNL     1      45.697   3.590   7.117  0.00  0.00    +0.000 C 
ATOM     12  C   UNL     1      45.019   2.390   7.798  0.00  0.00    +0.000 C 
ATOM     13  C   UNL     1      46.046   1.460   8.438  0.00  0.00    +0.000 C 
ATOM     14  C   UNL     1      47.123   1.050   7.434  0.00  0.00    +0.000 C 
ATOM     15  N   UNL     1      47.748   2.209   6.792  0.00  0.00    +0.000 NA
ATOM     16  C   UNL     1      46.756   3.060   6.129  0.00  0.00    +0.000 C 
ATOM     17  H   UNL     1      48.429   1.882   6.105  0.00  0.00    +0.000 HD
ENDBRANCH  10  11
ENDBRANCH   8  10
ENDBRANCH   5   8
ENDBRANCH   1   2
BRANCH   1  20
ATOM     18  C   UNL     1      47.406   3.710  16.358  0.00  0.00    +0.000 C 
ATOM     19  O   UNL     1      46.456   3.312  17.029  0.00  0.00    +0.000 OA
ATOM     20  N   UNL     1      47.210   4.418  15.205  0.00  0.00    +0.000 N 
ATOM     21  H   UNL     1      47.997   4.766  14.675  0.00  0.00    +0.000 HD
BRANCH  18  29
ATOM     22  C   UNL     1      49.981   5.751  17.368  0.00  0.00    +0.000 A 
ATOM     23  N   UNL     1      51.118   6.302  17.838  0.00  0.00    +0.000 NA
ATOM     24  C   UNL     1      52.136   5.485  18.124  0.00  0.00    +0.000 A 
ATOM     25  N   UNL     1      52.168   4.163  17.989  0.00  0.00    +0.000 NA
ATOM     26  C   UNL     1      51.010   3.656  17.532  0.00  0.00    +0.000 A 
ATOM     27  S   UNL     1      50.867   1.982  17.288  0.00  0.00    +0.000 S 
ATOM     28  C   UNL     1      49.258   2.145  16.770  0.00  0.00    +0.000 A 
ATOM     29  C   UNL     1      48.796   3.456  16.772  0.00  0.00    +0.000 A 
ATOM     30  C   UNL     1      49.856   4.360  17.209  0.00  0.00    +0.000 A 
BRANCH  22  32
ATOM     31  C   UNL     1      48.265   7.091  18.236  0.00  0.00    +0.000 C 
ATOM     32  O   UNL     1      48.926   6.588  17.078  0.00  0.00    +0.000 OA
ENDBRANCH  22  32
ENDBRANCH  18  29
ENDBRANCH   1  20
TORSDOF 7
ENDMDL
MODEL 6
REMARK VINA RESULT:    -6.330      2.145      3.092
REMARK INTER + INTRA:         -10.579
REMARK INTER:                  -9.348
REMARK INTRA:                  -1.230
REMARK UNBOUND:                -1.659
REMARK  Name = 
REMARK  8 active torsions:
REMARK  status: ('A' for Active; 'I' for Inactive)
REMARK    1  A    between atoms: C_1  and  O_2
REMARK    2  A    between atoms: O_2  and  C_3
REMARK    3  A    between atoms: C_10  and  C_11
REMARK    4  A    between atoms: N_13  and  C_14
REMARK    5  A    between atoms: C_14  and  C_15
REMARK    6  A    between atoms: C_18  and  N_19
REMARK    7  A    between atoms: N_19  and  C_20
REMARK    8  A    between atoms: C_20  and  C_21
REMARK                            x       y       z     vdW  Elec       q    Type
REMARK                         _______ _______ _______ _____ _____    ______ ____
ROOT
ATOM      1  C   UNL     1      48.708   7.741  13.586  0.00  0.00    +0.000 C 
ENDROOT
BRANCH   1   2
ATOM      2  C   UNL     1      47.576   6.900  13.060  0.00  0.00    +0.000 A 
ATOM      3  C   UNL     1      46.956   7.199  11.843  0.00  0.00    +0.000 A 
ATOM      4  C   UNL     1      45.968   6.352  11.323  0.00  0.00    +0.000 A 
ATOM      5  C   UNL     1      45.587   5.182  11.996  0.00  0.00    +0.000 A 
ATOM      6  C   UNL     1      46.113   4.976  13.273  0.00  0.00    +0.000 A 
ATOM      7  C   UNL     1      47.108   5.808  13.794  0.00  0.00    +0.000 A 
BRANCH   5   8
ATOM      8  N   UNL     1      44.640   4.341  11.414  0.00  0.00    +0.000 N 
ATOM      9  H   UNL     1      43.924   4.835  10.892  0.00  0.00    +0.000 HD
BRANCH   8  10
ATOM     10  C   UNL     1      45.040   3.057  10.823  0.00  0.00    +0.000 C 
BRANCH  10  11
ATOM     11  C   UNL     1      44.329   2.785   9.477  0.00  0.00    +0.000 C 
ATOM     12  C   UNL     1      44.921   1.605   8.688  0.00  0.00    +0.000 C 
ATOM     13  C   UNL     1      46.321   1.927   8.171  0.00  0.00    +0.000 C 
ATOM     14  C   UNL     1      46.333   3.239   7.388  0.00  0.00    +0.000 C 
ATOM     15  N   UNL     1      45.757   4.346   8.157  0.00  0.00    +0.000 NA
ATOM     16  C   UNL     1      44.390   4.047   8.593  0.00  0.00    +0.000 C 
ATOM     17  H   UNL     1      45.752   5.187   7.578  0.00  0.00    +0.000 HD
ENDBRANCH  10  11
ENDBRANCH   8  10
ENDBRANCH   5   8
ENDBRANCH   1   2
BRANCH   1  20
ATOM     18  C   UNL     1      49.729   7.316  15.774  0.00  0.00    +0.000 C 
ATOM     19  O   UNL     1      50.717   6.812  15.245  0.00  0.00    +0.000 OA
ATOM     20  N   UNL     1      48.697   7.805  15.023  0.00  0.00    +0.000 N 
ATOM     21  H   UNL     1      47.875   8.191  15.468  0.00  0.00    +0.000 HD
BRANCH  18  29
ATOM     22  C   UNL     1      48.717   5.092  18.193  0.00  0.00    +0.000 A 
ATOM     23  N   UNL     1      48.427   4.417  19.324  0.00  0.00    +0.000 NA
ATOM     24  C   UNL     1      48.568   5.060  20.487  0.00  0.00    +0.000 A 
ATOM     25  N   UNL     1      48.959   6.317  20.669  0.00  0.00    +0.000 NA
ATOM     26  C   UNL     1      49.252   6.946  19.517  0.00  0.00    +0.000 A 
ATOM     27  S   UNL     1      49.762   8.564  19.552  0.00  0.00    +0.000 S 
ATOM     28  C   UNL     1      49.926   8.601  17.862  0.00  0.00    +0.000 A 
ATOM     29  C   UNL     1      49.604   7.401  17.239  0.00  0.00    +0.000 A 
ATOM     30  C   UNL     1      49.180   6.418  18.233  0.00  0.00    +0.000 A 
BRANCH  22  32
ATOM     31  C   UNL     1      47.400   3.636  16.911  0.00  0.00    +0.000 C 
ATOM     32  O   UNL     1      48.580   4.432  16.991  0.00  0.00    +0.000 OA
ENDBRANCH  22  32
ENDBRANCH  18  29
ENDBRANCH   1  20
TORSDOF 7
ENDMDL
MODEL 7
REMARK VINA RESULT:    -6.219      3.982      8.920
REMARK INTER + INTRA:         -10.423
REMARK INTER:                  -9.142
REMARK INTRA:                  -1.280
REMARK UNBOUND:                -1.659
REMARK  Name = 
REMARK  8 active torsions:
REMARK  status: ('A' for Active; 'I' for Inactive)
REMARK    1  A    between atoms: C_1  and  O_2
REMARK    2  A    between atoms: O_2  and  C_3
REMARK    3  A    between atoms: C_10  and  C_11
REMARK    4  A    between atoms: N_13  and  C_14
REMARK    5  A    between atoms: C_14  and  C_15
REMARK    6  A    between atoms: C_18  and  N_19
REMARK    7  A    between atoms: N_19  and  C_20
REMARK    8  A    between atoms: C_20  and  C_21
REMARK                            x       y       z     vdW  Elec       q    Type
REMARK                         _______ _______ _______ _____ _____    ______ ____
ROOT
ATOM      1  C   UNL     1      47.410   3.433  17.006  0.00  0.00    +0.000 C 
ENDROOT
BRANCH   1   2
ATOM      2  C   UNL     1      48.899   3.486  17.219  0.00  0.00    +0.000 A 
ATOM      3  C   UNL     1      49.555   4.699  17.446  0.00  0.00    +0.000 A 
ATOM      4  C   UNL     1      50.927   4.720  17.736  0.00  0.00    +0.000 A 
ATOM      5  C   UNL     1      51.670   3.535  17.819  0.00  0.00    +0.000 A 
ATOM      6  C   UNL     1      51.030   2.349  17.450  0.00  0.00    +0.000 A 
ATOM      7  C   UNL     1      49.660   2.316  17.173  0.00  0.00    +0.000 A 
BRANCH   5   8
ATOM      8  N   UNL     1      53.019   3.600  18.165  0.00  0.00    +0.000 N 
ATOM      9  H   UNL     1      53.364   4.548  18.271  0.00  0.00    +0.000 HD
BRANCH   8  10
ATOM     10  C   UNL     1      53.598   2.636  19.109  0.00  0.00    +0.000 C 
BRANCH  10  11
ATOM     11  C   UNL     1      54.907   2.009  18.578  0.00  0.00    +0.000 C 
ATOM     12  C   UNL     1      54.798   1.458  17.146  0.00  0.00    +0.000 C 
ATOM     13  C   UNL     1      53.892   0.232  17.089  0.00  0.00    +0.000 C 
ATOM     14  C   UNL     1      54.324  -0.823  18.106  0.00  0.00    +0.000 C 
ATOM     15  N   UNL     1      54.429  -0.274  19.460  0.00  0.00    +0.000 NA
ATOM     16  C   UNL     1      55.351   0.864  19.511  0.00  0.00    +0.000 C 
ATOM     17  H   UNL     1      54.758  -1.006  20.091  0.00  0.00    +0.000 HD
ENDBRANCH  10  11
ENDBRANCH   8  10
ENDBRANCH   5   8
ENDBRANCH   1   2
BRANCH   1  20
ATOM     18  C   UNL     1      46.956   4.166  14.711  0.00  0.00    +0.000 C 
ATOM     19  O   UNL     1      47.299   3.073  14.266  0.00  0.00    +0.000 OA
ATOM     20  N   UNL     1      46.974   4.420  16.055  0.00  0.00    +0.000 N 
ATOM     21  H   UNL     1      46.718   5.331  16.409  0.00  0.00    +0.000 HD
BRANCH  18  29
ATOM     22  C   UNL     1      48.381   7.147  13.761  0.00  0.00    +0.000 A 
ATOM     23  N   UNL     1      48.726   8.319  13.192  0.00  0.00    +0.000 NA
ATOM     24  C   UNL     1      47.871   8.868  12.324  0.00  0.00    +0.000 A 
ATOM     25  N   UNL     1      46.688   8.392  11.951  0.00  0.00    +0.000 NA
ATOM     26  C   UNL     1      46.391   7.215  12.531  0.00  0.00    +0.000 A 
ATOM     27  S   UNL     1      44.913   6.458  12.180  0.00  0.00    +0.000 S 
ATOM     28  C   UNL     1      45.285   5.150  13.199  0.00  0.00    +0.000 A 
ATOM     29  C   UNL     1      46.524   5.255  13.819  0.00  0.00    +0.000 A 
ATOM     30  C   UNL     1      47.174   6.504  13.433  0.00  0.00    +0.000 A 
BRANCH  22  32
ATOM     31  C   UNL     1      50.319   7.444  15.046  0.00  0.00    +0.000 C 
ATOM     32  O   UNL     1      49.262   6.573  14.651  0.00  0.00    +0.000 OA
ENDBRANCH  22  32
ENDBRANCH  18  29
ENDBRANCH   1  20
TORSDOF 7
ENDMDL
MODEL 8
REMARK VINA RESULT:    -6.051      2.330      2.947
REMARK INTER + INTRA:         -10.185
REMARK INTER:                  -8.938
REMARK INTRA:                  -1.247
REMARK UNBOUND:                -1.659
REMARK  Name = 
REMARK  8 active torsions:
REMARK  status: ('A' for Active; 'I' for Inactive)
REMARK    1  A    between atoms: C_1  and  O_2
REMARK    2  A    between atoms: O_2  and  C_3
REMARK    3  A    between atoms: C_10  and  C_11
REMARK    4  A    between atoms: N_13  and  C_14
REMARK    5  A    between atoms: C_14  and  C_15
REMARK    6  A    between atoms: C_18  and  N_19
REMARK    7  A    between atoms: N_19  and  C_20
REMARK    8  A    between atoms: C_20  and  C_21
REMARK                            x       y       z     vdW  Elec       q    Type
REMARK                         _______ _______ _______ _____ _____    ______ ____
ROOT
ATOM      1  C   UNL     1      49.437   7.282  16.211  0.00  0.00    +0.000 C 
ENDROOT
BRANCH   1   2
ATOM      2  C   UNL     1      48.541   6.888  15.067  0.00  0.00    +0.000 A 
ATOM      3  C   UNL     1      48.349   7.735  13.972  0.00  0.00    +0.000 A 
ATOM      4  C   UNL     1      47.587   7.312  12.873  0.00  0.00    +0.000 A 
ATOM      5  C   UNL     1      47.012   6.035  12.836  0.00  0.00    +0.000 A 
ATOM      6  C   UNL     1      47.095   5.260  13.995  0.00  0.00    +0.000 A 
ATOM      7  C   UNL     1      47.863   5.666  15.090  0.00  0.00    +0.000 A 
BRANCH   5   8
ATOM      8  N   UNL     1      46.309   5.637  11.700  0.00  0.00    +0.000 N 
ATOM      9  H   UNL     1      46.222   4.630  11.610  0.00  0.00    +0.000 HD
BRANCH   8  10
ATOM     10  C   UNL     1      45.133   6.389  11.244  0.00  0.00    +0.000 C 
BRANCH  10  11
ATOM     11  C   UNL     1      44.018   5.463  10.707  0.00  0.00    +0.000 C 
ATOM     12  C   UNL     1      42.741   5.464  11.564  0.00  0.00    +0.000 C 
ATOM     13  C   UNL     1      42.981   4.806  12.920  0.00  0.00    +0.000 C 
ATOM     14  C   UNL     1      43.595   3.416  12.760  0.00  0.00    +0.000 C 
ATOM     15  N   UNL     1      44.804   3.439  11.934  0.00  0.00    +0.000 NA
ATOM     16  C   UNL     1      44.544   4.016  10.612  0.00  0.00    +0.000 C 
ATOM     17  H   UNL     1      45.152   2.486  11.825  0.00  0.00    +0.000 HD
ENDBRANCH  10  11
ENDBRANCH   8  10
ENDBRANCH   5   8
ENDBRANCH   1   2
BRANCH   1  20
ATOM     18  C   UNL     1      50.673   6.025  17.914  0.00  0.00    +0.000 C 
ATOM     19  O   UNL     1      50.289   6.790  18.796  0.00  0.00    +0.000 OA
ATOM     20  N   UNL     1      50.290   6.196  16.613  0.00  0.00    +0.000 N 
ATOM     21  H   UNL     1      50.635   5.579  15.890  0.00  0.00    +0.000 HD
BRANCH  18  29
ATOM     22  C   UNL     1      50.547   2.653  17.256  0.00  0.00    +0.000 A 
ATOM     23  N   UNL     1      50.773   1.335  17.087  0.00  0.00    +0.000 NA
ATOM     24  C   UNL     1      51.908   0.828  17.578  0.00  0.00    +0.000 A 
ATOM     25  N   UNL     1      52.860   1.479  18.237  0.00  0.00    +0.000 NA
ATOM     26  C   UNL     1      52.601   2.792  18.369  0.00  0.00    +0.000 A 
ATOM     27  S   UNL     1      53.703   3.785  19.193  0.00  0.00    +0.000 S 
ATOM     28  C   UNL     1      52.740   5.159  18.928  0.00  0.00    +0.000 A 
ATOM     29  C   UNL     1      51.575   4.901  18.216  0.00  0.00    +0.000 A 
ATOM     30  C   UNL     1      51.485   3.477  17.901  0.00  0.00    +0.000 A 
BRANCH  22  32
ATOM     31  C   UNL     1      48.259   3.019  17.609  0.00  0.00    +0.000 C 
ATOM     32  O   UNL     1      49.381   3.182  16.746  0.00  0.00    +0.000 OA
ENDBRANCH  22  32
ENDBRANCH  18  29
ENDBRANCH   1  20
TORSDOF 7
ENDMDL
MODEL 9
REMARK VINA RESULT:    -5.988      3.515      8.897
REMARK INTER + INTRA:         -10.097
REMARK INTER:                  -8.407
REMARK INTRA:                  -1.690
REMARK UNBOUND:                -1.659
REMARK  Name = 
REMARK  8 active torsions:
REMARK  status: ('A' for Active; 'I' for Inactive)
REMARK    1  A    between atoms: C_1  and  O_2
REMARK    2  A    between atoms: O_2  and  C_3
REMARK    3  A    between atoms: C_10  and  C_11
REMARK    4  A    between atoms: N_13  and  C_14
REMARK    5  A    between atoms: C_14  and  C_15
REMARK    6  A    between atoms: C_18  and  N_19
REMARK    7  A    between atoms: N_19  and  C_20
REMARK    8  A    between atoms: C_20  and  C_21
REMARK                            x       y       z     vdW  Elec       q    Type
REMARK                         _______ _______ _______ _____ _____    ______ ____
ROOT
ATOM      1  C   UNL     1      47.364   3.678  16.934  0.00  0.00    +0.000 C 
ENDROOT
BRANCH   1   2
ATOM      2  C   UNL     1      48.822   3.375  17.154  0.00  0.00    +0.000 A 
ATOM      3  C   UNL     1      49.692   4.340  17.670  0.00  0.00    +0.000 A 
ATOM      4  C   UNL     1      51.025   4.013  17.956  0.00  0.00    +0.000 A 
ATOM      5  C   UNL     1      51.515   2.716  17.749  0.00  0.00    +0.000 A 
ATOM      6  C   UNL     1      50.673   1.808  17.102  0.00  0.00    +0.000 A 
ATOM      7  C   UNL     1      49.340   2.121  16.825  0.00  0.00    +0.000 A 
BRANCH   5   8
ATOM      8  N   UNL     1      52.831   2.421  18.100  0.00  0.00    +0.000 N 
ATOM      9  H   UNL     1      53.448   2.310  17.303  0.00  0.00    +0.000 HD
BRANCH   8  10
ATOM     10  C   UNL     1      53.458   3.061  19.264  0.00  0.00    +0.000 C 
BRANCH  10  11
ATOM     11  C   UNL     1      54.918   3.486  18.984  0.00  0.00    +0.000 C 
ATOM     12  C   UNL     1      55.368   4.725  19.775  0.00  0.00    +0.000 C 
ATOM     13  C   UNL     1      54.645   5.983  19.300  0.00  0.00    +0.000 C 
ATOM     14  C   UNL     1      54.775   6.157  17.787  0.00  0.00    +0.000 C 
ATOM     15  N   UNL     1      54.349   4.961  17.056  0.00  0.00    +0.000 NA
ATOM     16  C   UNL     1      55.095   3.774  17.479  0.00  0.00    +0.000 C 
ATOM     17  H   UNL     1      54.492   5.113  16.056  0.00  0.00    +0.000 HD
ENDBRANCH  10  11
ENDBRANCH   8  10
ENDBRANCH   5   8
ENDBRANCH   1   2
BRANCH   1  20
ATOM     18  C   UNL     1      47.142   4.316  14.577  0.00  0.00    +0.000 C 
ATOM     19  O   UNL     1      47.256   3.145  14.222  0.00  0.00    +0.000 OA
ATOM     20  N   UNL     1      47.176   4.660  15.900  0.00  0.00    +0.000 N 
ATOM     21  H   UNL     1      47.111   5.629  16.181  0.00  0.00    +0.000 HD
BRANCH  18  29
ATOM     22  C   UNL     1      48.960   7.144  13.856  0.00  0.00    +0.000 A 
ATOM     23  N   UNL     1      49.501   8.265  13.340  0.00  0.00    +0.000 NA
ATOM     24  C   UNL     1      48.874   8.845  12.312  0.00  0.00    +0.000 A 
ATOM     25  N   UNL     1      47.749   8.447  11.729  0.00  0.00    +0.000 NA
ATOM     26  C   UNL     1      47.252   7.318  12.265  0.00  0.00    +0.000 A 
ATOM     27  S   UNL     1      45.811   6.663  11.653  0.00  0.00    +0.000 S 
ATOM     28  C   UNL     1      45.875   5.369  12.751  0.00  0.00    +0.000 A 
ATOM     29  C   UNL     1      46.978   5.401  13.596  0.00  0.00    +0.000 A 
ATOM     30  C   UNL     1      47.789   6.583  13.316  0.00  0.00    +0.000 A 
BRANCH  22  32
ATOM     31  C   UNL     1      50.206   7.460  15.816  0.00  0.00    +0.000 C 
ATOM     32  O   UNL     1      49.606   6.537  14.911  0.00  0.00    +0.000 OA
ENDBRANCH  22  32
ENDBRANCH  18  29
ENDBRANCH   1  20
TORSDOF 7
ENDMDL
