MODEL 1
REMARK VINA RESULT:    -8.580      0.000      0.000
REMARK INTER + INTRA:         -11.289
REMARK INTER:                 -10.586
REMARK INTRA:                  -0.703
REMARK UNBOUND:                -0.703
REMARK  Name = 
REMARK  5 active torsions:
REMARK  status: ('A' for Active; 'I' for Inactive)
REMARK    1  A    between atoms: C_1  and  C_2
REMARK    2  A    between atoms: C_5  and  C_6
REMARK    3  A    between atoms: C_10  and  C_11
REMARK    4  A    between atoms: C_11  and  C_12
REMARK    5  A    between atoms: C_12  and  C_13
REMARK                            x       y       z     vdW  Elec       q    Type
REMARK                         _______ _______ _______ _____ _____    ______ ____
ROOT
ATOM      1  C   UNL     1      46.451   5.193  13.203  0.00  0.00    +0.000 A 
ATOM      2  C   UNL     1      46.622   6.542  12.846  0.00  0.00    +0.000 A 
ATOM      3  C   UNL     1      45.946   7.094  11.759  0.00  0.00    +0.000 A 
ATOM      4  C   UNL     1      45.077   6.311  11.004  0.00  0.00    +0.000 A 
ATOM      5  C   UNL     1      44.885   4.959  11.309  0.00  0.00    +0.000 A 
ATOM      6  C   UNL     1      45.573   4.421  12.414  0.00  0.00    +0.000 A 
ENDROOT
BRANCH   1  11
ATOM      7  C   UNL     1      48.903   2.579  17.642  0.00  0.00    +0.000 C 
ATOM      8  C   UNL     1      48.281   3.341  16.518  0.00  0.00    +0.000 A 
ATOM      9  C   UNL     1      48.102   4.712  16.575  0.00  0.00    +0.000 A 
ATOM     10  C   UNL     1      47.517   5.356  15.488  0.00  0.00    +0.000 A 
ATOM     11  C   UNL     1      47.127   4.614  14.380  0.00  0.00    +0.000 A 
ATOM     12  N   UNL     1      47.340   3.279  14.356  0.00  0.00    +0.000 NA
ATOM     13  N   UNL     1      47.919   2.638  15.426  0.00  0.00    +0.000 NA
ENDBRANCH   1  11
BRANCH   5  14
ATOM     14  C   UNL     1      43.897   4.088  10.558  0.00  0.00    +0.000 C 
BRANCH  14  15
ATOM     15  C   UNL     1      44.379   2.667  10.253  0.00  0.00    +0.000 C 
BRANCH  15  16
ATOM     16  C   UNL     1      45.277   2.625   9.045  0.00  0.00    +0.000 A 
ATOM     17  C   UNL     1      45.503   3.770   8.283  0.00  0.00    +0.000 A 
ATOM     18  C   UNL     1      46.334   3.681   7.168  0.00  0.00    +0.000 A 
ATOM     19  C   UNL     1      46.914   2.459   6.847  0.00  0.00    +0.000 A 
ATOM     20 CL   UNL     1      47.937   2.308   5.477  0.00  0.00    +0.000 Cl
ATOM     21  C   UNL     1      46.643   1.372   7.659  0.00  0.00    +0.000 A 
ATOM     22  N   UNL     1      45.842   1.428   8.750  0.00  0.00    +0.000 NA
ENDBRANCH  15  16
ENDBRANCH  14  15
ENDBRANCH   5  14
TORSDOF 4
ENDMDL
MODEL 2
REMARK VINA RESULT:    -8.086      1.429      1.696
REMARK INTER + INTRA:         -10.680
REMARK INTER:                  -9.921
REMARK INTRA:                  -0.759
REMARK UNBOUND:                -0.703
REMARK  Name = 
REMARK  5 active torsions:
REMARK  status: ('A' for Active; 'I' for Inactive)
REMARK    1  A    between atoms: C_1  and  C_2
REMARK    2  A    between atoms: C_5  and  C_6
REMARK    3  A    between atoms: C_10  and  C_11
REMARK    4  A    between atoms: C_11  and  C_12
REMARK    5  A    between atoms: C_12  and  C_13
REMARK                            x       y       z     vdW  Elec       q    Type
REMARK                         _______ _______ _______ _____ _____    ______ ____
ROOT
ATOM      1  C   UNL     1      46.916   5.486  13.629  0.00  0.00    +0.000 A 
ATOM      2  C   UNL     1      47.272   6.677  12.972  0.00  0.00    +0.000 A 
ATOM      3  C   UNL     1      46.646   7.066  11.789  0.00  0.00    +0.000 A 
ATOM      4  C   UNL     1      45.645   6.275  11.234  0.00  0.00    +0.000 A 
ATOM      5  C   UNL     1      45.265   5.072  11.840  0.00  0.00    +0.000 A 
ATOM      6  C   UNL     1      45.905   4.699  13.037  0.00  0.00    +0.000 A 
ENDROOT
BRANCH   1  11
ATOM      7  C   UNL     1      49.682   4.164  18.440  0.00  0.00    +0.000 C 
ATOM      8  C   UNL     1      48.896   4.451  17.203  0.00  0.00    +0.000 A 
ATOM      9  C   UNL     1      47.796   3.691  16.843  0.00  0.00    +0.000 A 
ATOM     10  C   UNL     1      47.109   4.019  15.677  0.00  0.00    +0.000 A 
ATOM     11  C   UNL     1      47.540   5.092  14.906  0.00  0.00    +0.000 A 
ATOM     12  N   UNL     1      48.607   5.822  15.305  0.00  0.00    +0.000 NA
ATOM     13  N   UNL     1      49.287   5.503  16.457  0.00  0.00    +0.000 NA
ENDBRANCH   1  11
BRANCH   5  14
ATOM     14  C   UNL     1      44.133   4.216  11.308  0.00  0.00    +0.000 C 
BRANCH  14  15
ATOM     15  C   UNL     1      43.854   4.360   9.809  0.00  0.00    +0.000 C 
BRANCH  15  16
ATOM     16  C   UNL     1      44.870   3.626   8.975  0.00  0.00    +0.000 A 
ATOM     17  C   UNL     1      45.059   2.254   9.121  0.00  0.00    +0.000 A 
ATOM     18  C   UNL     1      46.018   1.619   8.334  0.00  0.00    +0.000 A 
ATOM     19  C   UNL     1      46.757   2.369   7.427  0.00  0.00    +0.000 A 
ATOM     20 CL   UNL     1      47.953   1.625   6.445  0.00  0.00    +0.000 Cl
ATOM     21  C   UNL     1      46.505   3.726   7.338  0.00  0.00    +0.000 A 
ATOM     22  N   UNL     1      45.578   4.370   8.088  0.00  0.00    +0.000 NA
ENDBRANCH  15  16
ENDBRANCH  14  15
ENDBRANCH   5  14
TORSDOF 4
ENDMDL
MODEL 3
REMARK VINA RESULT:    -7.959      2.568      4.178
REMARK INTER + INTRA:         -10.523
REMARK INTER:                  -9.684
REMARK INTRA:                  -0.839
REMARK UNBOUND:                -0.703
REMARK  Name = 
REMARK  5 active torsions:
REMARK  status: ('A' for Active; 'I' for Inactive)
REMARK    1  A    between atoms: C_1  and  C_2
REMARK    2  A    between atoms: C_5  and  C_6
REMARK    3  A    between atoms: C_10  and  C_11
REMARK    4  A    between atoms: C_11  and  C_12
REMARK    5  A    between atoms: C_12  and  C_13
REMARK                            x       y       z     vdW  Elec       q    Type
REMARK                         _______ _______ _______ _____ _____    ______ ____
ROOT
ATOM      1  C   UNL     1      46.641   6.083  12.308  0.00  0.00    +0.000 A 
ATOM      2  C   UNL     1      47.073   5.207  13.320  0.00  0.00    +0.000 A 
ATOM      3  C   UNL     1      46.525   3.932  13.455  0.00  0.00    +0.000 A 
ATOM      4  C   UNL     1      45.532   3.500  12.580  0.00  0.00    +0.000 A 
ATOM      5  C   UNL     1      45.057   4.340  11.567  0.00  0.00    +0.000 A 
ATOM      6  C   UNL     1      45.626   5.622  11.442  0.00  0.00    +0.000 A 
ENDROOT
BRANCH   1  11
ATOM      7  C   UNL     1      48.608  11.378  11.511  0.00  0.00    +0.000 C 
ATOM      8  C   UNL     1      48.177   9.964  11.721  0.00  0.00    +0.000 A 
ATOM      9  C   UNL     1      49.074   8.911  11.672  0.00  0.00    +0.000 A 
ATOM     10  C   UNL     1      48.601   7.618  11.880  0.00  0.00    +0.000 A 
ATOM     11  C   UNL     1      47.249   7.415  12.129  0.00  0.00    +0.000 A 
ATOM     12  N   UNL     1      46.409   8.473  12.190  0.00  0.00    +0.000 NA
ATOM     13  N   UNL     1      46.872   9.752  11.987  0.00  0.00    +0.000 NA
ENDBRANCH   1  11
BRANCH   5  14
ATOM     14  C   UNL     1      44.029   3.886  10.550  0.00  0.00    +0.000 C 
BRANCH  14  15
ATOM     15  C   UNL     1      44.244   2.478   9.988  0.00  0.00    +0.000 C 
BRANCH  15  16
ATOM     16  C   UNL     1      45.209   2.476   8.831  0.00  0.00    +0.000 A 
ATOM     17  C   UNL     1      45.356   3.600   8.021  0.00  0.00    +0.000 A 
ATOM     18  C   UNL     1      46.254   3.549   6.957  0.00  0.00    +0.000 A 
ATOM     19  C   UNL     1      46.977   2.384   6.733  0.00  0.00    +0.000 A 
ATOM     20 CL   UNL     1      48.087   2.279   5.428  0.00  0.00    +0.000 Cl
ATOM     21  C   UNL     1      46.778   1.313   7.588  0.00  0.00    +0.000 A 
ATOM     22  N   UNL     1      45.914   1.335   8.631  0.00  0.00    +0.000 NA
ENDBRANCH  15  16
ENDBRANCH  14  15
ENDBRANCH   5  14
TORSDOF 4
ENDMDL
MODEL 4
REMARK VINA RESULT:    -7.666      3.253      7.650
REMARK INTER + INTRA:         -10.162
REMARK INTER:                  -9.422
REMARK INTRA:                  -0.741
REMARK UNBOUND:                -0.703
REMARK  Name = 
REMARK  5 active torsions:
REMARK  status: ('A' for Active; 'I' for Inactive)
REMARK    1  A    between atoms: C_1  and  C_2
REMARK    2  A    between atoms: C_5  and  C_6
REMARK    3  A    between atoms: C_10  and  C_11
REMARK    4  A    between atoms: C_11  and  C_12
REMARK    5  A    between atoms: C_12  and  C_13
REMARK                            x       y       z     vdW  Elec       q    Type
REMARK                         _______ _______ _______ _____ _____    ______ ____
ROOT
ATOM      1  C   UNL     1      44.835   4.520  10.355  0.00  0.00    +0.000 A 
ATOM      2  C   UNL     1      43.470   4.381  10.663  0.00  0.00    +0.000 A 
ATOM      3  C   UNL     1      42.917   4.992  11.787  0.00  0.00    +0.000 A 
ATOM      4  C   UNL     1      43.714   5.760  12.631  0.00  0.00    +0.000 A 
ATOM      5  C   UNL     1      45.082   5.915  12.377  0.00  0.00    +0.000 A 
ATOM      6  C   UNL     1      45.621   5.295  11.234  0.00  0.00    +0.000 A 
ENDROOT
BRANCH   1  11
ATOM      7  C   UNL     1      47.029   2.559   5.467  0.00  0.00    +0.000 C 
ATOM      8  C   UNL     1      46.452   2.989   6.776  0.00  0.00    +0.000 A 
ATOM      9  C   UNL     1      45.985   2.075   7.705  0.00  0.00    +0.000 A 
ATOM     10  C   UNL     1      45.462   2.548   8.905  0.00  0.00    +0.000 A 
ATOM     11  C   UNL     1      45.419   3.917   9.141  0.00  0.00    +0.000 A 
ATOM     12  N   UNL     1      45.905   4.775   8.216  0.00  0.00    +0.000 NA
ATOM     13  N   UNL     1      46.424   4.312   7.030  0.00  0.00    +0.000 NA
ENDBRANCH   1  11
BRANCH   5  14
ATOM     14  C   UNL     1      45.971   6.799  13.229  0.00  0.00    +0.000 C 
BRANCH  14  15
ATOM     15  C   UNL     1      47.433   6.353  13.325  0.00  0.00    +0.000 C 
BRANCH  15  16
ATOM     16  C   UNL     1      47.725   5.658  14.629  0.00  0.00    +0.000 A 
ATOM     17  C   UNL     1      47.067   4.478  14.972  0.00  0.00    +0.000 A 
ATOM     18  C   UNL     1      47.362   3.875  16.193  0.00  0.00    +0.000 A 
ATOM     19  C   UNL     1      48.300   4.463  17.032  0.00  0.00    +0.000 A 
ATOM     20 CL   UNL     1      48.685   3.755  18.548  0.00  0.00    +0.000 Cl
ATOM     21  C   UNL     1      48.913   5.632  16.616  0.00  0.00    +0.000 A 
ATOM     22  N   UNL     1      48.648   6.239  15.434  0.00  0.00    +0.000 NA
ENDBRANCH  15  16
ENDBRANCH  14  15
ENDBRANCH   5  14
TORSDOF 4
ENDMDL
MODEL 5
REMARK VINA RESULT:    -7.337      3.932      7.237
REMARK INTER + INTRA:          -9.756
REMARK INTER:                  -8.964
REMARK INTRA:                  -0.792
REMARK UNBOUND:                -0.703
REMARK  Name = 
REMARK  5 active torsions:
REMARK  status: ('A' for Active; 'I' for Inactive)
REMARK    1  A    between atoms: C_1  and  C_2
REMARK    2  A    between atoms: C_5  and  C_6
REMARK    3  A    between atoms: C_10  and  C_11
REMARK    4  A    between atoms: C_11  and  C_12
REMARK    5  A    between atoms: C_12  and  C_13
REMARK                            x       y       z     vdW  Elec       q    Type
REMARK                         _______ _______ _______ _____ _____    ______ ____
ROOT
ATOM      1  C   UNL     1      44.963   3.347  10.196  0.00  0.00    +0.000 A 
ATOM      2  C   UNL     1      43.879   2.563  10.630  0.00  0.00    +0.000 A 
ATOM      3  C   UNL     1      43.225   2.835  11.830  0.00  0.00    +0.000 A 
ATOM      4  C   UNL     1      43.637   3.900  12.626  0.00  0.00    +0.000 A 
ATOM      5  C   UNL     1      44.720   4.700  12.247  0.00  0.00    +0.000 A 
ATOM      6  C   UNL     1      45.365   4.413  11.027  0.00  0.00    +0.000 A 
ENDROOT
BRANCH   1  11
ATOM      7  C   UNL     1      47.371   2.736   5.060  0.00  0.00    +0.000 C 
ATOM      8  C   UNL     1      46.761   2.811   6.421  0.00  0.00    +0.000 A 
ATOM      9  C   UNL     1      46.606   1.689   7.216  0.00  0.00    +0.000 A 
ATOM     10  C   UNL     1      46.032   1.835   8.476  0.00  0.00    +0.000 A 
ATOM     11  C   UNL     1      45.629   3.095   8.903  0.00  0.00    +0.000 A 
ATOM     12  N   UNL     1      45.819   4.169   8.104  0.00  0.00    +0.000 NA
ATOM     13  N   UNL     1      46.388   4.030   6.860  0.00  0.00    +0.000 NA
ENDBRANCH   1  11
BRANCH   5  14
ATOM     14  C   UNL     1      45.157   5.911  13.046  0.00  0.00    +0.000 C 
BRANCH  14  15
ATOM     15  C   UNL     1      45.012   7.256  12.327  0.00  0.00    +0.000 C 
BRANCH  15  16
ATOM     16  C   UNL     1      46.345   7.923  12.111  0.00  0.00    +0.000 A 
ATOM     17  C   UNL     1      47.490   7.169  11.862  0.00  0.00    +0.000 A 
ATOM     18  C   UNL     1      48.703   7.830  11.678  0.00  0.00    +0.000 A 
ATOM     19  C   UNL     1      48.738   9.218  11.747  0.00  0.00    +0.000 A 
ATOM     20 CL   UNL     1      50.214  10.068  11.533  0.00  0.00    +0.000 Cl
ATOM     21  C   UNL     1      47.556   9.893  11.992  0.00  0.00    +0.000 A 
ATOM     22  N   UNL     1      46.362   9.278  12.173  0.00  0.00    +0.000 NA
ENDBRANCH  15  16
ENDBRANCH  14  15
ENDBRANCH   5  14
TORSDOF 4
ENDMDL
MODEL 6
REMARK VINA RESULT:    -7.217      2.969      3.396
REMARK INTER + INTRA:          -9.608
REMARK INTER:                  -8.795
REMARK INTRA:                  -0.813
REMARK UNBOUND:                -0.703
REMARK  Name = 
REMARK  5 active torsions:
REMARK  status: ('A' for Active; 'I' for Inactive)
REMARK    1  A    between atoms: C_1  and  C_2
REMARK    2  A    between atoms: C_5  and  C_6
REMARK    3  A    between atoms: C_10  and  C_11
REMARK    4  A    between atoms: C_11  and  C_12
REMARK    5  A    between atoms: C_12  and  C_13
REMARK                            x       y       z     vdW  Elec       q    Type
REMARK                         _______ _______ _______ _____ _____    ______ ____
ROOT
ATOM      1  C   UNL     1      45.874   6.832  11.809  0.00  0.00    +0.000 A 
ATOM      2  C   UNL     1      44.651   7.493  11.596  0.00  0.00    +0.000 A 
ATOM      3  C   UNL     1      43.499   6.789  11.251  0.00  0.00    +0.000 A 
ATOM      4  C   UNL     1      43.539   5.404  11.113  0.00  0.00    +0.000 A 
ATOM      5  C   UNL     1      44.735   4.701  11.298  0.00  0.00    +0.000 A 
ATOM      6  C   UNL     1      45.888   5.430  11.652  0.00  0.00    +0.000 A 
ENDROOT
BRANCH   1  11
ATOM      7  C   UNL     1      50.712   9.299  13.555  0.00  0.00    +0.000 C 
ATOM      8  C   UNL     1      49.412   8.734  13.086  0.00  0.00    +0.000 A 
ATOM      9  C   UNL     1      48.303   9.534  12.866  0.00  0.00    +0.000 A 
ATOM     10  C   UNL     1      47.125   8.939  12.426  0.00  0.00    +0.000 A 
ATOM     11  C   UNL     1      47.086   7.565  12.221  0.00  0.00    +0.000 A 
ATOM     12  N   UNL     1      48.198   6.822  12.426  0.00  0.00    +0.000 NA
ATOM     13  N   UNL     1      49.365   7.407  12.858  0.00  0.00    +0.000 NA
ENDBRANCH   1  11
BRANCH   5  14
ATOM     14  C   UNL     1      44.809   3.189  11.227  0.00  0.00    +0.000 C 
BRANCH  14  15
ATOM     15  C   UNL     1      44.204   2.565   9.966  0.00  0.00    +0.000 C 
BRANCH  15  16
ATOM     16  C   UNL     1      45.185   2.545   8.823  0.00  0.00    +0.000 A 
ATOM     17  C   UNL     1      45.344   3.656   7.999  0.00  0.00    +0.000 A 
ATOM     18  C   UNL     1      46.256   3.588   6.947  0.00  0.00    +0.000 A 
ATOM     19  C   UNL     1      46.980   2.419   6.750  0.00  0.00    +0.000 A 
ATOM     20 CL   UNL     1      48.108   2.293   5.462  0.00  0.00    +0.000 Cl
ATOM     21  C   UNL     1      46.768   1.362   7.617  0.00  0.00    +0.000 A 
ATOM     22  N   UNL     1      45.890   1.400   8.649  0.00  0.00    +0.000 NA
ENDBRANCH  15  16
ENDBRANCH  14  15
ENDBRANCH   5  14
TORSDOF 4
ENDMDL
MODEL 7
REMARK VINA RESULT:    -7.108      3.162      4.546
REMARK INTER + INTRA:          -9.473
REMARK INTER:                  -8.744
REMARK INTRA:                  -0.729
REMARK UNBOUND:                -0.703
REMARK  Name = 
REMARK  5 active torsions:
REMARK  status: ('A' for Active; 'I' for Inactive)
REMARK    1  A    between atoms: C_1  and  C_2
REMARK    2  A    between atoms: C_5  and  C_6
REMARK    3  A    between atoms: C_10  and  C_11
REMARK    4  A    between atoms: C_11  and  C_12
REMARK    5  A    between atoms: C_12  and  C_13
REMARK                            x       y       z     vdW  Elec       q    Type
REMARK                         _______ _______ _______ _____ _____    ______ ____
ROOT
ATOM      1  C   UNL     1      47.734   6.924  12.191  0.00  0.00    +0.000 A 
ATOM      2  C   UNL     1      47.873   6.152  13.358  0.00  0.00    +0.000 A 
ATOM      3  C   UNL     1      46.954   5.154  13.678  0.00  0.00    +0.000 A 
ATOM      4  C   UNL     1      45.874   4.900  12.837  0.00  0.00    +0.000 A 
ATOM      5  C   UNL     1      45.683   5.652  11.672  0.00  0.00    +0.000 A 
ATOM      6  C   UNL     1      46.625   6.652  11.363  0.00  0.00    +0.000 A 
ENDROOT
BRANCH   1  11
ATOM      7  C   UNL     1      51.882  10.607  10.856  0.00  0.00    +0.000 C 
ATOM      8  C   UNL     1      50.739   9.710  11.204  0.00  0.00    +0.000 A 
ATOM      9  C   UNL     1      49.484  10.209  11.505  0.00  0.00    +0.000 A 
ATOM     10  C   UNL     1      48.465   9.314  11.818  0.00  0.00    +0.000 A 
ATOM     11  C   UNL     1      48.729   7.950  11.822  0.00  0.00    +0.000 A 
ATOM     12  N   UNL     1      49.964   7.502  11.500  0.00  0.00    +0.000 NA
ATOM     13  N   UNL     1      50.973   8.383  11.189  0.00  0.00    +0.000 NA
ENDBRANCH   1  11
BRANCH   5  14
ATOM     14  C   UNL     1      44.563   5.363  10.693  0.00  0.00    +0.000 C 
BRANCH  14  15
ATOM     15  C   UNL     1      44.370   3.886  10.338  0.00  0.00    +0.000 C 
BRANCH  15  16
ATOM     16  C   UNL     1      45.242   3.466   9.184  0.00  0.00    +0.000 A 
ATOM     17  C   UNL     1      45.530   2.122   8.958  0.00  0.00    +0.000 A 
ATOM     18  C   UNL     1      46.350   1.782   7.884  0.00  0.00    +0.000 A 
ATOM     19  C   UNL     1      46.855   2.788   7.069  0.00  0.00    +0.000 A 
ATOM     20 CL   UNL     1      47.874   2.409   5.741  0.00  0.00    +0.000 Cl
ATOM     21  C   UNL     1      46.516   4.098   7.357  0.00  0.00    +0.000 A 
ATOM     22  N   UNL     1      45.720   4.458   8.393  0.00  0.00    +0.000 NA
ENDBRANCH  15  16
ENDBRANCH  14  15
ENDBRANCH   5  14
TORSDOF 4
ENDMDL
MODEL 8
REMARK VINA RESULT:    -6.432      3.776      7.550
REMARK INTER + INTRA:          -8.639
REMARK INTER:                  -7.845
REMARK INTRA:                  -0.795
REMARK UNBOUND:                -0.703
REMARK  Name = 
REMARK  5 active torsions:
REMARK  status: ('A' for Active; 'I' for Inactive)
REMARK    1  A    between atoms: C_1  and  C_2
REMARK    2  A    between atoms: C_5  and  C_6
REMARK    3  A    between atoms: C_10  and  C_11
REMARK    4  A    between atoms: C_11  and  C_12
REMARK    5  A    between atoms: C_12  and  C_13
REMARK                            x       y       z     vdW  Elec       q    Type
REMARK                         _______ _______ _______ _____ _____    ______ ____
ROOT
ATOM      1  C   UNL     1      47.487   6.277  12.986  0.00  0.00    +0.000 A 
ATOM      2  C   UNL     1      48.173   7.100  12.075  0.00  0.00    +0.000 A 
ATOM      3  C   UNL     1      49.264   7.869  12.474  0.00  0.00    +0.000 A 
ATOM      4  C   UNL     1      49.700   7.832  13.796  0.00  0.00    +0.000 A 
ATOM      5  C   UNL     1      49.042   7.043  14.745  0.00  0.00    +0.000 A 
ATOM      6  C   UNL     1      47.945   6.268  14.321  0.00  0.00    +0.000 A 
ENDROOT
BRANCH   1  11
ATOM      7  C   UNL     1      43.319   2.658  11.546  0.00  0.00    +0.000 C 
ATOM      8  C   UNL     1      44.378   3.662  11.863  0.00  0.00    +0.000 A 
ATOM      9  C   UNL     1      44.549   4.809  11.107  0.00  0.00    +0.000 A 
ATOM     10  C   UNL     1      45.555   5.702  11.462  0.00  0.00    +0.000 A 
ATOM     11  C   UNL     1      46.361   5.424  12.560  0.00  0.00    +0.000 A 
ATOM     12  N   UNL     1      46.147   4.303  13.286  0.00  0.00    +0.000 NA
ATOM     13  N   UNL     1      45.153   3.419  12.939  0.00  0.00    +0.000 NA
ENDBRANCH   1  11
BRANCH   5  14
ATOM     14  C   UNL     1      49.525   6.919  16.176  0.00  0.00    +0.000 C 
BRANCH  14  15
ATOM     15  C   UNL     1      48.803   5.865  17.020  0.00  0.00    +0.000 C 
BRANCH  15  16
ATOM     16  C   UNL     1      49.629   4.616  17.187  0.00  0.00    +0.000 A 
ATOM     17  C   UNL     1      50.951   4.687  17.621  0.00  0.00    +0.000 A 
ATOM     18  C   UNL     1      51.679   3.507  17.752  0.00  0.00    +0.000 A 
ATOM     19  C   UNL     1      51.070   2.295  17.449  0.00  0.00    +0.000 A 
ATOM     20 CL   UNL     1      51.937   0.820  17.591  0.00  0.00    +0.000 Cl
ATOM     21  C   UNL     1      49.751   2.310  17.031  0.00  0.00    +0.000 A 
ATOM     22  N   UNL     1      49.018   3.441  16.896  0.00  0.00    +0.000 NA
ENDBRANCH  15  16
ENDBRANCH  14  15
ENDBRANCH   5  14
TORSDOF 4
ENDMDL
MODEL 9
REMARK VINA RESULT:    -6.161      3.781      7.745
REMARK INTER + INTRA:          -8.306
REMARK INTER:                  -7.743
REMARK INTRA:                  -0.563
REMARK UNBOUND:                -0.703
REMARK  Name = 
REMARK  5 active torsions:
REMARK  status: ('A' for Active; 'I' for Inactive)
REMARK    1  A    between atoms: C_1  and  C_2
REMARK    2  A    between atoms: C_5  and  C_6
REMARK    3  A    between atoms: C_10  and  C_11
REMARK    4  A    between atoms: C_11  and  C_12
REMARK    5  A    between atoms: C_12  and  C_13
REMARK                            x       y       z     vdW  Elec       q    Type
REMARK                         _______ _______ _______ _____ _____    ______ ____
ROOT
ATOM      1  C   UNL     1      44.781   4.406  10.438  0.00  0.00    +0.000 A 
ATOM      2  C   UNL     1      43.387   4.543  10.558  0.00  0.00    +0.000 A 
ATOM      3  C   UNL     1      42.817   5.226  11.631  0.00  0.00    +0.000 A 
ATOM      4  C   UNL     1      43.628   5.793  12.610  0.00  0.00    +0.000 A 
ATOM      5  C   UNL     1      45.020   5.670  12.545  0.00  0.00    +0.000 A 
ATOM      6  C   UNL     1      45.578   4.981  11.450  0.00  0.00    +0.000 A 
ENDROOT
BRANCH   1  11
ATOM      7  C   UNL     1      47.225   1.446   6.217  0.00  0.00    +0.000 C 
ATOM      8  C   UNL     1      46.590   2.293   7.270  0.00  0.00    +0.000 A 
ATOM      9  C   UNL     1      46.499   3.669   7.147  0.00  0.00    +0.000 A 
ATOM     10  C   UNL     1      45.891   4.394   8.168  0.00  0.00    +0.000 A 
ATOM     11  C   UNL     1      45.393   3.726   9.280  0.00  0.00    +0.000 A 
ATOM     12  N   UNL     1      45.482   2.378   9.351  0.00  0.00    +0.000 NA
ATOM     13  N   UNL     1      46.081   1.658   8.345  0.00  0.00    +0.000 NA
ENDBRANCH   1  11
BRANCH   5  14
ATOM     14  C   UNL     1      45.943   6.330  13.550  0.00  0.00    +0.000 C 
BRANCH  14  15
ATOM     15  C   UNL     1      47.386   6.531  13.079  0.00  0.00    +0.000 C 
BRANCH  15  16
ATOM     16  C   UNL     1      48.199   7.314  14.075  0.00  0.00    +0.000 A 
ATOM     17  C   UNL     1      47.888   8.641  14.365  0.00  0.00    +0.000 A 
ATOM     18  C   UNL     1      48.675   9.330  15.287  0.00  0.00    +0.000 A 
ATOM     19  C   UNL     1      49.743   8.677  15.891  0.00  0.00    +0.000 A 
ATOM     20 CL   UNL     1      50.739   9.493  17.025  0.00  0.00    +0.000 Cl
ATOM     21  C   UNL     1      49.981   7.357  15.552  0.00  0.00    +0.000 A 
ATOM     22  N   UNL     1      49.233   6.662  14.662  0.00  0.00    +0.000 NA
ENDBRANCH  15  16
ENDBRANCH  14  15
ENDBRANCH   5  14
TORSDOF 4
ENDMDL
