MODEL 1
REMARK VINA RESULT:    -8.577      0.000      0.000
REMARK INTER + INTRA:         -11.889
REMARK INTER:                 -11.084
REMARK INTRA:                  -0.805
REMARK UNBOUND:                -0.805
REMARK  Name = 
REMARK  5 active torsions:
REMARK  status: ('A' for Active; 'I' for Inactive)
REMARK    1  A    between atoms: C_2  and  C_20
REMARK    2  A    between atoms: N_3  and  C_4
REMARK    3  A    between atoms: C_4  and  C_5
REMARK    4  A    between atoms: C_8  and  C_9
REMARK    5  A    between atoms: C_9  and  N_10
REMARK                            x       y       z     vdW  Elec       q    Type
REMARK                         _______ _______ _______ _____ _____    ______ ____
ROOT
ATOM      1  C   UNL     1      46.422   4.290  13.592  0.00  0.00    +0.000 C 
ENDROOT
BRANCH   1   2
ATOM      2  C   UNL     1      45.141   5.149  13.671  0.00  0.00    +0.000 C 
ATOM      3  C   UNL     1      45.141   6.347  12.713  0.00  0.00    +0.000 C 
ATOM      4  C   UNL     1      44.925   5.988  11.245  0.00  0.00    +0.000 C 
ATOM      5  C   UNL     1      43.770   4.999  10.996  0.00  0.00    +0.000 C 
ATOM      6  C   UNL     1      43.753   3.834  11.998  0.00  0.00    +0.000 C 
ATOM      7  C   UNL     1      43.876   4.314  13.439  0.00  0.00    +0.000 C 
BRANCH   5   8
ATOM      8  C   UNL     1      43.815   4.437   9.561  0.00  0.00    +0.000 C 
BRANCH   8   9
ATOM      9  N   UNL     1      44.418   3.104   9.552  0.00  0.00    +0.000 N 
ATOM     10  C   UNL     1      45.355   2.909   8.523  0.00  0.00    +0.000 A 
ATOM     11  C   UNL     1      45.972   1.660   8.429  0.00  0.00    +0.000 A 
ATOM     12  C   UNL     1      46.884   1.418   7.402  0.00  0.00    +0.000 A 
ATOM     13  C   UNL     1      47.162   2.433   6.500  0.00  0.00    +0.000 A 
ATOM     14 CL   UNL     1      48.259   2.183   5.205  0.00  0.00    +0.000 Cl
ATOM     15  C   UNL     1      46.526   3.649   6.669  0.00  0.00    +0.000 A 
ATOM     16  N   UNL     1      45.637   3.905   7.660  0.00  0.00    +0.000 NA
ATOM     17  H   UNL     1      43.722   2.369   9.470  0.00  0.00    +0.000 HD
ENDBRANCH   8   9
ENDBRANCH   5   8
ENDBRANCH   1   2
BRANCH   1  20
ATOM     18  O   UNL     1      46.433   3.720  16.400  0.00  0.00    +0.000 OA
ATOM     19  C   UNL     1      47.384   4.294  15.892  0.00  0.00    +0.000 C 
ATOM     20  N   UNL     1      47.451   4.638  14.557  0.00  0.00    +0.000 N 
ATOM     21  H   UNL     1      48.373   4.824  14.190  0.00  0.00    +0.000 HD
BRANCH  19  22
ATOM     22  C   UNL     1      48.560   4.719  16.666  0.00  0.00    +0.000 A 
ATOM     23  C   UNL     1      48.750   6.015  17.123  0.00  0.00    +0.000 A 
ATOM     24  S   UNL     1      50.161   6.194  18.070  0.00  0.00    +0.000 S 
ATOM     25  C   UNL     1      50.558   4.544  17.892  0.00  0.00    +0.000 A 
ATOM     26  N   UNL     1      51.668   4.019  18.476  0.00  0.00    +0.000 NA
ATOM     27  C   UNL     1      51.828   2.757  18.265  0.00  0.00    +0.000 A 
ATOM     28  N   UNL     1      50.985   1.972  17.519  0.00  0.00    +0.000 N 
ATOM     29  C   UNL     1      49.899   2.475  16.841  0.00  0.00    +0.000 A 
ATOM     30  O   UNL     1      49.291   1.778  16.038  0.00  0.00    +0.000 OA
ATOM     31  C   UNL     1      49.638   3.876  17.108  0.00  0.00    +0.000 A 
ATOM     32  H   UNL     1      51.193   1.001  17.339  0.00  0.00    +0.000 HD
ENDBRANCH  19  22
ENDBRANCH   1  20
TORSDOF 5
ENDMDL
MODEL 2
REMARK VINA RESULT:    -7.804      2.067      2.437
REMARK INTER + INTRA:         -10.890
REMARK INTER:                  -9.860
REMARK INTRA:                  -1.030
REMARK UNBOUND:                -0.805
REMARK  Name = 
REMARK  5 active torsions:
REMARK  status: ('A' for Active; 'I' for Inactive)
REMARK    1  A    between atoms: C_2  and  C_20
REMARK    2  A    between atoms: N_3  and  C_4
REMARK    3  A    between atoms: C_4  and  C_5
REMARK    4  A    between atoms: C_8  and  C_9
REMARK    5  A    between atoms: C_9  and  N_10
REMARK                            x       y       z     vdW  Elec       q    Type
REMARK                         _______ _______ _______ _____ _____    ______ ____
ROOT
ATOM      1  C   UNL     1      47.104   6.260  12.473  0.00  0.00    +0.000 C 
ENDROOT
BRANCH   1   2
ATOM      2  C   UNL     1      45.835   5.870  13.260  0.00  0.00    +0.000 C 
ATOM      3  C   UNL     1      44.549   6.506  12.715  0.00  0.00    +0.000 C 
ATOM      4  C   UNL     1      44.042   5.899  11.411  0.00  0.00    +0.000 C 
ATOM      5  C   UNL     1      44.023   4.359  11.390  0.00  0.00    +0.000 C 
ATOM      6  C   UNL     1      45.295   3.737  11.989  0.00  0.00    +0.000 C 
ATOM      7  C   UNL     1      45.654   4.349  13.338  0.00  0.00    +0.000 C 
BRANCH   5   8
ATOM      8  C   UNL     1      43.817   3.820   9.961  0.00  0.00    +0.000 C 
BRANCH   8   9
ATOM      9  N   UNL     1      44.515   2.546   9.787  0.00  0.00    +0.000 N 
ATOM     10  C   UNL     1      45.377   2.514   8.678  0.00  0.00    +0.000 A 
ATOM     11  C   UNL     1      46.075   1.332   8.427  0.00  0.00    +0.000 A 
ATOM     12  C   UNL     1      46.916   1.251   7.317  0.00  0.00    +0.000 A 
ATOM     13  C   UNL     1      47.044   2.357   6.492  0.00  0.00    +0.000 A 
ATOM     14 CL   UNL     1      48.048   2.305   5.102  0.00  0.00    +0.000 Cl
ATOM     15  C   UNL     1      46.335   3.499   6.817  0.00  0.00    +0.000 A 
ATOM     16  N   UNL     1      45.513   3.598   7.889  0.00  0.00    +0.000 NA
ATOM     17  H   UNL     1      43.871   1.766   9.692  0.00  0.00    +0.000 HD
ENDBRANCH   8   9
ENDBRANCH   5   8
ENDBRANCH   1   2
BRANCH   1  20
ATOM     18  O   UNL     1      47.844   8.480  14.126  0.00  0.00    +0.000 OA
ATOM     19  C   UNL     1      48.565   7.495  14.070  0.00  0.00    +0.000 C 
ATOM     20  N   UNL     1      48.306   6.395  13.278  0.00  0.00    +0.000 N 
ATOM     21  H   UNL     1      48.782   5.541  13.530  0.00  0.00    +0.000 HD
BRANCH  19  22
ATOM     22  C   UNL     1      49.823   7.389  14.826  0.00  0.00    +0.000 A 
ATOM     23  C   UNL     1      50.966   8.111  14.515  0.00  0.00    +0.000 A 
ATOM     24  S   UNL     1      52.245   7.853  15.619  0.00  0.00    +0.000 S 
ATOM     25  C   UNL     1      51.306   6.766  16.540  0.00  0.00    +0.000 A 
ATOM     26  N   UNL     1      51.806   6.173  17.657  0.00  0.00    +0.000 NA
ATOM     27  C   UNL     1      50.975   5.389  18.254  0.00  0.00    +0.000 A 
ATOM     28  N   UNL     1      49.692   5.138  17.836  0.00  0.00    +0.000 N 
ATOM     29  C   UNL     1      49.172   5.647  16.669  0.00  0.00    +0.000 A 
ATOM     30  O   UNL     1      48.098   5.244  16.240  0.00  0.00    +0.000 OA
ATOM     31  C   UNL     1      50.046   6.592  16.001  0.00  0.00    +0.000 A 
ATOM     32  H   UNL     1      49.107   4.468  18.313  0.00  0.00    +0.000 HD
ENDBRANCH  19  22
ENDBRANCH   1  20
TORSDOF 5
ENDMDL
MODEL 3
REMARK VINA RESULT:    -7.691      4.089      8.648
REMARK INTER + INTRA:         -10.744
REMARK INTER:                  -9.956
REMARK INTRA:                  -0.788
REMARK UNBOUND:                -0.805
REMARK  Name = 
REMARK  5 active torsions:
REMARK  status: ('A' for Active; 'I' for Inactive)
REMARK    1  A    between atoms: C_2  and  C_20
REMARK    2  A    between atoms: N_3  and  C_4
REMARK    3  A    between atoms: C_4  and  C_5
REMARK    4  A    between atoms: C_8  and  C_9
REMARK    5  A    between atoms: C_9  and  N_10
REMARK                            x       y       z     vdW  Elec       q    Type
REMARK                         _______ _______ _______ _____ _____    ______ ____
ROOT
ATOM      1  C   UNL     1      45.884   8.119  12.901  0.00  0.00    +0.000 C 
ENDROOT
BRANCH   1   2
ATOM      2  C   UNL     1      47.363   8.450  12.608  0.00  0.00    +0.000 C 
ATOM      3  C   UNL     1      47.960   9.505  13.548  0.00  0.00    +0.000 C 
ATOM      4  C   UNL     1      48.253   9.006  14.960  0.00  0.00    +0.000 C 
ATOM      5  C   UNL     1      48.979   7.648  15.017  0.00  0.00    +0.000 C 
ATOM      6  C   UNL     1      48.404   6.620  14.030  0.00  0.00    +0.000 C 
ATOM      7  C   UNL     1      48.246   7.196  12.628  0.00  0.00    +0.000 C 
BRANCH   5   8
ATOM      8  C   UNL     1      48.952   7.058  16.441  0.00  0.00    +0.000 C 
BRANCH   8   9
ATOM      9  N   UNL     1      48.194   5.807  16.463  0.00  0.00    +0.000 N 
ATOM     10  C   UNL     1      48.965   4.679  16.792  0.00  0.00    +0.000 A 
ATOM     11  C   UNL     1      48.326   3.438  16.825  0.00  0.00    +0.000 A 
ATOM     12  C   UNL     1      49.065   2.291  17.114  0.00  0.00    +0.000 A 
ATOM     13  C   UNL     1      50.421   2.415  17.373  0.00  0.00    +0.000 A 
ATOM     14 CL   UNL     1      51.380   1.035  17.715  0.00  0.00    +0.000 Cl
ATOM     15  C   UNL     1      50.978   3.680  17.341  0.00  0.00    +0.000 A 
ATOM     16  N   UNL     1      50.279   4.806  17.061  0.00  0.00    +0.000 NA
ATOM     17  H   UNL     1      47.742   5.616  15.574  0.00  0.00    +0.000 HD
ENDBRANCH   8   9
ENDBRANCH   5   8
ENDBRANCH   1   2
BRANCH   1  20
ATOM     18  O   UNL     1      43.786   7.356  11.105  0.00  0.00    +0.000 OA
ATOM     19  C   UNL     1      44.469   6.498  11.644  0.00  0.00    +0.000 C 
ATOM     20  N   UNL     1      45.478   6.770  12.545  0.00  0.00    +0.000 N 
ATOM     21  H   UNL     1      46.157   6.038  12.689  0.00  0.00    +0.000 HD
BRANCH  19  22
ATOM     22  C   UNL     1      44.263   5.060  11.412  0.00  0.00    +0.000 A 
ATOM     23  C   UNL     1      43.536   4.243  12.266  0.00  0.00    +0.000 A 
ATOM     24  S   UNL     1      43.389   2.638  11.696  0.00  0.00    +0.000 S 
ATOM     25  C   UNL     1      44.296   2.991  10.295  0.00  0.00    +0.000 A 
ATOM     26  N   UNL     1      44.541   2.040   9.355  0.00  0.00    +0.000 NA
ATOM     27  C   UNL     1      45.226   2.460   8.347  0.00  0.00    +0.000 A 
ATOM     28  N   UNL     1      45.694   3.741   8.193  0.00  0.00    +0.000 N 
ATOM     29  C   UNL     1      45.544   4.712   9.155  0.00  0.00    +0.000 A 
ATOM     30  O   UNL     1      46.141   5.778   9.060  0.00  0.00    +0.000 OA
ATOM     31  C   UNL     1      44.717   4.307  10.275  0.00  0.00    +0.000 A 
ATOM     32  H   UNL     1      46.276   3.996   7.410  0.00  0.00    +0.000 HD
ENDBRANCH  19  22
ENDBRANCH   1  20
TORSDOF 5
ENDMDL
MODEL 4
REMARK VINA RESULT:    -7.396      4.132      8.334
REMARK INTER + INTRA:         -10.363
REMARK INTER:                  -9.524
REMARK INTRA:                  -0.839
REMARK UNBOUND:                -0.805
REMARK  Name = 
REMARK  5 active torsions:
REMARK  status: ('A' for Active; 'I' for Inactive)
REMARK    1  A    between atoms: C_2  and  C_20
REMARK    2  A    between atoms: N_3  and  C_4
REMARK    3  A    between atoms: C_4  and  C_5
REMARK    4  A    between atoms: C_8  and  C_9
REMARK    5  A    between atoms: C_9  and  N_10
REMARK                            x       y       z     vdW  Elec       q    Type
REMARK                         _______ _______ _______ _____ _____    ______ ____
ROOT
ATOM      1  C   UNL     1      49.432   7.308  12.486  0.00  0.00    +0.000 C 
ENDROOT
BRANCH   1   2
ATOM      2  C   UNL     1      49.657   8.727  13.054  0.00  0.00    +0.000 C 
ATOM      3  C   UNL     1      48.453   9.283  13.824  0.00  0.00    +0.000 C 
ATOM      4  C   UNL     1      48.236   8.663  15.201  0.00  0.00    +0.000 C 
ATOM      5  C   UNL     1      49.512   8.547  16.055  0.00  0.00    +0.000 C 
ATOM      6  C   UNL     1      50.723   8.040  15.256  0.00  0.00    +0.000 C 
ATOM      7  C   UNL     1      50.904   8.796  13.945  0.00  0.00    +0.000 C 
BRANCH   5   8
ATOM      8  C   UNL     1      49.289   7.633  17.276  0.00  0.00    +0.000 C 
BRANCH   8   9
ATOM      9  N   UNL     1      48.448   6.491  16.915  0.00  0.00    +0.000 N 
ATOM     10  C   UNL     1      49.071   5.245  17.093  0.00  0.00    +0.000 A 
ATOM     11  C   UNL     1      48.346   4.099  16.762  0.00  0.00    +0.000 A 
ATOM     12  C   UNL     1      48.943   2.845  16.894  0.00  0.00    +0.000 A 
ATOM     13  C   UNL     1      50.245   2.768  17.363  0.00  0.00    +0.000 A 
ATOM     14 CL   UNL     1      51.033   1.254  17.526  0.00  0.00    +0.000 Cl
ATOM     15  C   UNL     1      50.891   3.947  17.689  0.00  0.00    +0.000 A 
ATOM     16  N   UNL     1      50.330   5.174  17.568  0.00  0.00    +0.000 NA
ATOM     17  H   UNL     1      48.133   6.537  15.950  0.00  0.00    +0.000 HD
ENDBRANCH   8   9
ENDBRANCH   5   8
ENDBRANCH   1   2
BRANCH   1  20
ATOM     18  O   UNL     1      47.661   5.523  13.859  0.00  0.00    +0.000 OA
ATOM     19  C   UNL     1      47.265   6.143  12.884  0.00  0.00    +0.000 C 
ATOM     20  N   UNL     1      48.055   6.999  12.143  0.00  0.00    +0.000 N 
ATOM     21  H   UNL     1      47.568   7.671  11.568  0.00  0.00    +0.000 HD
BRANCH  19  22
ATOM     22  C   UNL     1      45.894   6.016  12.366  0.00  0.00    +0.000 A 
ATOM     23  C   UNL     1      45.165   7.082  11.860  0.00  0.00    +0.000 A 
ATOM     24  S   UNL     1      43.636   6.621  11.249  0.00  0.00    +0.000 S 
ATOM     25  C   UNL     1      43.908   4.985  11.647  0.00  0.00    +0.000 A 
ATOM     26  N   UNL     1      42.979   4.030  11.377  0.00  0.00    +0.000 NA
ATOM     27  C   UNL     1      43.331   2.838  11.722  0.00  0.00    +0.000 A 
ATOM     28  N   UNL     1      44.525   2.513  12.317  0.00  0.00    +0.000 N 
ATOM     29  C   UNL     1      45.457   3.454  12.685  0.00  0.00    +0.000 A 
ATOM     30  O   UNL     1      46.414   3.141  13.383  0.00  0.00    +0.000 OA
ATOM     31  C   UNL     1      45.136   4.801  12.252  0.00  0.00    +0.000 A 
ATOM     32  H   UNL     1      44.721   1.571  12.618  0.00  0.00    +0.000 HD
ENDBRANCH  19  22
ENDBRANCH   1  20
TORSDOF 5
ENDMDL
MODEL 5
REMARK VINA RESULT:    -7.296      2.549      3.954
REMARK INTER + INTRA:         -10.233
REMARK INTER:                  -9.451
REMARK INTRA:                  -0.782
REMARK UNBOUND:                -0.805
REMARK  Name = 
REMARK  5 active torsions:
REMARK  status: ('A' for Active; 'I' for Inactive)
REMARK    1  A    between atoms: C_2  and  C_20
REMARK    2  A    between atoms: N_3  and  C_4
REMARK    3  A    between atoms: C_4  and  C_5
REMARK    4  A    between atoms: C_8  and  C_9
REMARK    5  A    between atoms: C_9  and  N_10
REMARK                            x       y       z     vdW  Elec       q    Type
REMARK                         _______ _______ _______ _____ _____    ______ ____
ROOT
ATOM      1  C   UNL     1      48.888   6.709  15.547  0.00  0.00    +0.000 C 
ENDROOT
BRANCH   1   2
ATOM      2  C   UNL     1      49.344   7.855  14.618  0.00  0.00    +0.000 C 
ATOM      3  C   UNL     1      49.578   7.418  13.166  0.00  0.00    +0.000 C 
ATOM      4  C   UNL     1      48.304   7.151  12.369  0.00  0.00    +0.000 C 
ATOM      5  C   UNL     1      47.220   8.235  12.519  0.00  0.00    +0.000 C 
ATOM      6  C   UNL     1      47.037   8.700  13.972  0.00  0.00    +0.000 C 
ATOM      7  C   UNL     1      48.365   9.035  14.640  0.00  0.00    +0.000 C 
BRANCH   5   8
ATOM      8  C   UNL     1      45.865   7.753  11.964  0.00  0.00    +0.000 C 
BRANCH   8   9
ATOM      9  N   UNL     1      45.431   6.538  12.653  0.00  0.00    +0.000 N 
ATOM     10  C   UNL     1      45.216   5.443  11.799  0.00  0.00    +0.000 A 
ATOM     11  C   UNL     1      44.787   4.244  12.369  0.00  0.00    +0.000 A 
ATOM     12  C   UNL     1      44.531   3.144  11.550  0.00  0.00    +0.000 A 
ATOM     13  C   UNL     1      44.720   3.269  10.183  0.00  0.00    +0.000 A 
ATOM     14 CL   UNL     1      44.401   1.956   9.127  0.00  0.00    +0.000 Cl
ATOM     15  C   UNL     1      45.166   4.484   9.694  0.00  0.00    +0.000 A 
ATOM     16  N   UNL     1      45.419   5.564  10.472  0.00  0.00    +0.000 NA
ATOM     17  H   UNL     1      44.576   6.682  13.182  0.00  0.00    +0.000 HD
ENDBRANCH   8   9
ENDBRANCH   5   8
ENDBRANCH   1   2
BRANCH   1  20
ATOM     18  O   UNL     1      48.631   4.725  17.598  0.00  0.00    +0.000 OA
ATOM     19  C   UNL     1      49.741   5.069  17.218  0.00  0.00    +0.000 C 
ATOM     20  N   UNL     1      49.961   6.038  16.261  0.00  0.00    +0.000 N 
ATOM     21  H   UNL     1      50.866   6.027  15.815  0.00  0.00    +0.000 HD
BRANCH  19  22
ATOM     22  C   UNL     1      50.980   4.503  17.775  0.00  0.00    +0.000 A 
ATOM     23  C   UNL     1      51.884   5.235  18.530  0.00  0.00    +0.000 A 
ATOM     24  S   UNL     1      53.185   4.294  19.118  0.00  0.00    +0.000 S 
ATOM     25  C   UNL     1      52.575   2.884  18.375  0.00  0.00    +0.000 A 
ATOM     26  N   UNL     1      53.216   1.691  18.494  0.00  0.00    +0.000 NA
ATOM     27  C   UNL     1      52.628   0.715  17.891  0.00  0.00    +0.000 A 
ATOM     28  N   UNL     1      51.462   0.821  17.176  0.00  0.00    +0.000 N 
ATOM     29  C   UNL     1      50.825   2.019  16.958  0.00  0.00    +0.000 A 
ATOM     30  O   UNL     1      49.900   2.095  16.157  0.00  0.00    +0.000 OA
ATOM     31  C   UNL     1      51.410   3.135  17.677  0.00  0.00    +0.000 A 
ATOM     32  H   UNL     1      51.080   0.032  16.675  0.00  0.00    +0.000 HD
ENDBRANCH  19  22
ENDBRANCH   1  20
TORSDOF 5
ENDMDL
MODEL 6
REMARK VINA RESULT:    -7.105      2.117      2.650
REMARK INTER + INTRA:          -9.987
REMARK INTER:                  -9.119
REMARK INTRA:                  -0.869
REMARK UNBOUND:                -0.805
REMARK  Name = 
REMARK  5 active torsions:
REMARK  status: ('A' for Active; 'I' for Inactive)
REMARK    1  A    between atoms: C_2  and  C_20
REMARK    2  A    between atoms: N_3  and  C_4
REMARK    3  A    between atoms: C_4  and  C_5
REMARK    4  A    between atoms: C_8  and  C_9
REMARK    5  A    between atoms: C_9  and  N_10
REMARK                            x       y       z     vdW  Elec       q    Type
REMARK                         _______ _______ _______ _____ _____    ______ ____
ROOT
ATOM      1  C   UNL     1      47.417   5.916  13.918  0.00  0.00    +0.000 C 
ENDROOT
BRANCH   1   2
ATOM      2  C   UNL     1      46.976   7.215  13.209  0.00  0.00    +0.000 C 
ATOM      3  C   UNL     1      47.549   7.373  11.795  0.00  0.00    +0.000 C 
ATOM      4  C   UNL     1      46.909   6.470  10.745  0.00  0.00    +0.000 C 
ATOM      5  C   UNL     1      45.370   6.438  10.786  0.00  0.00    +0.000 C 
ATOM      6  C   UNL     1      44.811   6.335  12.214  0.00  0.00    +0.000 C 
ATOM      7  C   UNL     1      45.449   7.349  13.156  0.00  0.00    +0.000 C 
BRANCH   5   8
ATOM      8  C   UNL     1      44.811   5.281   9.935  0.00  0.00    +0.000 C 
BRANCH   8   9
ATOM      9  N   UNL     1      45.637   5.073   8.745  0.00  0.00    +0.000 N 
ATOM     10  C   UNL     1      45.847   3.721   8.427  0.00  0.00    +0.000 A 
ATOM     11  C   UNL     1      46.636   3.427   7.313  0.00  0.00    +0.000 A 
ATOM     12  C   UNL     1      46.894   2.096   6.984  0.00  0.00    +0.000 A 
ATOM     13  C   UNL     1      46.350   1.094   7.771  0.00  0.00    +0.000 A 
ATOM     14 CL   UNL     1      46.653  -0.558   7.424  0.00  0.00    +0.000 Cl
ATOM     15  C   UNL     1      45.563   1.463   8.847  0.00  0.00    +0.000 A 
ATOM     16  N   UNL     1      45.301   2.749   9.184  0.00  0.00    +0.000 NA
ATOM     17  H   UNL     1      46.550   5.509   8.832  0.00  0.00    +0.000 HD
ENDBRANCH   8   9
ENDBRANCH   5   8
ENDBRANCH   1   2
BRANCH   1  20
ATOM     18  O   UNL     1      49.951   6.836  14.889  0.00  0.00    +0.000 OA
ATOM     19  C   UNL     1      49.059   6.562  15.678  0.00  0.00    +0.000 C 
ATOM     20  N   UNL     1      47.820   6.083  15.304  0.00  0.00    +0.000 N 
ATOM     21  H   UNL     1      47.081   6.178  15.984  0.00  0.00    +0.000 HD
BRANCH  19  22
ATOM     22  C   UNL     1      49.225   6.683  17.135  0.00  0.00    +0.000 A 
ATOM     23  C   UNL     1      49.530   7.875  17.775  0.00  0.00    +0.000 A 
ATOM     24  S   UNL     1      49.573   7.733  19.478  0.00  0.00    +0.000 S 
ATOM     25  C   UNL     1      49.188   6.072  19.405  0.00  0.00    +0.000 A 
ATOM     26  N   UNL     1      49.056   5.329  20.535  0.00  0.00    +0.000 NA
ATOM     27  C   UNL     1      48.748   4.095  20.322  0.00  0.00    +0.000 A 
ATOM     28  N   UNL     1      48.566   3.533  19.083  0.00  0.00    +0.000 N 
ATOM     29  C   UNL     1      48.771   4.223  17.911  0.00  0.00    +0.000 A 
ATOM     30  O   UNL     1      48.786   3.634  16.837  0.00  0.00    +0.000 OA
ATOM     31  C   UNL     1      49.048   5.635  18.102  0.00  0.00    +0.000 A 
ATOM     32  H   UNL     1      48.384   2.547  18.975  0.00  0.00    +0.000 HD
ENDBRANCH  19  22
ENDBRANCH   1  20
TORSDOF 5
ENDMDL
MODEL 7
REMARK VINA RESULT:    -7.099      4.289      9.701
REMARK INTER + INTRA:          -9.979
REMARK INTER:                  -9.199
REMARK INTRA:                  -0.779
REMARK UNBOUND:                -0.805
REMARK  Name = 
REMARK  5 active torsions:
REMARK  status: ('A' for Active; 'I' for Inactive)
REMARK    1  A    between atoms: C_2  and  C_20
REMARK    2  A    between atoms: N_3  and  C_4
REMARK    3  A    between atoms: C_4  and  C_5
REMARK    4  A    between atoms: C_8  and  C_9
REMARK    5  A    between atoms: C_9  and  N_10
REMARK                            x       y       z     vdW  Elec       q    Type
REMARK                         _______ _______ _______ _____ _____    ______ ____
ROOT
ATOM      1  C   UNL     1      48.127   5.178  16.074  0.00  0.00    +0.000 C 
ENDROOT
BRANCH   1   2
ATOM      2  C   UNL     1      47.716   4.090  17.089  0.00  0.00    +0.000 C 
ATOM      3  C   UNL     1      47.918   2.658  16.577  0.00  0.00    +0.000 C 
ATOM      4  C   UNL     1      49.373   2.199  16.530  0.00  0.00    +0.000 C 
ATOM      5  C   UNL     1      50.183   2.519  17.800  0.00  0.00    +0.000 C 
ATOM      6  C   UNL     1      49.928   3.939  18.331  0.00  0.00    +0.000 C 
ATOM      7  C   UNL     1      48.440   4.256  18.431  0.00  0.00    +0.000 C 
BRANCH   5   8
ATOM      8  C   UNL     1      51.694   2.328  17.563  0.00  0.00    +0.000 C 
BRANCH   8   9
ATOM      9  N   UNL     1      52.438   2.528  18.807  0.00  0.00    +0.000 N 
ATOM     10  C   UNL     1      53.209   3.702  18.829  0.00  0.00    +0.000 A 
ATOM     11  C   UNL     1      53.963   3.967  19.973  0.00  0.00    +0.000 A 
ATOM     12  C   UNL     1      54.767   5.106  20.019  0.00  0.00    +0.000 A 
ATOM     13  C   UNL     1      54.789   5.956  18.924  0.00  0.00    +0.000 A 
ATOM     14 CL   UNL     1      55.775   7.359  18.919  0.00  0.00    +0.000 Cl
ATOM     15  C   UNL     1      54.000   5.636  17.834  0.00  0.00    +0.000 A 
ATOM     16  N   UNL     1      53.213   4.534  17.769  0.00  0.00    +0.000 NA
ATOM     17  H   UNL     1      53.062   1.752  19.009  0.00  0.00    +0.000 HD
ENDBRANCH   8   9
ENDBRANCH   5   8
ENDBRANCH   1   2
BRANCH   1  20
ATOM     18  O   UNL     1      48.607   6.026  13.379  0.00  0.00    +0.000 OA
ATOM     19  C   UNL     1      47.463   5.843  13.765  0.00  0.00    +0.000 C 
ATOM     20  N   UNL     1      47.135   5.466  15.052  0.00  0.00    +0.000 N 
ATOM     21  H   UNL     1      46.221   5.058  15.178  0.00  0.00    +0.000 HD
BRANCH  19  22
ATOM     22  C   UNL     1      46.292   6.042  12.897  0.00  0.00    +0.000 A 
ATOM     23  C   UNL     1      45.837   7.290  12.499  0.00  0.00    +0.000 A 
ATOM     24  S   UNL     1      44.513   7.211  11.420  0.00  0.00    +0.000 S 
ATOM     25  C   UNL     1      44.511   5.505  11.459  0.00  0.00    +0.000 A 
ATOM     26  N   UNL     1      43.617   4.784  10.732  0.00  0.00    +0.000 NA
ATOM     27  C   UNL     1      43.748   3.507  10.851  0.00  0.00    +0.000 A 
ATOM     28  N   UNL     1      44.686   2.883  11.635  0.00  0.00    +0.000 N 
ATOM     29  C   UNL     1      45.554   3.569  12.452  0.00  0.00    +0.000 A 
ATOM     30  O   UNL     1      46.238   2.971  13.273  0.00  0.00    +0.000 OA
ATOM     31  C   UNL     1      45.493   5.010  12.296  0.00  0.00    +0.000 A 
ATOM     32  H   UNL     1      44.702   1.879  11.735  0.00  0.00    +0.000 HD
ENDBRANCH  19  22
ENDBRANCH   1  20
TORSDOF 5
ENDMDL
MODEL 8
REMARK VINA RESULT:    -6.702      3.045      4.541
REMARK INTER + INTRA:          -9.466
REMARK INTER:                  -8.221
REMARK INTRA:                  -1.245
REMARK UNBOUND:                -0.805
REMARK  Name = 
REMARK  5 active torsions:
REMARK  status: ('A' for Active; 'I' for Inactive)
REMARK    1  A    between atoms: C_2  and  C_20
REMARK    2  A    between atoms: N_3  and  C_4
REMARK    3  A    between atoms: C_4  and  C_5
REMARK    4  A    between atoms: C_8  and  C_9
REMARK    5  A    between atoms: C_9  and  N_10
REMARK                            x       y       z     vdW  Elec       q    Type
REMARK                         _______ _______ _______ _____ _____    ______ ____
ROOT
ATOM      1  C   UNL     1      49.843   9.264  14.673  0.00  0.00    +0.000 C 
ENDROOT
BRANCH   1   2
ATOM      2  C   UNL     1      49.953   9.114  13.141  0.00  0.00    +0.000 C 
ATOM      3  C   UNL     1      49.710   7.684  12.640  0.00  0.00    +0.000 C 
ATOM      4  C   UNL     1      48.251   7.238  12.674  0.00  0.00    +0.000 C 
ATOM      5  C   UNL     1      47.257   8.267  12.104  0.00  0.00    +0.000 C 
ATOM      6  C   UNL     1      47.547   9.702  12.573  0.00  0.00    +0.000 C 
ATOM      7  C   UNL     1      49.015  10.076  12.402  0.00  0.00    +0.000 C 
BRANCH   5   8
ATOM      8  C   UNL     1      45.804   7.900  12.462  0.00  0.00    +0.000 C 
BRANCH   8   9
ATOM      9  N   UNL     1      45.749   6.581  13.095  0.00  0.00    +0.000 N 
ATOM     10  C   UNL     1      45.441   5.535  12.209  0.00  0.00    +0.000 A 
ATOM     11  C   UNL     1      45.355   4.243  12.728  0.00  0.00    +0.000 A 
ATOM     12  C   UNL     1      45.021   3.183  11.886  0.00  0.00    +0.000 A 
ATOM     13  C   UNL     1      44.790   3.441  10.544  0.00  0.00    +0.000 A 
ATOM     14 CL   UNL     1      44.355   2.178   9.468  0.00  0.00    +0.000 Cl
ATOM     15  C   UNL     1      44.913   4.745  10.099  0.00  0.00    +0.000 A 
ATOM     16  N   UNL     1      45.237   5.788  10.901  0.00  0.00    +0.000 NA
ATOM     17  H   UNL     1      45.070   6.547  13.850  0.00  0.00    +0.000 HD
ENDBRANCH   8   9
ENDBRANCH   5   8
ENDBRANCH   1   2
BRANCH   1  20
ATOM     18  O   UNL     1      48.361   8.272  16.917  0.00  0.00    +0.000 OA
ATOM     19  C   UNL     1      49.307   7.633  16.480  0.00  0.00    +0.000 C 
ATOM     20  N   UNL     1      50.096   8.048  15.426  0.00  0.00    +0.000 N 
ATOM     21  H   UNL     1      50.636   7.331  14.964  0.00  0.00    +0.000 HD
BRANCH  19  22
ATOM     22  C   UNL     1      49.734   6.351  17.063  0.00  0.00    +0.000 A 
ATOM     23  C   UNL     1      50.833   6.218  17.899  0.00  0.00    +0.000 A 
ATOM     24  S   UNL     1      51.035   4.629  18.495  0.00  0.00    +0.000 S 
ATOM     25  C   UNL     1      49.661   4.076  17.648  0.00  0.00    +0.000 A 
ATOM     26  N   UNL     1      49.255   2.781  17.732  0.00  0.00    +0.000 NA
ATOM     27  C   UNL     1      48.193   2.516  17.050  0.00  0.00    +0.000 A 
ATOM     28  N   UNL     1      47.503   3.424  16.287  0.00  0.00    +0.000 N 
ATOM     29  C   UNL     1      47.922   4.721  16.105  0.00  0.00    +0.000 A 
ATOM     30  O   UNL     1      47.386   5.436  15.268  0.00  0.00    +0.000 OA
ATOM     31  C   UNL     1      49.072   5.085  16.911  0.00  0.00    +0.000 A 
ATOM     32  H   UNL     1      46.711   3.145  15.727  0.00  0.00    +0.000 HD
ENDBRANCH  19  22
ENDBRANCH   1  20
TORSDOF 5
ENDMDL
MODEL 9
REMARK VINA RESULT:    -6.531      5.156      7.670
REMARK INTER + INTRA:          -9.245
REMARK INTER:                  -8.199
REMARK INTRA:                  -1.046
REMARK UNBOUND:                -0.805
REMARK  Name = 
REMARK  5 active torsions:
REMARK  status: ('A' for Active; 'I' for Inactive)
REMARK    1  A    between atoms: C_2  and  C_20
REMARK    2  A    between atoms: N_3  and  C_4
REMARK    3  A    between atoms: C_4  and  C_5
REMARK    4  A    between atoms: C_8  and  C_9
REMARK    5  A    between atoms: C_9  and  N_10
REMARK                            x       y       z     vdW  Elec       q    Type
REMARK                         _______ _______ _______ _____ _____    ______ ____
ROOT
ATOM      1  C   UNL     1      49.003   7.010  15.610  0.00  0.00    +0.000 C 
ENDROOT
BRANCH   1   2
ATOM      2  C   UNL     1      49.244   8.461  16.082  0.00  0.00    +0.000 C 
ATOM      3  C   UNL     1      50.669   8.717  16.590  0.00  0.00    +0.000 C 
ATOM      4  C   UNL     1      51.730   8.796  15.496  0.00  0.00    +0.000 C 
ATOM      5  C   UNL     1      51.338   9.672  14.291  0.00  0.00    +0.000 C 
ATOM      6  C   UNL     1      49.891   9.442  13.829  0.00  0.00    +0.000 C 
ATOM      7  C   UNL     1      48.904   9.482  14.990  0.00  0.00    +0.000 C 
BRANCH   5   8
ATOM      8  C   UNL     1      52.294   9.449  13.102  0.00  0.00    +0.000 C 
BRANCH   8   9
ATOM      9  N   UNL     1      51.937   8.228  12.379  0.00  0.00    +0.000 N 
ATOM     10  C   UNL     1      52.337   8.225  11.032  0.00  0.00    +0.000 A 
ATOM     11  C   UNL     1      52.027   7.104  10.261  0.00  0.00    +0.000 A 
ATOM     12  C   UNL     1      52.379   7.078   8.911  0.00  0.00    +0.000 A 
ATOM     13  C   UNL     1      53.039   8.169   8.370  0.00  0.00    +0.000 A 
ATOM     14 CL   UNL     1      53.477   8.199   6.712  0.00  0.00    +0.000 Cl
ATOM     15  C   UNL     1      53.329   9.235   9.202  0.00  0.00    +0.000 A 
ATOM     16  N   UNL     1      52.996   9.280  10.515  0.00  0.00    +0.000 NA
ATOM     17  H   UNL     1      50.938   8.049  12.398  0.00  0.00    +0.000 HD
ENDBRANCH   8   9
ENDBRANCH   5   8
ENDBRANCH   1   2
BRANCH   1  20
ATOM     18  O   UNL     1      48.926   6.116  12.889  0.00  0.00    +0.000 OA
ATOM     19  C   UNL     1      47.884   6.361  13.480  0.00  0.00    +0.000 C 
ATOM     20  N   UNL     1      47.827   6.826  14.778  0.00  0.00    +0.000 N 
ATOM     21  H   UNL     1      46.946   6.707  15.256  0.00  0.00    +0.000 HD
BRANCH  19  22
ATOM     22  C   UNL     1      46.563   6.218  12.849  0.00  0.00    +0.000 A 
ATOM     23  C   UNL     1      45.842   7.284  12.332  0.00  0.00    +0.000 A 
ATOM     24  S   UNL     1      44.382   6.807  11.581  0.00  0.00    +0.000 S 
ATOM     25  C   UNL     1      44.674   5.163  11.931  0.00  0.00    +0.000 A 
ATOM     26  N   UNL     1      43.800   4.195  11.548  0.00  0.00    +0.000 NA
ATOM     27  C   UNL     1      44.162   3.000  11.869  0.00  0.00    +0.000 A 
ATOM     28  N   UNL     1      45.315   2.683  12.543  0.00  0.00    +0.000 N 
ATOM     29  C   UNL     1      46.185   3.633  13.024  0.00  0.00    +0.000 A 
ATOM     30  O   UNL     1      47.094   3.316  13.783  0.00  0.00    +0.000 OA
ATOM     31  C   UNL     1      45.856   4.988  12.624  0.00  0.00    +0.000 A 
ATOM     32  H   UNL     1      45.517   1.734  12.820  0.00  0.00    +0.000 HD
ENDBRANCH  19  22
ENDBRANCH   1  20
TORSDOF 5
ENDMDL
