MODEL 1
REMARK VINA RESULT:    -8.884      0.000      0.000
REMARK INTER + INTRA:         -12.265
REMARK INTER:                 -11.741
REMARK INTRA:                  -0.525
REMARK UNBOUND:                -0.525
REMARK  Name = 
REMARK  7 active torsions:
REMARK  status: ('A' for Active; 'I' for Inactive)
REMARK    1  A    between atoms: C_1  and  C_2
REMARK    2  A    between atoms: C_2  and  O_3
REMARK    3  A    between atoms: C_5  and  N_6
REMARK    4  A    between atoms: C_9  and  C_10
REMARK    5  A    between atoms: C_10  and  C_13
REMARK    6  A    between atoms: C_13  and  N_14
REMARK    7  A    between atoms: C_18  and  C_19
REMARK                            x       y       z     vdW  Elec       q    Type
REMARK                         _______ _______ _______ _____ _____    ______ ____
ROOT
ATOM      1  C   UNL     1      43.777   5.891  11.816  0.00  0.00    +0.000 C 
ATOM      2  F   UNL     1      42.843   5.484  12.728  0.00  0.00    +0.000 F 
ATOM      3  F   UNL     1      43.517   7.224  11.616  0.00  0.00    +0.000 F 
ENDROOT
BRANCH   1   7
ATOM      4  N   UNL     1      46.766   3.747  15.086  0.00  0.00    +0.000 N 
ATOM      5  C   UNL     1      46.636   4.624  13.987  0.00  0.00    +0.000 A 
ATOM      6  C   UNL     1      45.376   4.784  13.417  0.00  0.00    +0.000 A 
ATOM      7  C   UNL     1      45.185   5.693  12.364  0.00  0.00    +0.000 A 
ATOM      8  C   UNL     1      46.311   6.378  11.895  0.00  0.00    +0.000 A 
ATOM      9  C   UNL     1      47.533   6.146  12.505  0.00  0.00    +0.000 A 
ATOM     10  N   UNL     1      47.710   5.306  13.543  0.00  0.00    +0.000 NA
ATOM     11  H   UNL     1      46.588   2.800  14.756  0.00  0.00    +0.000 HD
BRANCH   4  15
ATOM     12  C   UNL     1      47.689   5.254  19.137  0.00  0.00    +0.000 C 
ATOM     13  C   UNL     1      48.325   4.552  17.947  0.00  0.00    +0.000 C 
ATOM     14  C   UNL     1      48.051   5.231  16.581  0.00  0.00    +0.000 C 
ATOM     15  C   UNL     1      47.889   3.815  15.977  0.00  0.00    +0.000 C 
ATOM     16  C   UNL     1      47.542   3.323  17.402  0.00  0.00    +0.000 C 
BRANCH  13  17
ATOM     17  O   UNL     1      49.718   4.297  18.241  0.00  0.00    +0.000 OA
ATOM     18  H   UNL     1      49.996   3.632  17.587  0.00  0.00    +0.000 HD
ENDBRANCH  13  17
ENDBRANCH   4  15
ENDBRANCH   1   7
BRANCH   1  19
ATOM     19  C   UNL     1      43.504   5.168  10.473  0.00  0.00    +0.000 C 
BRANCH  19  20
ATOM     20  N   UNL     1      43.841   3.723  10.456  0.00  0.00    +0.000 N 
ATOM     21  C   UNL     1      44.746   3.394   9.428  0.00  0.00    +0.000 A 
ATOM     22  C   UNL     1      45.190   2.074   9.267  0.00  0.00    +0.000 A 
ATOM     23  N   UNL     1      46.066   1.670   8.302  0.00  0.00    +0.000 NA
ATOM     24  C   UNL     1      46.510   2.673   7.494  0.00  0.00    +0.000 A 
ATOM     25  C   UNL     1      46.101   3.984   7.653  0.00  0.00    +0.000 A 
ATOM     26  N   UNL     1      45.223   4.365   8.616  0.00  0.00    +0.000 NA
ATOM     27  H   UNL     1      43.008   3.141  10.396  0.00  0.00    +0.000 HD
BRANCH  24  28
ATOM     28  C   UNL     1      47.456   2.333   6.395  0.00  0.00    +0.000 C 
ATOM     29  N   UNL     1      47.365   3.097   5.263  0.00  0.00    +0.000 N 
ATOM     30  O   UNL     1      48.273   1.429   6.496  0.00  0.00    +0.000 OA
ATOM     31  H   UNL     1      46.680   3.841   5.199  0.00  0.00    +0.000 HD
ATOM     32  H   UNL     1      47.990   2.912   4.494  0.00  0.00    +0.000 HD
ENDBRANCH  24  28
ENDBRANCH  19  20
ENDBRANCH   1  19
TORSDOF 6
ENDMDL
MODEL 2
REMARK VINA RESULT:    -8.748      2.491      3.797
REMARK INTER + INTRA:         -12.086
REMARK INTER:                 -11.167
REMARK INTRA:                  -0.918
REMARK UNBOUND:                -0.525
REMARK  Name = 
REMARK  7 active torsions:
REMARK  status: ('A' for Active; 'I' for Inactive)
REMARK    1  A    between atoms: C_1  and  C_2
REMARK    2  A    between atoms: C_2  and  O_3
REMARK    3  A    between atoms: C_5  and  N_6
REMARK    4  A    between atoms: C_9  and  C_10
REMARK    5  A    between atoms: C_10  and  C_13
REMARK    6  A    between atoms: C_13  and  N_14
REMARK    7  A    between atoms: C_18  and  C_19
REMARK                            x       y       z     vdW  Elec       q    Type
REMARK                         _______ _______ _______ _____ _____    ______ ____
ROOT
ATOM      1  C   UNL     1      43.533   5.335  12.290  0.00  0.00    +0.000 C 
ATOM      2  F   UNL     1      42.652   4.920  13.251  0.00  0.00    +0.000 F 
ATOM      3  F   UNL     1      43.212   6.650  12.062  0.00  0.00    +0.000 F 
ENDROOT
BRANCH   1   7
ATOM      4  N   UNL     1      47.924   7.419  13.066  0.00  0.00    +0.000 N 
ATOM      5  C   UNL     1      47.123   6.260  13.160  0.00  0.00    +0.000 A 
ATOM      6  C   UNL     1      45.788   6.350  12.773  0.00  0.00    +0.000 A 
ATOM      7  C   UNL     1      44.967   5.209  12.788  0.00  0.00    +0.000 A 
ATOM      8  C   UNL     1      45.535   4.017  13.247  0.00  0.00    +0.000 A 
ATOM      9  C   UNL     1      46.866   4.017  13.632  0.00  0.00    +0.000 A 
ATOM     10  N   UNL     1      47.666   5.100  13.578  0.00  0.00    +0.000 NA
ATOM     11  H   UNL     1      47.579   8.096  13.743  0.00  0.00    +0.000 HD
BRANCH   4  15
ATOM     12  C   UNL     1      51.343   9.817  11.619  0.00  0.00    +0.000 C 
ATOM     13  C   UNL     1      51.011   8.519  12.339  0.00  0.00    +0.000 C 
ATOM     14  C   UNL     1      49.926   7.659  11.643  0.00  0.00    +0.000 C 
ATOM     15  C   UNL     1      49.357   7.344  13.047  0.00  0.00    +0.000 C 
ATOM     16  C   UNL     1      50.022   8.654  13.533  0.00  0.00    +0.000 C 
BRANCH  13  17
ATOM     17  O   UNL     1      52.240   7.826  12.652  0.00  0.00    +0.000 OA
ATOM     18  H   UNL     1      52.774   7.878  11.839  0.00  0.00    +0.000 HD
ENDBRANCH  13  17
ENDBRANCH   4  15
ENDBRANCH   1   7
BRANCH   1  19
ATOM     19  C   UNL     1      43.237   4.560  10.981  0.00  0.00    +0.000 C 
BRANCH  19  20
ATOM     20  N   UNL     1      43.980   5.035   9.787  0.00  0.00    +0.000 N 
ATOM     21  C   UNL     1      44.747   4.017   9.190  0.00  0.00    +0.000 A 
ATOM     22  C   UNL     1      45.506   4.278   8.041  0.00  0.00    +0.000 A 
ATOM     23  N   UNL     1      46.273   3.351   7.399  0.00  0.00    +0.000 NA
ATOM     24  C   UNL     1      46.233   2.109   7.956  0.00  0.00    +0.000 A 
ATOM     25  C   UNL     1      45.472   1.827   9.076  0.00  0.00    +0.000 A 
ATOM     26  N   UNL     1      44.720   2.766   9.704  0.00  0.00    +0.000 NA
ATOM     27  H   UNL     1      44.564   5.841  10.001  0.00  0.00    +0.000 HD
BRANCH  24  28
ATOM     28  C   UNL     1      47.053   1.028   7.340  0.00  0.00    +0.000 C 
ATOM     29  N   UNL     1      46.705  -0.255   7.669  0.00  0.00    +0.000 N 
ATOM     30  O   UNL     1      47.979   1.267   6.579  0.00  0.00    +0.000 OA
ATOM     31  H   UNL     1      45.934  -0.431   8.303  0.00  0.00    +0.000 HD
ATOM     32  H   UNL     1      47.223  -1.022   7.272  0.00  0.00    +0.000 HD
ENDBRANCH  24  28
ENDBRANCH  19  20
ENDBRANCH   1  19
TORSDOF 6
ENDMDL
MODEL 3
REMARK VINA RESULT:    -8.210      2.149      2.807
REMARK INTER + INTRA:         -11.375
REMARK INTER:                 -10.996
REMARK INTRA:                  -0.379
REMARK UNBOUND:                -0.525
REMARK  Name = 
REMARK  7 active torsions:
REMARK  status: ('A' for Active; 'I' for Inactive)
REMARK    1  A    between atoms: C_1  and  C_2
REMARK    2  A    between atoms: C_2  and  O_3
REMARK    3  A    between atoms: C_5  and  N_6
REMARK    4  A    between atoms: C_9  and  C_10
REMARK    5  A    between atoms: C_10  and  C_13
REMARK    6  A    between atoms: C_13  and  N_14
REMARK    7  A    between atoms: C_18  and  C_19
REMARK                            x       y       z     vdW  Elec       q    Type
REMARK                         _______ _______ _______ _____ _____    ______ ____
ROOT
ATOM      1  C   UNL     1      43.736   4.607  12.378  0.00  0.00    +0.000 C 
ATOM      2  F   UNL     1      44.267   3.401  12.745  0.00  0.00    +0.000 F 
ATOM      3  F   UNL     1      42.649   4.777  13.200  0.00  0.00    +0.000 F 
ENDROOT
BRANCH   1   7
ATOM      4  N   UNL     1      47.910   6.182  14.458  0.00  0.00    +0.000 N 
ATOM      5  C   UNL     1      46.809   6.478  13.624  0.00  0.00    +0.000 A 
ATOM      6  C   UNL     1      45.893   5.463  13.358  0.00  0.00    +0.000 A 
ATOM      7  C   UNL     1      44.749   5.725  12.587  0.00  0.00    +0.000 A 
ATOM      8  C   UNL     1      44.606   7.017  12.070  0.00  0.00    +0.000 A 
ATOM      9  C   UNL     1      45.573   7.964  12.366  0.00  0.00    +0.000 A 
ATOM     10  N   UNL     1      46.649   7.725  13.141  0.00  0.00    +0.000 NA
ATOM     11  H   UNL     1      48.505   5.516  13.970  0.00  0.00    +0.000 HD
BRANCH   4  15
ATOM     12  C   UNL     1      51.946   6.765  16.161  0.00  0.00    +0.000 C 
ATOM     13  C   UNL     1      50.628   7.489  15.932  0.00  0.00    +0.000 C 
ATOM     14  C   UNL     1      49.375   6.692  16.377  0.00  0.00    +0.000 C 
ATOM     15  C   UNL     1      48.662   7.217  15.107  0.00  0.00    +0.000 C 
ATOM     16  C   UNL     1      50.065   7.406  14.483  0.00  0.00    +0.000 C 
BRANCH  13  17
ATOM     17  O   UNL     1      50.727   8.829  16.463  0.00  0.00    +0.000 OA
ATOM     18  H   UNL     1      51.530   9.203  16.058  0.00  0.00    +0.000 HD
ENDBRANCH  13  17
ENDBRANCH   4  15
ENDBRANCH   1   7
BRANCH   1  19
ATOM     19  C   UNL     1      43.197   4.490  10.930  0.00  0.00    +0.000 C 
BRANCH  19  20
ATOM     20  N   UNL     1      44.098   5.024   9.879  0.00  0.00    +0.000 N 
ATOM     21  C   UNL     1      44.842   4.013   9.243  0.00  0.00    +0.000 A 
ATOM     22  C   UNL     1      45.738   4.329   8.212  0.00  0.00    +0.000 A 
ATOM     23  N   UNL     1      46.493   3.412   7.541  0.00  0.00    +0.000 NA
ATOM     24  C   UNL     1      46.297   2.125   7.941  0.00  0.00    +0.000 A 
ATOM     25  C   UNL     1      45.400   1.792   8.940  0.00  0.00    +0.000 A 
ATOM     26  N   UNL     1      44.662   2.720   9.599  0.00  0.00    +0.000 NA
ATOM     27  H   UNL     1      44.718   5.746  10.243  0.00  0.00    +0.000 HD
BRANCH  24  28
ATOM     28  C   UNL     1      47.089   1.049   7.284  0.00  0.00    +0.000 C 
ATOM     29  N   UNL     1      46.795  -0.234   7.662  0.00  0.00    +0.000 N 
ATOM     30  O   UNL     1      47.949   1.291   6.449  0.00  0.00    +0.000 OA
ATOM     31  H   UNL     1      46.079  -0.413   8.357  0.00  0.00    +0.000 HD
ATOM     32  H   UNL     1      47.298  -0.999   7.240  0.00  0.00    +0.000 HD
ENDBRANCH  24  28
ENDBRANCH  19  20
ENDBRANCH   1  19
TORSDOF 6
ENDMDL
MODEL 4
REMARK VINA RESULT:    -7.470      3.296      3.999
REMARK INTER + INTRA:         -10.396
REMARK INTER:                  -9.620
REMARK INTRA:                  -0.777
REMARK UNBOUND:                -0.525
REMARK  Name = 
REMARK  7 active torsions:
REMARK  status: ('A' for Active; 'I' for Inactive)
REMARK    1  A    between atoms: C_1  and  C_2
REMARK    2  A    between atoms: C_2  and  O_3
REMARK    3  A    between atoms: C_5  and  N_6
REMARK    4  A    between atoms: C_9  and  C_10
REMARK    5  A    between atoms: C_10  and  C_13
REMARK    6  A    between atoms: C_13  and  N_14
REMARK    7  A    between atoms: C_18  and  C_19
REMARK                            x       y       z     vdW  Elec       q    Type
REMARK                         _______ _______ _______ _____ _____    ______ ____
ROOT
ATOM      1  C   UNL     1      44.200   5.081  12.287  0.00  0.00    +0.000 C 
ATOM      2  F   UNL     1      44.980   4.100  12.835  0.00  0.00    +0.000 F 
ATOM      3  F   UNL     1      43.181   5.265  13.189  0.00  0.00    +0.000 F 
ENDROOT
BRANCH   1   7
ATOM      4  N   UNL     1      48.559   7.368  12.271  0.00  0.00    +0.000 N 
ATOM      5  C   UNL     1      47.160   7.469  12.106  0.00  0.00    +0.000 A 
ATOM      6  C   UNL     1      46.400   6.306  12.201  0.00  0.00    +0.000 A 
ATOM      7  C   UNL     1      44.999   6.365  12.107  0.00  0.00    +0.000 A 
ATOM      8  C   UNL     1      44.425   7.618  11.869  0.00  0.00    +0.000 A 
ATOM      9  C   UNL     1      45.254   8.723  11.768  0.00  0.00    +0.000 A 
ATOM     10  N   UNL     1      46.594   8.674  11.900  0.00  0.00    +0.000 NA
ATOM     11  H   UNL     1      48.931   6.836  11.487  0.00  0.00    +0.000 HD
BRANCH   4  15
ATOM     12  C   UNL     1      52.840   8.395  12.655  0.00  0.00    +0.000 C 
ATOM     13  C   UNL     1      51.449   8.999  12.774  0.00  0.00    +0.000 C 
ATOM     14  C   UNL     1      50.460   8.165  13.627  0.00  0.00    +0.000 C 
ATOM     15  C   UNL     1      49.364   8.511  12.590  0.00  0.00    +0.000 C 
ATOM     16  C   UNL     1      50.502   8.735  11.567  0.00  0.00    +0.000 C 
BRANCH  13  17
ATOM     17  O   UNL     1      51.569  10.389  13.151  0.00  0.00    +0.000 OA
ATOM     18  H   UNL     1      52.392  10.695  12.731  0.00  0.00    +0.000 HD
ENDBRANCH  13  17
ENDBRANCH   4  15
ENDBRANCH   1   7
BRANCH   1  19
ATOM     19  C   UNL     1      43.562   4.534  10.985  0.00  0.00    +0.000 C 
BRANCH  19  20
ATOM     20  N   UNL     1      43.927   3.137  10.643  0.00  0.00    +0.000 N 
ATOM     21  C   UNL     1      44.784   3.062   9.529  0.00  0.00    +0.000 A 
ATOM     22  C   UNL     1      45.246   1.822   9.068  0.00  0.00    +0.000 A 
ATOM     23  N   UNL     1      46.080   1.660   8.000  0.00  0.00    +0.000 NA
ATOM     24  C   UNL     1      46.461   2.825   7.407  0.00  0.00    +0.000 A 
ATOM     25  C   UNL     1      46.034   4.059   7.862  0.00  0.00    +0.000 A 
ATOM     26  N   UNL     1      45.199   4.199   8.923  0.00  0.00    +0.000 NA
ATOM     27  H   UNL     1      43.104   2.555  10.498  0.00  0.00    +0.000 HD
BRANCH  24  28
ATOM     28  C   UNL     1      47.356   2.756   6.218  0.00  0.00    +0.000 C 
ATOM     29  N   UNL     1      48.664   2.436   6.465  0.00  0.00    +0.000 N 
ATOM     30  O   UNL     1      46.950   2.966   5.084  0.00  0.00    +0.000 OA
ATOM     31  H   UNL     1      48.981   2.267   7.413  0.00  0.00    +0.000 HD
ATOM     32  H   UNL     1      49.308   2.368   5.693  0.00  0.00    +0.000 HD
ENDBRANCH  24  28
ENDBRANCH  19  20
ENDBRANCH   1  19
TORSDOF 6
ENDMDL
MODEL 5
REMARK VINA RESULT:    -7.215      2.917      8.280
REMARK INTER + INTRA:         -10.059
REMARK INTER:                  -9.329
REMARK INTRA:                  -0.731
REMARK UNBOUND:                -0.525
REMARK  Name = 
REMARK  7 active torsions:
REMARK  status: ('A' for Active; 'I' for Inactive)
REMARK    1  A    between atoms: C_1  and  C_2
REMARK    2  A    between atoms: C_2  and  O_3
REMARK    3  A    between atoms: C_5  and  N_6
REMARK    4  A    between atoms: C_9  and  C_10
REMARK    5  A    between atoms: C_10  and  C_13
REMARK    6  A    between atoms: C_13  and  N_14
REMARK    7  A    between atoms: C_18  and  C_19
REMARK                            x       y       z     vdW  Elec       q    Type
REMARK                         _______ _______ _______ _____ _____    ______ ____
ROOT
ATOM      1  C   UNL     1      47.946   8.678  13.788  0.00  0.00    +0.000 C 
ATOM      2  F   UNL     1      48.443   9.866  13.326  0.00  0.00    +0.000 F 
ATOM      3  F   UNL     1      47.532   8.945  15.070  0.00  0.00    +0.000 F 
ENDROOT
BRANCH   1   7
ATOM      4  N   UNL     1      45.639   5.037  11.412  0.00  0.00    +0.000 N 
ATOM      5  C   UNL     1      45.658   6.403  11.767  0.00  0.00    +0.000 A 
ATOM      6  C   UNL     1      46.678   6.854  12.601  0.00  0.00    +0.000 A 
ATOM      7  C   UNL     1      46.775   8.216  12.930  0.00  0.00    +0.000 A 
ATOM      8  C   UNL     1      45.788   9.070  12.427  0.00  0.00    +0.000 A 
ATOM      9  C   UNL     1      44.797   8.538  11.619  0.00  0.00    +0.000 A 
ATOM     10  N   UNL     1      44.726   7.239  11.268  0.00  0.00    +0.000 NA
ATOM     11  H   UNL     1      45.445   4.496  12.253  0.00  0.00    +0.000 HD
BRANCH   4  15
ATOM     12  C   UNL     1      46.338   2.554   7.823  0.00  0.00    +0.000 C 
ATOM     13  C   UNL     1      45.256   3.355   8.533  0.00  0.00    +0.000 C 
ATOM     14  C   UNL     1      45.691   4.780   8.958  0.00  0.00    +0.000 C 
ATOM     15  C   UNL     1      44.905   4.564  10.274  0.00  0.00    +0.000 C 
ATOM     16  C   UNL     1      45.083   3.044  10.048  0.00  0.00    +0.000 C 
BRANCH  13  17
ATOM     17  O   UNL     1      44.036   3.287   7.761  0.00  0.00    +0.000 OA
ATOM     18  H   UNL     1      43.884   4.196   7.448  0.00  0.00    +0.000 HD
ENDBRANCH  13  17
ENDBRANCH   4  15
ENDBRANCH   1   7
BRANCH   1  19
ATOM     19  C   UNL     1      49.110   7.660  13.889  0.00  0.00    +0.000 C 
BRANCH  19  20
ATOM     20  N   UNL     1      49.715   7.527  15.237  0.00  0.00    +0.000 N 
ATOM     21  C   UNL     1      49.194   6.434  15.955  0.00  0.00    +0.000 A 
ATOM     22  C   UNL     1      49.658   6.144  17.246  0.00  0.00    +0.000 A 
ATOM     23  N   UNL     1      49.211   5.105  18.008  0.00  0.00    +0.000 NA
ATOM     24  C   UNL     1      48.269   4.331  17.402  0.00  0.00    +0.000 A 
ATOM     25  C   UNL     1      47.816   4.588  16.120  0.00  0.00    +0.000 A 
ATOM     26  N   UNL     1      48.269   5.632  15.380  0.00  0.00    +0.000 NA
ATOM     27  H   UNL     1      49.623   8.385  15.779  0.00  0.00    +0.000 HD
BRANCH  24  28
ATOM     28  C   UNL     1      47.701   3.180  18.158  0.00  0.00    +0.000 C 
ATOM     29  N   UNL     1      48.275   2.914  19.373  0.00  0.00    +0.000 N 
ATOM     30  O   UNL     1      46.772   2.513  17.727  0.00  0.00    +0.000 OA
ATOM     31  H   UNL     1      49.045   3.480  19.712  0.00  0.00    +0.000 HD
ATOM     32  H   UNL     1      47.920   2.151  19.927  0.00  0.00    +0.000 HD
ENDBRANCH  24  28
ENDBRANCH  19  20
ENDBRANCH   1  19
TORSDOF 6
ENDMDL
MODEL 6
REMARK VINA RESULT:    -7.043      3.518      8.445
REMARK INTER + INTRA:          -9.832
REMARK INTER:                  -9.264
REMARK INTRA:                  -0.569
REMARK UNBOUND:                -0.525
REMARK  Name = 
REMARK  7 active torsions:
REMARK  status: ('A' for Active; 'I' for Inactive)
REMARK    1  A    between atoms: C_1  and  C_2
REMARK    2  A    between atoms: C_2  and  O_3
REMARK    3  A    between atoms: C_5  and  N_6
REMARK    4  A    between atoms: C_9  and  C_10
REMARK    5  A    between atoms: C_10  and  C_13
REMARK    6  A    between atoms: C_13  and  N_14
REMARK    7  A    between atoms: C_18  and  C_19
REMARK                            x       y       z     vdW  Elec       q    Type
REMARK                         _______ _______ _______ _____ _____    ______ ____
ROOT
ATOM      1  C   UNL     1      49.090   7.830  14.779  0.00  0.00    +0.000 C 
ATOM      2  F   UNL     1      50.044   7.038  14.204  0.00  0.00    +0.000 F 
ATOM      3  F   UNL     1      49.608   9.101  14.726  0.00  0.00    +0.000 F 
ENDROOT
BRANCH   1   7
ATOM      4  N   UNL     1      45.908   5.149  12.150  0.00  0.00    +0.000 N 
ATOM      5  C   UNL     1      46.231   6.405  12.707  0.00  0.00    +0.000 A 
ATOM      6  C   UNL     1      47.386   6.507  13.479  0.00  0.00    +0.000 A 
ATOM      7  C   UNL     1      47.783   7.749  14.001  0.00  0.00    +0.000 A 
ATOM      8  C   UNL     1      46.950   8.845  13.753  0.00  0.00    +0.000 A 
ATOM      9  C   UNL     1      45.808   8.654  12.992  0.00  0.00    +0.000 A 
ATOM     10  N   UNL     1      45.448   7.473  12.455  0.00  0.00    +0.000 NA
ATOM     11  H   UNL     1      45.680   4.515  12.913  0.00  0.00    +0.000 HD
BRANCH   4  15
ATOM     12  C   UNL     1      45.809   3.281   8.146  0.00  0.00    +0.000 C 
ATOM     13  C   UNL     1      44.965   4.113   9.100  0.00  0.00    +0.000 C 
ATOM     14  C   UNL     1      45.698   5.340   9.698  0.00  0.00    +0.000 C 
ATOM     15  C   UNL     1      45.001   5.026  11.044  0.00  0.00    +0.000 C 
ATOM     16  C   UNL     1      44.867   3.565  10.553  0.00  0.00    +0.000 C 
BRANCH  13  17
ATOM     17  O   UNL     1      43.693   4.398   8.476  0.00  0.00    +0.000 OA
ATOM     18  H   UNL     1      43.876   5.114   7.843  0.00  0.00    +0.000 HD
ENDBRANCH  13  17
ENDBRANCH   4  15
ENDBRANCH   1   7
BRANCH   1  19
ATOM     19  C   UNL     1      48.970   7.450  16.277  0.00  0.00    +0.000 C 
BRANCH  19  20
ATOM     20  N   UNL     1      48.294   6.157  16.546  0.00  0.00    +0.000 N 
ATOM     21  C   UNL     1      49.201   5.136  16.885  0.00  0.00    +0.000 A 
ATOM     22  C   UNL     1      48.741   3.846  17.186  0.00  0.00    +0.000 A 
ATOM     23  N   UNL     1      49.550   2.802  17.526  0.00  0.00    +0.000 NA
ATOM     24  C   UNL     1      50.875   3.113  17.575  0.00  0.00    +0.000 A 
ATOM     25  C   UNL     1      51.345   4.385  17.305  0.00  0.00    +0.000 A 
ATOM     26  N   UNL     1      50.524   5.410  16.962  0.00  0.00    +0.000 NA
ATOM     27  H   UNL     1      47.707   5.868  15.765  0.00  0.00    +0.000 HD
BRANCH  24  28
ATOM     28  C   UNL     1      51.845   2.035  17.919  0.00  0.00    +0.000 C 
ATOM     29  N   UNL     1      51.420   0.751  17.708  0.00  0.00    +0.000 N 
ATOM     30  O   UNL     1      52.959   2.279  18.359  0.00  0.00    +0.000 OA
ATOM     31  H   UNL     1      50.492   0.570  17.343  0.00  0.00    +0.000 HD
ATOM     32  H   UNL     1      52.043  -0.013  17.916  0.00  0.00    +0.000 HD
ENDBRANCH  24  28
ENDBRANCH  19  20
ENDBRANCH   1  19
TORSDOF 6
ENDMDL
MODEL 7
REMARK VINA RESULT:    -6.605      3.719      8.350
REMARK INTER + INTRA:          -9.253
REMARK INTER:                  -8.579
REMARK INTRA:                  -0.675
REMARK UNBOUND:                -0.525
REMARK  Name = 
REMARK  7 active torsions:
REMARK  status: ('A' for Active; 'I' for Inactive)
REMARK    1  A    between atoms: C_1  and  C_2
REMARK    2  A    between atoms: C_2  and  O_3
REMARK    3  A    between atoms: C_5  and  N_6
REMARK    4  A    between atoms: C_9  and  C_10
REMARK    5  A    between atoms: C_10  and  C_13
REMARK    6  A    between atoms: C_13  and  N_14
REMARK    7  A    between atoms: C_18  and  C_19
REMARK                            x       y       z     vdW  Elec       q    Type
REMARK                         _______ _______ _______ _____ _____    ______ ____
ROOT
ATOM      1  C   UNL     1      49.768   8.571  12.256  0.00  0.00    +0.000 C 
ATOM      2  F   UNL     1      50.329   7.921  11.192  0.00  0.00    +0.000 F 
ATOM      3  F   UNL     1      49.917   9.906  11.971  0.00  0.00    +0.000 F 
ENDROOT
BRANCH   1   7
ATOM      4  N   UNL     1      46.299   5.113  12.744  0.00  0.00    +0.000 N 
ATOM      5  C   UNL     1      46.603   6.486  12.628  0.00  0.00    +0.000 A 
ATOM      6  C   UNL     1      47.943   6.862  12.567  0.00  0.00    +0.000 A 
ATOM      7  C   UNL     1      48.294   8.211  12.388  0.00  0.00    +0.000 A 
ATOM      8  C   UNL     1      47.252   9.142  12.326  0.00  0.00    +0.000 A 
ATOM      9  C   UNL     1      45.946   8.687  12.414  0.00  0.00    +0.000 A 
ATOM     10  N   UNL     1      45.607   7.389  12.543  0.00  0.00    +0.000 NA
ATOM     11  H   UNL     1      46.625   4.793  13.654  0.00  0.00    +0.000 HD
BRANCH   4  15
ATOM     12  C   UNL     1      44.459   2.482   9.706  0.00  0.00    +0.000 C 
ATOM     13  C   UNL     1      44.118   3.317  10.931  0.00  0.00    +0.000 C 
ATOM     14  C   UNL     1      44.692   4.756  10.905  0.00  0.00    +0.000 C 
ATOM     15  C   UNL     1      45.001   4.597  12.413  0.00  0.00    +0.000 C 
ATOM     16  C   UNL     1      45.017   3.069  12.178  0.00  0.00    +0.000 C 
BRANCH  13  17
ATOM     17  O   UNL     1      42.698   3.224  11.185  0.00  0.00    +0.000 OA
ATOM     18  H   UNL     1      42.343   2.700  10.446  0.00  0.00    +0.000 HD
ENDBRANCH  13  17
ENDBRANCH   4  15
ENDBRANCH   1   7
BRANCH   1  19
ATOM     19  C   UNL     1      50.617   8.277  13.519  0.00  0.00    +0.000 C 
BRANCH  19  20
ATOM     20  N   UNL     1      50.156   8.950  14.758  0.00  0.00    +0.000 N 
ATOM     21  C   UNL     1      49.616   8.046  15.693  0.00  0.00    +0.000 A 
ATOM     22  C   UNL     1      49.141   8.501  16.931  0.00  0.00    +0.000 A 
ATOM     23  N   UNL     1      48.608   7.695  17.893  0.00  0.00    +0.000 NA
ATOM     24  C   UNL     1      48.587   6.373  17.567  0.00  0.00    +0.000 A 
ATOM     25  C   UNL     1      49.073   5.903  16.360  0.00  0.00    +0.000 A 
ATOM     26  N   UNL     1      49.595   6.723  15.413  0.00  0.00    +0.000 NA
ATOM     27  H   UNL     1      49.490   9.695  14.558  0.00  0.00    +0.000 HD
BRANCH  24  28
ATOM     28  C   UNL     1      48.006   5.410  18.543  0.00  0.00    +0.000 C 
ATOM     29  N   UNL     1      46.658   5.512  18.763  0.00  0.00    +0.000 N 
ATOM     30  O   UNL     1      48.687   4.569  19.113  0.00  0.00    +0.000 OA
ATOM     31  H   UNL     1      46.111   6.217  18.281  0.00  0.00    +0.000 HD
ATOM     32  H   UNL     1      46.215   4.877  19.408  0.00  0.00    +0.000 HD
ENDBRANCH  24  28
ENDBRANCH  19  20
ENDBRANCH   1  19
TORSDOF 6
ENDMDL
MODEL 8
REMARK VINA RESULT:    -6.326      4.323      8.439
REMARK INTER + INTRA:          -8.885
REMARK INTER:                  -7.998
REMARK INTRA:                  -0.887
REMARK UNBOUND:                -0.525
REMARK  Name = 
REMARK  7 active torsions:
REMARK  status: ('A' for Active; 'I' for Inactive)
REMARK    1  A    between atoms: C_1  and  C_2
REMARK    2  A    between atoms: C_2  and  O_3
REMARK    3  A    between atoms: C_5  and  N_6
REMARK    4  A    between atoms: C_9  and  C_10
REMARK    5  A    between atoms: C_10  and  C_13
REMARK    6  A    between atoms: C_13  and  N_14
REMARK    7  A    between atoms: C_18  and  C_19
REMARK                            x       y       z     vdW  Elec       q    Type
REMARK                         _______ _______ _______ _____ _____    ______ ____
ROOT
ATOM      1  C   UNL     1      50.363   9.079  14.168  0.00  0.00    +0.000 C 
ATOM      2  F   UNL     1      51.139   8.149  13.534  0.00  0.00    +0.000 F 
ATOM      3  F   UNL     1      51.035  10.266  14.007  0.00  0.00    +0.000 F 
ENDROOT
BRANCH   1   7
ATOM      4  N   UNL     1      46.049   6.918  13.196  0.00  0.00    +0.000 N 
ATOM      5  C   UNL     1      46.864   8.063  13.064  0.00  0.00    +0.000 A 
ATOM      6  C   UNL     1      48.110   8.061  13.686  0.00  0.00    +0.000 A 
ATOM      7  C   UNL     1      48.982   9.151  13.530  0.00  0.00    +0.000 A 
ATOM      8  C   UNL     1      48.524  10.236  12.775  0.00  0.00    +0.000 A 
ATOM      9  C   UNL     1      47.263  10.167  12.206  0.00  0.00    +0.000 A 
ATOM     10  N   UNL     1      46.443   9.104  12.319  0.00  0.00    +0.000 NA
ATOM     11  H   UNL     1      45.771   6.840  14.172  0.00  0.00    +0.000 HD
BRANCH   4  15
ATOM     12  C   UNL     1      44.469   3.550  10.810  0.00  0.00    +0.000 C 
ATOM     13  C   UNL     1      44.206   5.011  11.138  0.00  0.00    +0.000 C 
ATOM     14  C   UNL     1      45.449   5.929  11.016  0.00  0.00    +0.000 C 
ATOM     15  C   UNL     1      44.964   6.656  12.293  0.00  0.00    +0.000 C 
ATOM     16  C   UNL     1      44.197   5.363  12.655  0.00  0.00    +0.000 C 
BRANCH  13  17
ATOM     17  O   UNL     1      43.038   5.454  10.411  0.00  0.00    +0.000 OA
ATOM     18  H   UNL     1      42.280   5.158  10.945  0.00  0.00    +0.000 HD
ENDBRANCH  13  17
ENDBRANCH   4  15
ENDBRANCH   1   7
BRANCH   1  19
ATOM     19  C   UNL     1      50.354   8.764  15.685  0.00  0.00    +0.000 C 
BRANCH  19  20
ATOM     20  N   UNL     1      51.112   7.551  16.081  0.00  0.00    +0.000 N 
ATOM     21  C   UNL     1      50.276   6.528  16.567  0.00  0.00    +0.000 A 
ATOM     22  C   UNL     1      50.815   5.301  16.976  0.00  0.00    +0.000 A 
ATOM     23  N   UNL     1      50.078   4.258  17.455  0.00  0.00    +0.000 NA
ATOM     24  C   UNL     1      48.737   4.491  17.491  0.00  0.00    +0.000 A 
ATOM     25  C   UNL     1      48.184   5.686  17.070  0.00  0.00    +0.000 A 
ATOM     26  N   UNL     1      48.936   6.715  16.601  0.00  0.00    +0.000 NA
ATOM     27  H   UNL     1      51.842   7.765  16.757  0.00  0.00    +0.000 HD
BRANCH  24  28
ATOM     28  C   UNL     1      47.845   3.420  18.017  0.00  0.00    +0.000 C 
ATOM     29  N   UNL     1      48.181   2.900  19.238  0.00  0.00    +0.000 N 
ATOM     30  O   UNL     1      46.864   3.029  17.401  0.00  0.00    +0.000 OA
ATOM     31  H   UNL     1      48.999   3.238  19.732  0.00  0.00    +0.000 HD
ATOM     32  H   UNL     1      47.603   2.180  19.642  0.00  0.00    +0.000 HD
ENDBRANCH  24  28
ENDBRANCH  19  20
ENDBRANCH   1  19
TORSDOF 6
ENDMDL
MODEL 9
REMARK VINA RESULT:    -6.147      3.970      5.754
REMARK INTER + INTRA:          -8.648
REMARK INTER:                  -7.995
REMARK INTRA:                  -0.653
REMARK UNBOUND:                -0.525
REMARK  Name = 
REMARK  7 active torsions:
REMARK  status: ('A' for Active; 'I' for Inactive)
REMARK    1  A    between atoms: C_1  and  C_2
REMARK    2  A    between atoms: C_2  and  O_3
REMARK    3  A    between atoms: C_5  and  N_6
REMARK    4  A    between atoms: C_9  and  C_10
REMARK    5  A    between atoms: C_10  and  C_13
REMARK    6  A    between atoms: C_13  and  N_14
REMARK    7  A    between atoms: C_18  and  C_19
REMARK                            x       y       z     vdW  Elec       q    Type
REMARK                         _______ _______ _______ _____ _____    ______ ____
ROOT
ATOM      1  C   UNL     1      48.700   8.222  14.910  0.00  0.00    +0.000 C 
ATOM      2  F   UNL     1      47.577   8.951  15.192  0.00  0.00    +0.000 F 
ATOM      3  F   UNL     1      49.559   9.115  14.317  0.00  0.00    +0.000 F 
ENDROOT
BRANCH   1   7
ATOM      4  N   UNL     1      52.107   5.400  17.067  0.00  0.00    +0.000 N 
ATOM      5  C   UNL     1      50.997   6.258  17.225  0.00  0.00    +0.000 A 
ATOM      6  C   UNL     1      50.451   6.846  16.087  0.00  0.00    +0.000 A 
ATOM      7  C   UNL     1      49.308   7.656  16.186  0.00  0.00    +0.000 A 
ATOM      8  C   UNL     1      48.787   7.876  17.466  0.00  0.00    +0.000 A 
ATOM      9  C   UNL     1      49.402   7.269  18.549  0.00  0.00    +0.000 A 
ATOM     10  N   UNL     1      50.474   6.458  18.450  0.00  0.00    +0.000 NA
ATOM     11  H   UNL     1      52.896   5.960  16.748  0.00  0.00    +0.000 HD
BRANCH   4  15
ATOM     12  C   UNL     1      53.907   1.372  17.331  0.00  0.00    +0.000 C 
ATOM     13  C   UNL     1      53.356   2.496  18.195  0.00  0.00    +0.000 C 
ATOM     14  C   UNL     1      51.973   3.031  17.744  0.00  0.00    +0.000 C 
ATOM     15  C   UNL     1      52.480   4.454  18.079  0.00  0.00    +0.000 C 
ATOM     16  C   UNL     1      53.916   3.914  17.882  0.00  0.00    +0.000 C 
BRANCH  13  17
ATOM     17  O   UNL     1      53.443   2.108  19.585  0.00  0.00    +0.000 OA
ATOM     18  H   UNL     1      53.947   1.275  19.584  0.00  0.00    +0.000 HD
ENDBRANCH  13  17
ENDBRANCH   4  15
ENDBRANCH   1   7
BRANCH   1  19
ATOM     19  C   UNL     1      48.342   7.158  13.842  0.00  0.00    +0.000 C 
BRANCH  19  20
ATOM     20  N   UNL     1      47.574   5.993  14.347  0.00  0.00    +0.000 N 
ATOM     21  C   UNL     1      46.656   5.501  13.399  0.00  0.00    +0.000 A 
ATOM     22  C   UNL     1      45.851   4.393  13.696  0.00  0.00    +0.000 A 
ATOM     23  N   UNL     1      44.941   3.851  12.836  0.00  0.00    +0.000 NA
ATOM     24  C   UNL     1      44.881   4.468  11.624  0.00  0.00    +0.000 A 
ATOM     25  C   UNL     1      45.684   5.548  11.304  0.00  0.00    +0.000 A 
ATOM     26  N   UNL     1      46.580   6.076  12.177  0.00  0.00    +0.000 NA
ATOM     27  H   UNL     1      47.101   6.203  15.223  0.00  0.00    +0.000 HD
BRANCH  24  28
ATOM     28  C   UNL     1      43.904   3.964  10.619  0.00  0.00    +0.000 C 
ATOM     29  N   UNL     1      43.920   4.584   9.398  0.00  0.00    +0.000 N 
ATOM     30  O   UNL     1      43.133   3.047  10.863  0.00  0.00    +0.000 OA
ATOM     31  H   UNL     1      44.566   5.343   9.216  0.00  0.00    +0.000 HD
ATOM     32  H   UNL     1      43.284   4.273   8.680  0.00  0.00    +0.000 HD
ENDBRANCH  24  28
ENDBRANCH  19  20
ENDBRANCH   1  19
TORSDOF 6
ENDMDL
