MODEL 1
REMARK VINA RESULT:    -6.864      0.000      0.000
REMARK INTER + INTRA:          -9.877
REMARK INTER:                  -9.271
REMARK INTRA:                  -0.606
REMARK UNBOUND:                -0.606
REMARK  Name = 
REMARK  7 active torsions:
REMARK  status: ('A' for Active; 'I' for Inactive)
REMARK    1  A    between atoms: N_1  and  C_2
REMARK    2  A    between atoms: C_2  and  C_3
REMARK    3  A    between atoms: C_10  and  C_11
REMARK    4  A    between atoms: C_11  and  C_12
REMARK    5  A    between atoms: N_18  and  C_19
REMARK    6  A    between atoms: C_19  and  C_20
REMARK    7  A    between atoms: C_20  and  O_21
REMARK                            x       y       z     vdW  Elec       q    Type
REMARK                         _______ _______ _______ _____ _____    ______ ____
ROOT
ATOM      1  C   UNL     1      46.623   2.540   7.103  0.00  0.00    +0.000 A 
ATOM      2  C   UNL     1      46.017   1.701   8.037  0.00  0.00    +0.000 A 
ATOM      3  N   UNL     1      45.416   2.100   9.176  0.00  0.00    +0.000 NA
ATOM      4  C   UNL     1      45.479   3.425   9.359  0.00  0.00    +0.000 A 
ATOM      5  C   UNL     1      46.101   4.384   8.581  0.00  0.00    +0.000 A 
ATOM      6  C   UNL     1      46.702   3.924   7.395  0.00  0.00    +0.000 A 
ATOM      7  N   UNL     1      45.911   5.644   9.153  0.00  0.00    +0.000 NA
ATOM      8  C   UNL     1      45.105   5.471  10.200  0.00  0.00    +0.000 A 
ATOM      9  N   UNL     1      44.735   4.137  10.276  0.00  0.00    +0.000 N 
ENDROOT
BRANCH   1  10
ATOM     10  C   UNL     1      47.054   1.945   5.790  0.00  0.00    +0.000 C 
BRANCH  10  11
ATOM     11  N   UNL     1      48.503   1.787   5.749  0.00  0.00    +0.000 NA
ATOM     12  H   UNL     1      48.852   1.558   6.678  0.00  0.00    +0.000 HD
ATOM     13  H   UNL     1      48.935   2.673   5.487  0.00  0.00    +0.000 HD
ENDBRANCH  10  11
ENDBRANCH   1  10
BRANCH   8  14
ATOM     14  C   UNL     1      44.502   6.527  11.125  0.00  0.00    +0.000 C 
BRANCH  14  15
ATOM     15  C   UNL     1      45.223   6.796  12.474  0.00  0.00    +0.000 C 
ATOM     16  C   UNL     1      45.316   8.277  12.882  0.00  0.00    +0.000 C 
ATOM     17  C   UNL     1      46.453   9.063  12.219  0.00  0.00    +0.000 C 
ATOM     18  N   UNL     1      47.763   8.428  12.317  0.00  0.00    +0.000 NA
ATOM     19  C   UNL     1      47.749   7.040  11.874  0.00  0.00    +0.000 C 
ATOM     20  C   UNL     1      46.649   6.190  12.515  0.00  0.00    +0.000 C 
ATOM     21  H   UNL     1      48.115   8.490  13.271  0.00  0.00    +0.000 HD
ENDBRANCH  14  15
ENDBRANCH   8  14
BRANCH   9  22
ATOM     22  C   UNL     1      43.615   3.515  10.955  0.00  0.00    +0.000 C 
BRANCH  22  23
ATOM     23  C   UNL     1      43.947   3.096  12.400  0.00  0.00    +0.000 C 
BRANCH  23  24
ATOM     24  O   UNL     1      45.262   2.579  12.590  0.00  0.00    +0.000 OA
ATOM     25  H   UNL     1      45.385   2.356  13.536  0.00  0.00    +0.000 HD
ENDBRANCH  23  24
ENDBRANCH  22  23
ENDBRANCH   9  22
TORSDOF 7
ENDMDL
MODEL 2
REMARK VINA RESULT:    -6.134      4.321      5.973
REMARK INTER + INTRA:          -8.891
REMARK INTER:                  -8.318
REMARK INTRA:                  -0.573
REMARK UNBOUND:                -0.606
REMARK  Name = 
REMARK  7 active torsions:
REMARK  status: ('A' for Active; 'I' for Inactive)
REMARK    1  A    between atoms: N_1  and  C_2
REMARK    2  A    between atoms: C_2  and  C_3
REMARK    3  A    between atoms: C_10  and  C_11
REMARK    4  A    between atoms: C_11  and  C_12
REMARK    5  A    between atoms: N_18  and  C_19
REMARK    6  A    between atoms: C_19  and  C_20
REMARK    7  A    between atoms: C_20  and  O_21
REMARK                            x       y       z     vdW  Elec       q    Type
REMARK                         _______ _______ _______ _____ _____    ______ ____
ROOT
ATOM      1  C   UNL     1      44.935   4.179  10.877  0.00  0.00    +0.000 A 
ATOM      2  C   UNL     1      45.343   5.501  10.705  0.00  0.00    +0.000 A 
ATOM      3  N   UNL     1      46.040   6.230  11.600  0.00  0.00    +0.000 NA
ATOM      4  C   UNL     1      46.293   5.558  12.730  0.00  0.00    +0.000 A 
ATOM      5  C   UNL     1      45.901   4.283  13.094  0.00  0.00    +0.000 A 
ATOM      6  C   UNL     1      45.189   3.555  12.123  0.00  0.00    +0.000 A 
ATOM      7  N   UNL     1      46.391   3.989  14.368  0.00  0.00    +0.000 NA
ATOM      8  C   UNL     1      47.152   5.020  14.733  0.00  0.00    +0.000 A 
ATOM      9  N   UNL     1      47.199   5.941  13.697  0.00  0.00    +0.000 N 
ENDROOT
BRANCH   1  10
ATOM     10  C   UNL     1      44.355   3.457   9.692  0.00  0.00    +0.000 C 
BRANCH  10  11
ATOM     11  N   UNL     1      43.786   4.405   8.741  0.00  0.00    +0.000 NA
ATOM     12  H   UNL     1      44.511   4.737   8.107  0.00  0.00    +0.000 HD
ATOM     13  H   UNL     1      43.442   5.224   9.241  0.00  0.00    +0.000 HD
ENDBRANCH  10  11
ENDBRANCH   1  10
BRANCH   8  14
ATOM     14  C   UNL     1      48.001   5.182  15.993  0.00  0.00    +0.000 C 
BRANCH  14  15
ATOM     15  C   UNL     1      47.780   4.163  17.144  0.00  0.00    +0.000 C 
ATOM     16  C   UNL     1      47.992   4.723  18.561  0.00  0.00    +0.000 C 
ATOM     17  C   UNL     1      49.452   4.791  19.021  0.00  0.00    +0.000 C 
ATOM     18  N   UNL     1      50.197   3.547  18.851  0.00  0.00    +0.000 NA
ATOM     19  C   UNL     1      50.090   3.009  17.501  0.00  0.00    +0.000 C 
ATOM     20  C   UNL     1      48.653   2.893  16.986  0.00  0.00    +0.000 C 
ATOM     21  H   UNL     1      49.889   2.855  19.532  0.00  0.00    +0.000 HD
ENDBRANCH  14  15
ENDBRANCH   8  14
BRANCH   9  22
ATOM     22  C   UNL     1      48.153   7.000  13.431  0.00  0.00    +0.000 C 
BRANCH  22  23
ATOM     23  C   UNL     1      47.726   8.356  14.026  0.00  0.00    +0.000 C 
BRANCH  23  24
ATOM     24  O   UNL     1      46.383   8.740  13.744  0.00  0.00    +0.000 OA
ATOM     25  H   UNL     1      45.932   8.008  13.274  0.00  0.00    +0.000 HD
ENDBRANCH  23  24
ENDBRANCH  22  23
ENDBRANCH   9  22
TORSDOF 7
ENDMDL
MODEL 3
REMARK VINA RESULT:    -5.409      4.425      8.018
REMARK INTER + INTRA:          -7.912
REMARK INTER:                  -7.409
REMARK INTRA:                  -0.503
REMARK UNBOUND:                -0.606
REMARK  Name = 
REMARK  7 active torsions:
REMARK  status: ('A' for Active; 'I' for Inactive)
REMARK    1  A    between atoms: N_1  and  C_2
REMARK    2  A    between atoms: C_2  and  C_3
REMARK    3  A    between atoms: C_10  and  C_11
REMARK    4  A    between atoms: C_11  and  C_12
REMARK    5  A    between atoms: N_18  and  C_19
REMARK    6  A    between atoms: C_19  and  C_20
REMARK    7  A    between atoms: C_20  and  O_21
REMARK                            x       y       z     vdW  Elec       q    Type
REMARK                         _______ _______ _______ _____ _____    ______ ____
ROOT
ATOM      1  C   UNL     1      48.610   4.973  18.370  0.00  0.00    +0.000 A 
ATOM      2  C   UNL     1      49.452   5.841  17.677  0.00  0.00    +0.000 A 
ATOM      3  N   UNL     1      49.370   6.130  16.362  0.00  0.00    +0.000 NA
ATOM      4  C   UNL     1      48.388   5.461  15.745  0.00  0.00    +0.000 A 
ATOM      5  C   UNL     1      47.520   4.515  16.259  0.00  0.00    +0.000 A 
ATOM      6  C   UNL     1      47.632   4.257  17.637  0.00  0.00    +0.000 A 
ATOM      7  N   UNL     1      46.657   4.078  15.252  0.00  0.00    +0.000 NA
ATOM      8  C   UNL     1      46.922   4.814  14.174  0.00  0.00    +0.000 A 
ATOM      9  N   UNL     1      47.900   5.746  14.487  0.00  0.00    +0.000 N 
ENDROOT
BRANCH   1  10
ATOM     10  C   UNL     1      48.712   4.935  19.871  0.00  0.00    +0.000 C 
BRANCH  10  11
ATOM     11  N   UNL     1      48.316   3.626  20.379  0.00  0.00    +0.000 NA
ATOM     12  H   UNL     1      48.006   3.036  19.610  0.00  0.00    +0.000 HD
ATOM     13  H   UNL     1      47.517   3.731  21.004  0.00  0.00    +0.000 HD
ENDBRANCH  10  11
ENDBRANCH   1  10
BRANCH   8  14
ATOM     14  C   UNL     1      46.212   4.817  12.821  0.00  0.00    +0.000 C 
BRANCH  14  15
ATOM     15  C   UNL     1      44.703   5.182  12.802  0.00  0.00    +0.000 C 
ATOM     16  C   UNL     1      43.754   4.059  13.259  0.00  0.00    +0.000 C 
ATOM     17  C   UNL     1      43.423   3.013  12.189  0.00  0.00    +0.000 C 
ATOM     18  N   UNL     1      42.973   3.570  10.917  0.00  0.00    +0.000 NA
ATOM     19  C   UNL     1      43.876   4.591  10.401  0.00  0.00    +0.000 C 
ATOM     20  C   UNL     1      44.232   5.683  11.414  0.00  0.00    +0.000 C 
ATOM     21  H   UNL     1      42.031   3.948  11.011  0.00  0.00    +0.000 HD
ENDBRANCH  14  15
ENDBRANCH   8  14
BRANCH   9  22
ATOM     22  C   UNL     1      48.255   6.986  13.826  0.00  0.00    +0.000 C 
BRANCH  22  23
ATOM     23  C   UNL     1      47.121   8.030  13.857  0.00  0.00    +0.000 C 
BRANCH  23  24
ATOM     24  O   UNL     1      46.565   8.351  12.585  0.00  0.00    +0.000 OA
ATOM     25  H   UNL     1      46.150   7.549  12.205  0.00  0.00    +0.000 HD
ENDBRANCH  23  24
ENDBRANCH  22  23
ENDBRANCH   9  22
TORSDOF 7
ENDMDL
MODEL 4
REMARK VINA RESULT:    -5.249      4.977      6.514
REMARK INTER + INTRA:          -7.696
REMARK INTER:                  -7.250
REMARK INTRA:                  -0.446
REMARK UNBOUND:                -0.606
REMARK  Name = 
REMARK  7 active torsions:
REMARK  status: ('A' for Active; 'I' for Inactive)
REMARK    1  A    between atoms: N_1  and  C_2
REMARK    2  A    between atoms: C_2  and  C_3
REMARK    3  A    between atoms: C_10  and  C_11
REMARK    4  A    between atoms: C_11  and  C_12
REMARK    5  A    between atoms: N_18  and  C_19
REMARK    6  A    between atoms: C_19  and  C_20
REMARK    7  A    between atoms: C_20  and  O_21
REMARK                            x       y       z     vdW  Elec       q    Type
REMARK                         _______ _______ _______ _____ _____    ______ ____
ROOT
ATOM      1  C   UNL     1      45.673   5.018  12.068  0.00  0.00    +0.000 A 
ATOM      2  C   UNL     1      45.757   3.765  12.671  0.00  0.00    +0.000 A 
ATOM      3  N   UNL     1      46.459   3.475  13.785  0.00  0.00    +0.000 NA
ATOM      4  C   UNL     1      47.122   4.534  14.269  0.00  0.00    +0.000 A 
ATOM      5  C   UNL     1      47.211   5.815  13.758  0.00  0.00    +0.000 A 
ATOM      6  C   UNL     1      46.450   6.075  12.603  0.00  0.00    +0.000 A 
ATOM      7  N   UNL     1      48.014   6.596  14.592  0.00  0.00    +0.000 NA
ATOM      8  C   UNL     1      48.326   5.838  15.642  0.00  0.00    +0.000 A 
ATOM      9  N   UNL     1      47.695   4.608  15.521  0.00  0.00    +0.000 N 
ENDROOT
BRANCH   1  10
ATOM     10  C   UNL     1      44.676   5.205  10.957  0.00  0.00    +0.000 C 
BRANCH  10  11
ATOM     11  N   UNL     1      45.357   5.463   9.693  0.00  0.00    +0.000 NA
ATOM     12  H   UNL     1      44.681   5.477   8.932  0.00  0.00    +0.000 HD
ATOM     13  H   UNL     1      46.002   4.699   9.492  0.00  0.00    +0.000 HD
ENDBRANCH  10  11
ENDBRANCH   1  10
BRANCH   8  14
ATOM     14  C   UNL     1      49.107   6.220  16.899  0.00  0.00    +0.000 C 
BRANCH  14  15
ATOM     15  C   UNL     1      48.382   7.097  17.956  0.00  0.00    +0.000 C 
ATOM     16  C   UNL     1      49.297   8.024  18.775  0.00  0.00    +0.000 C 
ATOM     17  C   UNL     1      50.015   7.354  19.952  0.00  0.00    +0.000 C 
ATOM     18  N   UNL     1      49.141   6.594  20.839  0.00  0.00    +0.000 NA
ATOM     19  C   UNL     1      48.300   5.645  20.121  0.00  0.00    +0.000 C 
ATOM     20  C   UNL     1      47.534   6.254  18.943  0.00  0.00    +0.000 C 
ATOM     21  H   UNL     1      48.565   7.226  21.393  0.00  0.00    +0.000 HD
ENDBRANCH  14  15
ENDBRANCH   8  14
BRANCH   9  22
ATOM     22  C   UNL     1      47.394   3.610  16.527  0.00  0.00    +0.000 C 
BRANCH  22  23
ATOM     23  C   UNL     1      48.630   2.793  16.952  0.00  0.00    +0.000 C 
BRANCH  23  24
ATOM     24  O   UNL     1      49.110   1.875  15.973  0.00  0.00    +0.000 OA
ATOM     25  H   UNL     1      49.176   2.334  15.110  0.00  0.00    +0.000 HD
ENDBRANCH  23  24
ENDBRANCH  22  23
ENDBRANCH   9  22
TORSDOF 7
ENDMDL
MODEL 5
REMARK VINA RESULT:    -5.191      4.232      6.096
REMARK INTER + INTRA:          -7.618
REMARK INTER:                  -7.134
REMARK INTRA:                  -0.484
REMARK UNBOUND:                -0.606
REMARK  Name = 
REMARK  7 active torsions:
REMARK  status: ('A' for Active; 'I' for Inactive)
REMARK    1  A    between atoms: N_1  and  C_2
REMARK    2  A    between atoms: C_2  and  C_3
REMARK    3  A    between atoms: C_10  and  C_11
REMARK    4  A    between atoms: C_11  and  C_12
REMARK    5  A    between atoms: N_18  and  C_19
REMARK    6  A    between atoms: C_19  and  C_20
REMARK    7  A    between atoms: C_20  and  O_21
REMARK                            x       y       z     vdW  Elec       q    Type
REMARK                         _______ _______ _______ _____ _____    ______ ____
ROOT
ATOM      1  C   UNL     1      44.094   5.077  12.281  0.00  0.00    +0.000 A 
ATOM      2  C   UNL     1      44.558   3.842  12.731  0.00  0.00    +0.000 A 
ATOM      3  N   UNL     1      45.684   3.639  13.445  0.00  0.00    +0.000 NA
ATOM      4  C   UNL     1      46.365   4.770  13.671  0.00  0.00    +0.000 A 
ATOM      5  C   UNL     1      46.092   6.054  13.237  0.00  0.00    +0.000 A 
ATOM      6  C   UNL     1      44.900   6.220  12.509  0.00  0.00    +0.000 A 
ATOM      7  N   UNL     1      47.074   6.925  13.710  0.00  0.00    +0.000 NA
ATOM      8  C   UNL     1      47.873   6.209  14.501  0.00  0.00    +0.000 A 
ATOM      9  N   UNL     1      47.389   4.912  14.583  0.00  0.00    +0.000 N 
ENDROOT
BRANCH   1  10
ATOM     10  C   UNL     1      42.714   5.142  11.685  0.00  0.00    +0.000 C 
BRANCH  10  11
ATOM     11  N   UNL     1      42.215   6.512  11.696  0.00  0.00    +0.000 NA
ATOM     12  H   UNL     1      41.342   6.567  11.173  0.00  0.00    +0.000 HD
ATOM     13  H   UNL     1      42.878   7.120  11.216  0.00  0.00    +0.000 HD
ENDBRANCH  10  11
ENDBRANCH   1  10
BRANCH   8  14
ATOM     14  C   UNL     1      49.054   6.682  15.347  0.00  0.00    +0.000 C 
BRANCH  14  15
ATOM     15  C   UNL     1      48.845   7.942  16.231  0.00  0.00    +0.000 C 
ATOM     16  C   UNL     1      50.029   8.925  16.258  0.00  0.00    +0.000 C 
ATOM     17  C   UNL     1      51.163   8.549  17.217  0.00  0.00    +0.000 C 
ATOM     18  N   UNL     1      50.728   8.243  18.576  0.00  0.00    +0.000 NA
ATOM     19  C   UNL     1      49.653   7.260  18.614  0.00  0.00    +0.000 C 
ATOM     20  C   UNL     1      48.475   7.586  17.693  0.00  0.00    +0.000 C 
ATOM     21  H   UNL     1      50.443   9.096  19.056  0.00  0.00    +0.000 HD
ENDBRANCH  14  15
ENDBRANCH   8  14
BRANCH   9  22
ATOM     22  C   UNL     1      47.642   3.881  15.570  0.00  0.00    +0.000 C 
BRANCH  22  23
ATOM     23  C   UNL     1      46.995   4.187  16.936  0.00  0.00    +0.000 C 
BRANCH  23  24
ATOM     24  O   UNL     1      46.434   3.058  17.601  0.00  0.00    +0.000 OA
ATOM     25  H   UNL     1      45.883   3.369  18.349  0.00  0.00    +0.000 HD
ENDBRANCH  23  24
ENDBRANCH  22  23
ENDBRANCH   9  22
TORSDOF 7
ENDMDL
MODEL 6
REMARK VINA RESULT:    -4.951      2.141      3.222
REMARK INTER + INTRA:          -7.293
REMARK INTER:                  -7.761
REMARK INTRA:                   0.468
REMARK UNBOUND:                -0.606
REMARK  Name = 
REMARK  7 active torsions:
REMARK  status: ('A' for Active; 'I' for Inactive)
REMARK    1  A    between atoms: N_1  and  C_2
REMARK    2  A    between atoms: C_2  and  C_3
REMARK    3  A    between atoms: C_10  and  C_11
REMARK    4  A    between atoms: C_11  and  C_12
REMARK    5  A    between atoms: N_18  and  C_19
REMARK    6  A    between atoms: C_19  and  C_20
REMARK    7  A    between atoms: C_20  and  O_21
REMARK                            x       y       z     vdW  Elec       q    Type
REMARK                         _______ _______ _______ _____ _____    ______ ____
ROOT
ATOM      1  C   UNL     1      46.599   2.460   7.163  0.00  0.00    +0.000 A 
ATOM      2  C   UNL     1      47.100   3.760   7.213  0.00  0.00    +0.000 A 
ATOM      3  N   UNL     1      46.617   4.758   7.980  0.00  0.00    +0.000 NA
ATOM      4  C   UNL     1      45.550   4.387   8.700  0.00  0.00    +0.000 A 
ATOM      5  C   UNL     1      44.884   3.176   8.713  0.00  0.00    +0.000 A 
ATOM      6  C   UNL     1      45.433   2.160   7.909  0.00  0.00    +0.000 A 
ATOM      7  N   UNL     1      43.822   3.236   9.618  0.00  0.00    +0.000 NA
ATOM      8  C   UNL     1      43.900   4.422  10.220  0.00  0.00    +0.000 A 
ATOM      9  N   UNL     1      45.019   5.098   9.756  0.00  0.00    +0.000 N 
ENDROOT
BRANCH   1  10
ATOM     10  C   UNL     1      47.392   1.423   6.414  0.00  0.00    +0.000 C 
BRANCH  10  11
ATOM     11  N   UNL     1      48.494   2.045   5.689  0.00  0.00    +0.000 NA
ATOM     12  H   UNL     1      48.999   1.339   5.155  0.00  0.00    +0.000 HD
ATOM     13  H   UNL     1      49.162   2.435   6.354  0.00  0.00    +0.000 HD
ENDBRANCH  10  11
ENDBRANCH   1  10
BRANCH   8  14
ATOM     14  C   UNL     1      43.042   4.973  11.359  0.00  0.00    +0.000 C 
BRANCH  14  15
ATOM     15  C   UNL     1      43.283   4.399  12.782  0.00  0.00    +0.000 C 
ATOM     16  C   UNL     1      44.195   5.250  13.684  0.00  0.00    +0.000 C 
ATOM     17  C   UNL     1      45.698   5.063  13.450  0.00  0.00    +0.000 C 
ATOM     18  N   UNL     1      46.141   3.672  13.451  0.00  0.00    +0.000 NA
ATOM     19  C   UNL     1      45.355   2.832  12.556  0.00  0.00    +0.000 C 
ATOM     20  C   UNL     1      43.841   2.954  12.751  0.00  0.00    +0.000 C 
ATOM     21  H   UNL     1      46.118   3.296  14.398  0.00  0.00    +0.000 HD
ENDBRANCH  14  15
ENDBRANCH   8  14
BRANCH   9  22
ATOM     22  C   UNL     1      45.750   6.204  10.340  0.00  0.00    +0.000 C 
BRANCH  22  23
ATOM     23  C   UNL     1      44.835   7.362  10.784  0.00  0.00    +0.000 C 
BRANCH  23  24
ATOM     24  O   UNL     1      45.343   8.153  11.856  0.00  0.00    +0.000 OA
ATOM     25  H   UNL     1      45.549   9.050  11.521  0.00  0.00    +0.000 HD
ENDBRANCH  23  24
ENDBRANCH  22  23
ENDBRANCH   9  22
TORSDOF 7
ENDMDL
MODEL 7
REMARK VINA RESULT:    -4.642      4.268      6.522
REMARK INTER + INTRA:          -6.876
REMARK INTER:                  -6.312
REMARK INTRA:                  -0.563
REMARK UNBOUND:                -0.606
REMARK  Name = 
REMARK  7 active torsions:
REMARK  status: ('A' for Active; 'I' for Inactive)
REMARK    1  A    between atoms: N_1  and  C_2
REMARK    2  A    between atoms: C_2  and  C_3
REMARK    3  A    between atoms: C_10  and  C_11
REMARK    4  A    between atoms: C_11  and  C_12
REMARK    5  A    between atoms: N_18  and  C_19
REMARK    6  A    between atoms: C_19  and  C_20
REMARK    7  A    between atoms: C_20  and  O_21
REMARK                            x       y       z     vdW  Elec       q    Type
REMARK                         _______ _______ _______ _____ _____    ______ ____
ROOT
ATOM      1  C   UNL     1      45.371   5.082  12.961  0.00  0.00    +0.000 A 
ATOM      2  C   UNL     1      46.237   4.754  14.003  0.00  0.00    +0.000 A 
ATOM      3  N   UNL     1      47.473   5.261  14.185  0.00  0.00    +0.000 NA
ATOM      4  C   UNL     1      47.827   6.122  13.222  0.00  0.00    +0.000 A 
ATOM      5  C   UNL     1      47.130   6.498  12.088  0.00  0.00    +0.000 A 
ATOM      6  C   UNL     1      45.839   5.955  11.948  0.00  0.00    +0.000 A 
ATOM      7  N   UNL     1      47.883   7.422  11.362  0.00  0.00    +0.000 NA
ATOM      8  C   UNL     1      48.970   7.684  12.086  0.00  0.00    +0.000 A 
ATOM      9  N   UNL     1      48.900   6.986  13.282  0.00  0.00    +0.000 N 
ENDROOT
BRANCH   1  10
ATOM     10  C   UNL     1      43.954   4.582  13.033  0.00  0.00    +0.000 C 
BRANCH  10  11
ATOM     11  N   UNL     1      43.033   5.685  13.283  0.00  0.00    +0.000 NA
ATOM     12  H   UNL     1      42.072   5.358  13.204  0.00  0.00    +0.000 HD
ATOM     13  H   UNL     1      43.155   6.400  12.566  0.00  0.00    +0.000 HD
ENDBRANCH  10  11
ENDBRANCH   1  10
BRANCH   8  14
ATOM     14  C   UNL     1      50.084   8.691  11.806  0.00  0.00    +0.000 C 
BRANCH  14  15
ATOM     15  C   UNL     1      51.540   8.153  11.742  0.00  0.00    +0.000 C 
ATOM     16  C   UNL     1      52.581   8.993  12.501  0.00  0.00    +0.000 C 
ATOM     17  C   UNL     1      53.097  10.224  11.748  0.00  0.00    +0.000 C 
ATOM     18  N   UNL     1      53.559   9.952  10.390  0.00  0.00    +0.000 NA
ATOM     19  C   UNL     1      52.578   9.218   9.600  0.00  0.00    +0.000 C 
ATOM     20  C   UNL     1      52.036   7.961  10.286  0.00  0.00    +0.000 C 
ATOM     21  H   UNL     1      54.443   9.445  10.413  0.00  0.00    +0.000 HD
ENDBRANCH  14  15
ENDBRANCH   8  14
BRANCH   9  22
ATOM     22  C   UNL     1      49.594   7.208  14.535  0.00  0.00    +0.000 C 
BRANCH  22  23
ATOM     23  C   UNL     1      48.788   8.073  15.523  0.00  0.00    +0.000 C 
BRANCH  23  24
ATOM     24  O   UNL     1      48.138   7.349  16.565  0.00  0.00    +0.000 OA
ATOM     25  H   UNL     1      47.534   7.953  17.045  0.00  0.00    +0.000 HD
ENDBRANCH  23  24
ENDBRANCH  22  23
ENDBRANCH   9  22
TORSDOF 7
ENDMDL
MODEL 8
REMARK VINA RESULT:    -4.613      5.895      8.688
REMARK INTER + INTRA:          -6.837
REMARK INTER:                  -6.312
REMARK INTRA:                  -0.525
REMARK UNBOUND:                -0.606
REMARK  Name = 
REMARK  7 active torsions:
REMARK  status: ('A' for Active; 'I' for Inactive)
REMARK    1  A    between atoms: N_1  and  C_2
REMARK    2  A    between atoms: C_2  and  C_3
REMARK    3  A    between atoms: C_10  and  C_11
REMARK    4  A    between atoms: C_11  and  C_12
REMARK    5  A    between atoms: N_18  and  C_19
REMARK    6  A    between atoms: C_19  and  C_20
REMARK    7  A    between atoms: C_20  and  O_21
REMARK                            x       y       z     vdW  Elec       q    Type
REMARK                         _______ _______ _______ _____ _____    ______ ____
ROOT
ATOM      1  C   UNL     1      52.395   4.609  18.572  0.00  0.00    +0.000 A 
ATOM      2  C   UNL     1      51.252   4.450  19.353  0.00  0.00    +0.000 A 
ATOM      3  N   UNL     1      50.005   4.829  19.006  0.00  0.00    +0.000 NA
ATOM      4  C   UNL     1      49.960   5.424  17.807  0.00  0.00    +0.000 A 
ATOM      5  C   UNL     1      50.996   5.728  16.944  0.00  0.00    +0.000 A 
ATOM      6  C   UNL     1      52.277   5.301  17.341  0.00  0.00    +0.000 A 
ATOM      7  N   UNL     1      50.487   6.351  15.803  0.00  0.00    +0.000 NA
ATOM      8  C   UNL     1      49.160   6.335  15.919  0.00  0.00    +0.000 A 
ATOM      9  N   UNL     1      48.811   5.669  17.084  0.00  0.00    +0.000 N 
ENDROOT
BRANCH   1  10
ATOM     10  C   UNL     1      53.663   3.937  19.026  0.00  0.00    +0.000 C 
BRANCH  10  11
ATOM     11  N   UNL     1      53.404   2.552  19.400  0.00  0.00    +0.000 NA
ATOM     12  H   UNL     1      52.642   2.178  18.837  0.00  0.00    +0.000 HD
ATOM     13  H   UNL     1      53.091   2.514  20.370  0.00  0.00    +0.000 HD
ENDBRANCH  10  11
ENDBRANCH   1  10
BRANCH   8  14
ATOM     14  C   UNL     1      48.108   6.803  14.914  0.00  0.00    +0.000 C 
BRANCH  14  15
ATOM     15  C   UNL     1      48.018   6.043  13.563  0.00  0.00    +0.000 C 
ATOM     16  C   UNL     1      47.880   6.937  12.318  0.00  0.00    +0.000 C 
ATOM     17  C   UNL     1      46.460   7.437  12.031  0.00  0.00    +0.000 C 
ATOM     18  N   UNL     1      45.443   6.390  12.017  0.00  0.00    +0.000 NA
ATOM     19  C   UNL     1      45.480   5.555  13.211  0.00  0.00    +0.000 C 
ATOM     20  C   UNL     1      46.869   5.003  13.544  0.00  0.00    +0.000 C 
ATOM     21  H   UNL     1      45.540   5.815  11.181  0.00  0.00    +0.000 HD
ENDBRANCH  14  15
ENDBRANCH   8  14
BRANCH   9  22
ATOM     22  C   UNL     1      47.556   5.055  17.469  0.00  0.00    +0.000 C 
BRANCH  22  23
ATOM     23  C   UNL     1      47.398   3.620  16.928  0.00  0.00    +0.000 C 
BRANCH  23  24
ATOM     24  O   UNL     1      46.521   2.787  17.682  0.00  0.00    +0.000 OA
ATOM     25  H   UNL     1      46.780   1.850  17.552  0.00  0.00    +0.000 HD
ENDBRANCH  23  24
ENDBRANCH  22  23
ENDBRANCH   9  22
TORSDOF 7
ENDMDL
MODEL 9
REMARK VINA RESULT:    -4.510      4.829      6.916
REMARK INTER + INTRA:          -6.698
REMARK INTER:                  -6.048
REMARK INTRA:                  -0.650
REMARK UNBOUND:                -0.606
REMARK  Name = 
REMARK  7 active torsions:
REMARK  status: ('A' for Active; 'I' for Inactive)
REMARK    1  A    between atoms: N_1  and  C_2
REMARK    2  A    between atoms: C_2  and  C_3
REMARK    3  A    between atoms: C_10  and  C_11
REMARK    4  A    between atoms: C_11  and  C_12
REMARK    5  A    between atoms: N_18  and  C_19
REMARK    6  A    between atoms: C_19  and  C_20
REMARK    7  A    between atoms: C_20  and  O_21
REMARK                            x       y       z     vdW  Elec       q    Type
REMARK                         _______ _______ _______ _____ _____    ______ ____
ROOT
ATOM      1  C   UNL     1      45.888   5.467  12.921  0.00  0.00    +0.000 A 
ATOM      2  C   UNL     1      46.172   4.262  13.560  0.00  0.00    +0.000 A 
ATOM      3  N   UNL     1      47.100   4.083  14.522  0.00  0.00    +0.000 NA
ATOM      4  C   UNL     1      47.777   5.204  14.803  0.00  0.00    +0.000 A 
ATOM      5  C   UNL     1      47.678   6.453  14.217  0.00  0.00    +0.000 A 
ATOM      6  C   UNL     1      46.686   6.596  13.229  0.00  0.00    +0.000 A 
ATOM      7  N   UNL     1      48.580   7.327  14.827  0.00  0.00    +0.000 NA
ATOM      8  C   UNL     1      49.144   6.657  15.831  0.00  0.00    +0.000 A 
ATOM      9  N   UNL     1      48.582   5.391  15.907  0.00  0.00    +0.000 N 
ENDROOT
BRANCH   1  10
ATOM     10  C   UNL     1      44.678   5.528  12.028  0.00  0.00    +0.000 C 
BRANCH  10  11
ATOM     11  N   UNL     1      43.492   5.889  12.795  0.00  0.00    +0.000 NA
ATOM     12  H   UNL     1      42.766   6.231  12.168  0.00  0.00    +0.000 HD
ATOM     13  H   UNL     1      43.715   6.658  13.426  0.00  0.00    +0.000 HD
ENDBRANCH  10  11
ENDBRANCH   1  10
BRANCH   8  14
ATOM     14  C   UNL     1      50.134   7.162  16.879  0.00  0.00    +0.000 C 
BRANCH  14  15
ATOM     15  C   UNL     1      49.562   7.609  18.252  0.00  0.00    +0.000 C 
ATOM     16  C   UNL     1      48.123   8.153  18.213  0.00  0.00    +0.000 C 
ATOM     17  C   UNL     1      47.993   9.618  17.781  0.00  0.00    +0.000 C 
ATOM     18  N   UNL     1      48.864  10.540  18.504  0.00  0.00    +0.000 NA
ATOM     19  C   UNL     1      50.256  10.109  18.510  0.00  0.00    +0.000 C 
ATOM     20  C   UNL     1      50.460   8.658  18.954  0.00  0.00    +0.000 C 
ATOM     21  H   UNL     1      48.530  10.666  19.459  0.00  0.00    +0.000 HD
ENDBRANCH  14  15
ENDBRANCH   8  14
BRANCH   9  22
ATOM     22  C   UNL     1      48.554   4.446  17.005  0.00  0.00    +0.000 C 
BRANCH  22  23
ATOM     23  C   UNL     1      47.197   4.416  17.736  0.00  0.00    +0.000 C 
BRANCH  23  24
ATOM     24  O   UNL     1      46.432   3.230  17.536  0.00  0.00    +0.000 OA
ATOM     25  H   UNL     1      45.964   3.292  16.677  0.00  0.00    +0.000 HD
ENDBRANCH  23  24
ENDBRANCH  22  23
ENDBRANCH   9  22
TORSDOF 7
ENDMDL
