MODEL 1
REMARK VINA RESULT:    -8.172      0.000      0.000
REMARK INTER + INTRA:         -11.100
REMARK INTER:                 -10.561
REMARK INTRA:                  -0.539
REMARK UNBOUND:                -0.539
REMARK  Name = 
REMARK  6 active torsions:
REMARK  status: ('A' for Active; 'I' for Inactive)
REMARK    1  A    between atoms: C_1  and  O_2
REMARK    2  A    between atoms: O_2  and  C_3
REMARK    3  A    between atoms: C_6  and  C_7
REMARK    4  A    between atoms: C_7  and  N_8
REMARK    5  A    between atoms: N_8  and  C_9
REMARK    6  A    between atoms: C_12  and  C_13
REMARK                            x       y       z     vdW  Elec       q    Type
REMARK                         _______ _______ _______ _____ _____    ______ ____
ROOT
ATOM      1  N   UNL     1      43.756   3.805  10.597  0.00  0.00    +0.000 N 
ATOM      2  H   UNL     1      43.250   3.007  10.967  0.00  0.00    +0.000 HD
ENDROOT
BRANCH   1   3
ATOM      3  C   UNL     1      44.687   3.475   9.601  0.00  0.00    +0.000 A 
ATOM      4  C   UNL     1      45.060   2.133   9.437  0.00  0.00    +0.000 A 
ATOM      5  C   UNL     1      45.918   1.754   8.406  0.00  0.00    +0.000 A 
ATOM      6  C   UNL     1      46.374   2.736   7.542  0.00  0.00    +0.000 A 
ATOM      7  N   UNL     1      46.028   4.053   7.642  0.00  0.00    +0.000 NA
ATOM      8  C   UNL     1      45.193   4.373   8.662  0.00  0.00    +0.000 A 
BRANCH   6   9
ATOM      9  C   UNL     1      47.288   2.371   6.413  0.00  0.00    +0.000 C 
ATOM     10  N   UNL     1      47.221   3.192   5.322  0.00  0.00    +0.000 N 
ATOM     11  O   UNL     1      48.043   1.408   6.456  0.00  0.00    +0.000 OA
ATOM     12  H   UNL     1      46.577   3.977   5.332  0.00  0.00    +0.000 HD
ATOM     13  H   UNL     1      47.803   3.011   4.518  0.00  0.00    +0.000 HD
ENDBRANCH   6   9
ENDBRANCH   1   3
BRANCH   1  14
ATOM     14  C   UNL     1      43.835   4.994  11.465  0.00  0.00    +0.000 C 
ATOM     15  C   UNL     1      42.803   6.099  11.340  0.00  0.00    +0.000 C 
ATOM     16  C   UNL     1      42.691   5.128  12.468  0.00  0.00    +0.000 C 
BRANCH  14  20
ATOM     17  C   UNL     1      47.709   6.011  13.232  0.00  0.00    +0.000 A 
ATOM     18  C   UNL     1      47.189   6.784  12.197  0.00  0.00    +0.000 A 
ATOM     19  C   UNL     1      45.971   6.430  11.595  0.00  0.00    +0.000 A 
ATOM     20  C   UNL     1      45.226   5.314  12.021  0.00  0.00    +0.000 A 
ATOM     21  C   UNL     1      45.793   4.530  13.038  0.00  0.00    +0.000 A 
ATOM     22  C   UNL     1      47.013   4.873  13.635  0.00  0.00    +0.000 A 
BRANCH  17  24
ATOM     23  C   UNL     1      48.738   6.776  15.237  0.00  0.00    +0.000 C 
ATOM     24  O   UNL     1      48.864   6.251  13.922  0.00  0.00    +0.000 OA
ENDBRANCH  17  24
ENDBRANCH  14  20
ENDBRANCH   1  14
TORSDOF 5
ENDMDL
MODEL 2
REMARK VINA RESULT:    -7.244      1.403      1.984
REMARK INTER + INTRA:          -9.900
REMARK INTER:                  -9.643
REMARK INTRA:                  -0.258
REMARK UNBOUND:                -0.539
REMARK  Name = 
REMARK  6 active torsions:
REMARK  status: ('A' for Active; 'I' for Inactive)
REMARK    1  A    between atoms: C_1  and  O_2
REMARK    2  A    between atoms: O_2  and  C_3
REMARK    3  A    between atoms: C_6  and  C_7
REMARK    4  A    between atoms: C_7  and  N_8
REMARK    5  A    between atoms: N_8  and  C_9
REMARK    6  A    between atoms: C_12  and  C_13
REMARK                            x       y       z     vdW  Elec       q    Type
REMARK                         _______ _______ _______ _____ _____    ______ ____
ROOT
ATOM      1  N   UNL     1      43.865   4.732  10.156  0.00  0.00    +0.000 N 
ATOM      2  H   UNL     1      42.915   4.566   9.841  0.00  0.00    +0.000 HD
ENDROOT
BRANCH   1   3
ATOM      3  C   UNL     1      44.843   4.128   9.351  0.00  0.00    +0.000 A 
ATOM      4  C   UNL     1      44.906   2.729   9.294  0.00  0.00    +0.000 A 
ATOM      5  C   UNL     1      45.808   2.090   8.444  0.00  0.00    +0.000 A 
ATOM      6  C   UNL     1      46.623   2.879   7.647  0.00  0.00    +0.000 A 
ATOM      7  N   UNL     1      46.590   4.243   7.647  0.00  0.00    +0.000 NA
ATOM      8  C   UNL     1      45.698   4.818   8.492  0.00  0.00    +0.000 A 
BRANCH   6   9
ATOM      9  C   UNL     1      47.599   2.236   6.711  0.00  0.00    +0.000 C 
ATOM     10  N   UNL     1      47.901   2.966   5.595  0.00  0.00    +0.000 N 
ATOM     11  O   UNL     1      48.093   1.135   6.921  0.00  0.00    +0.000 OA
ATOM     12  H   UNL     1      47.463   3.872   5.462  0.00  0.00    +0.000 HD
ATOM     13  H   UNL     1      48.548   2.599   4.912  0.00  0.00    +0.000 HD
ENDBRANCH   6   9
ENDBRANCH   1   3
BRANCH   1  14
ATOM     14  C   UNL     1      44.037   5.075  11.578  0.00  0.00    +0.000 C 
ATOM     15  C   UNL     1      42.890   4.886  12.553  0.00  0.00    +0.000 C 
ATOM     16  C   UNL     1      43.994   3.883  12.532  0.00  0.00    +0.000 C 
BRANCH  14  20
ATOM     17  C   UNL     1      47.166   8.069  12.221  0.00  0.00    +0.000 A 
ATOM     18  C   UNL     1      47.483   6.714  12.236  0.00  0.00    +0.000 A 
ATOM     19  C   UNL     1      46.473   5.751  12.080  0.00  0.00    +0.000 A 
ATOM     20  C   UNL     1      45.127   6.109  11.881  0.00  0.00    +0.000 A 
ATOM     21  C   UNL     1      44.830   7.481  11.911  0.00  0.00    +0.000 A 
ATOM     22  C   UNL     1      45.832   8.445  12.076  0.00  0.00    +0.000 A 
BRANCH  17  24
ATOM     23  C   UNL     1      47.679  10.339  11.722  0.00  0.00    +0.000 C 
ATOM     24  O   UNL     1      48.046   9.109  12.334  0.00  0.00    +0.000 OA
ENDBRANCH  17  24
ENDBRANCH  14  20
ENDBRANCH   1  14
TORSDOF 5
ENDMDL
MODEL 3
REMARK VINA RESULT:    -6.797      2.507      6.382
REMARK INTER + INTRA:          -9.323
REMARK INTER:                  -8.845
REMARK INTRA:                  -0.478
REMARK UNBOUND:                -0.539
REMARK  Name = 
REMARK  6 active torsions:
REMARK  status: ('A' for Active; 'I' for Inactive)
REMARK    1  A    between atoms: C_1  and  O_2
REMARK    2  A    between atoms: O_2  and  C_3
REMARK    3  A    between atoms: C_6  and  C_7
REMARK    4  A    between atoms: C_7  and  N_8
REMARK    5  A    between atoms: N_8  and  C_9
REMARK    6  A    between atoms: C_12  and  C_13
REMARK                            x       y       z     vdW  Elec       q    Type
REMARK                         _______ _______ _______ _____ _____    ______ ____
ROOT
ATOM      1  N   UNL     1      44.823   6.278  11.641  0.00  0.00    +0.000 N 
ATOM      2  H   UNL     1      44.572   7.050  11.033  0.00  0.00    +0.000 HD
ENDROOT
BRANCH   1   3
ATOM      3  C   UNL     1      46.070   6.432  12.267  0.00  0.00    +0.000 A 
ATOM      4  C   UNL     1      46.766   7.638  12.107  0.00  0.00    +0.000 A 
ATOM      5  C   UNL     1      47.968   7.860  12.779  0.00  0.00    +0.000 A 
ATOM      6  C   UNL     1      48.439   6.864  13.618  0.00  0.00    +0.000 A 
ATOM      7  N   UNL     1      47.794   5.680  13.827  0.00  0.00    +0.000 NA
ATOM      8  C   UNL     1      46.630   5.509  13.150  0.00  0.00    +0.000 A 
BRANCH   6   9
ATOM      9  C   UNL     1      49.720   7.065  14.368  0.00  0.00    +0.000 C 
ATOM     10  N   UNL     1      50.674   7.789  13.706  0.00  0.00    +0.000 N 
ATOM     11  O   UNL     1      49.910   6.616  15.491  0.00  0.00    +0.000 OA
ATOM     12  H   UNL     1      50.472   8.138  12.774  0.00  0.00    +0.000 HD
ATOM     13  H   UNL     1      51.567   7.964  14.142  0.00  0.00    +0.000 HD
ENDBRANCH   6   9
ENDBRANCH   1   3
BRANCH   1  14
ATOM     14  C   UNL     1      44.169   4.986  11.369  0.00  0.00    +0.000 C 
ATOM     15  C   UNL     1      43.455   4.243  12.483  0.00  0.00    +0.000 C 
ATOM     16  C   UNL     1      42.646   5.005  11.488  0.00  0.00    +0.000 C 
BRANCH  14  20
ATOM     17  C   UNL     1      45.918   2.716   8.061  0.00  0.00    +0.000 A 
ATOM     18  C   UNL     1      45.984   4.106   8.064  0.00  0.00    +0.000 A 
ATOM     19  C   UNL     1      45.379   4.838   9.099  0.00  0.00    +0.000 A 
ATOM     20  C   UNL     1      44.716   4.208  10.168  0.00  0.00    +0.000 A 
ATOM     21  C   UNL     1      44.631   2.808  10.118  0.00  0.00    +0.000 A 
ATOM     22  C   UNL     1      45.223   2.074   9.082  0.00  0.00    +0.000 A 
BRANCH  17  24
ATOM     23  C   UNL     1      47.861   2.061   6.851  0.00  0.00    +0.000 C 
ATOM     24  O   UNL     1      46.480   1.881   7.136  0.00  0.00    +0.000 OA
ENDBRANCH  17  24
ENDBRANCH  14  20
ENDBRANCH   1  14
TORSDOF 5
ENDMDL
MODEL 4
REMARK VINA RESULT:    -6.774      2.559      6.764
REMARK INTER + INTRA:          -9.293
REMARK INTER:                  -8.912
REMARK INTRA:                  -0.381
REMARK UNBOUND:                -0.539
REMARK  Name = 
REMARK  6 active torsions:
REMARK  status: ('A' for Active; 'I' for Inactive)
REMARK    1  A    between atoms: C_1  and  O_2
REMARK    2  A    between atoms: O_2  and  C_3
REMARK    3  A    between atoms: C_6  and  C_7
REMARK    4  A    between atoms: C_7  and  N_8
REMARK    5  A    between atoms: N_8  and  C_9
REMARK    6  A    between atoms: C_12  and  C_13
REMARK                            x       y       z     vdW  Elec       q    Type
REMARK                         _______ _______ _______ _____ _____    ______ ____
ROOT
ATOM      1  N   UNL     1      45.402   5.873  11.922  0.00  0.00    +0.000 N 
ATOM      2  H   UNL     1      45.844   6.588  11.354  0.00  0.00    +0.000 HD
ENDROOT
BRANCH   1   3
ATOM      3  C   UNL     1      46.159   5.485  13.038  0.00  0.00    +0.000 A 
ATOM      4  C   UNL     1      47.114   6.373  13.552  0.00  0.00    +0.000 A 
ATOM      5  C   UNL     1      47.828   6.059  14.708  0.00  0.00    +0.000 A 
ATOM      6  C   UNL     1      47.552   4.856  15.338  0.00  0.00    +0.000 A 
ATOM      7  N   UNL     1      46.620   3.964  14.894  0.00  0.00    +0.000 NA
ATOM      8  C   UNL     1      45.953   4.313  13.765  0.00  0.00    +0.000 A 
BRANCH   6   9
ATOM      9  C   UNL     1      48.287   4.483  16.589  0.00  0.00    +0.000 C 
ATOM     10  N   UNL     1      47.507   4.347  17.704  0.00  0.00    +0.000 N 
ATOM     11  O   UNL     1      49.500   4.313  16.621  0.00  0.00    +0.000 OA
ATOM     12  H   UNL     1      46.506   4.502  17.629  0.00  0.00    +0.000 HD
ATOM     13  H   UNL     1      47.927   4.102  18.587  0.00  0.00    +0.000 HD
ENDBRANCH   6   9
ENDBRANCH   1   3
BRANCH   1  14
ATOM     14  C   UNL     1      44.394   5.032  11.252  0.00  0.00    +0.000 C 
ATOM     15  C   UNL     1      43.162   4.570  12.007  0.00  0.00    +0.000 C 
ATOM     16  C   UNL     1      43.038   5.704  11.045  0.00  0.00    +0.000 C 
BRANCH  14  20
ATOM     17  C   UNL     1      46.032   2.648   7.966  0.00  0.00    +0.000 A 
ATOM     18  C   UNL     1      46.140   4.035   7.943  0.00  0.00    +0.000 A 
ATOM     19  C   UNL     1      45.572   4.804   8.971  0.00  0.00    +0.000 A 
ATOM     20  C   UNL     1      44.902   4.215  10.060  0.00  0.00    +0.000 A 
ATOM     21  C   UNL     1      44.773   2.817  10.036  0.00  0.00    +0.000 A 
ATOM     22  C   UNL     1      45.329   2.046   9.008  0.00  0.00    +0.000 A 
BRANCH  17  24
ATOM     23  C   UNL     1      46.951   0.497   7.524  0.00  0.00    +0.000 C 
ATOM     24  O   UNL     1      46.556   1.778   7.051  0.00  0.00    +0.000 OA
ENDBRANCH  17  24
ENDBRANCH  14  20
ENDBRANCH   1  14
TORSDOF 5
ENDMDL
MODEL 5
REMARK VINA RESULT:    -6.324      2.692      6.389
REMARK INTER + INTRA:          -8.712
REMARK INTER:                  -8.606
REMARK INTRA:                  -0.105
REMARK UNBOUND:                -0.539
REMARK  Name = 
REMARK  6 active torsions:
REMARK  status: ('A' for Active; 'I' for Inactive)
REMARK    1  A    between atoms: C_1  and  O_2
REMARK    2  A    between atoms: O_2  and  C_3
REMARK    3  A    between atoms: C_6  and  C_7
REMARK    4  A    between atoms: C_7  and  N_8
REMARK    5  A    between atoms: N_8  and  C_9
REMARK    6  A    between atoms: C_12  and  C_13
REMARK                            x       y       z     vdW  Elec       q    Type
REMARK                         _______ _______ _______ _____ _____    ______ ____
ROOT
ATOM      1  N   UNL     1      45.351   4.162  12.431  0.00  0.00    +0.000 N 
ATOM      2  H   UNL     1      45.408   3.667  13.314  0.00  0.00    +0.000 HD
ENDROOT
BRANCH   1   3
ATOM      3  C   UNL     1      45.712   5.515  12.514  0.00  0.00    +0.000 A 
ATOM      4  C   UNL     1      47.042   5.880  12.268  0.00  0.00    +0.000 A 
ATOM      5  C   UNL     1      47.423   7.221  12.260  0.00  0.00    +0.000 A 
ATOM      6  C   UNL     1      46.446   8.178  12.483  0.00  0.00    +0.000 A 
ATOM      7  N   UNL     1      45.133   7.881  12.708  0.00  0.00    +0.000 NA
ATOM      8  C   UNL     1      44.812   6.563  12.708  0.00  0.00    +0.000 A 
BRANCH   6   9
ATOM      9  C   UNL     1      46.808   9.631  12.472  0.00  0.00    +0.000 C 
ATOM     10  N   UNL     1      47.735  10.006  13.406  0.00  0.00    +0.000 N 
ATOM     11  O   UNL     1      46.314  10.433  11.690  0.00  0.00    +0.000 OA
ATOM     12  H   UNL     1      48.115   9.306  14.035  0.00  0.00    +0.000 HD
ATOM     13  H   UNL     1      48.029  10.969  13.466  0.00  0.00    +0.000 HD
ENDBRANCH   6   9
ENDBRANCH   1   3
BRANCH   1  14
ATOM     14  C   UNL     1      44.451   3.589  11.413  0.00  0.00    +0.000 C 
ATOM     15  C   UNL     1      43.344   2.638  11.823  0.00  0.00    +0.000 C 
ATOM     16  C   UNL     1      43.000   4.055  11.511  0.00  0.00    +0.000 C 
BRANCH  14  20
ATOM     17  C   UNL     1      46.275   3.364   7.441  0.00  0.00    +0.000 A 
ATOM     18  C   UNL     1      46.021   4.603   8.022  0.00  0.00    +0.000 A 
ATOM     19  C   UNL     1      45.390   4.678   9.274  0.00  0.00    +0.000 A 
ATOM     20  C   UNL     1      45.018   3.526   9.992  0.00  0.00    +0.000 A 
ATOM     21  C   UNL     1      45.250   2.292   9.363  0.00  0.00    +0.000 A 
ATOM     22  C   UNL     1      45.870   2.212   8.110  0.00  0.00    +0.000 A 
BRANCH  17  24
ATOM     23  C   UNL     1      47.821   2.060   6.185  0.00  0.00    +0.000 C 
ATOM     24  O   UNL     1      46.902   3.143   6.246  0.00  0.00    +0.000 OA
ENDBRANCH  17  24
ENDBRANCH  14  20
ENDBRANCH   1  14
TORSDOF 5
ENDMDL
MODEL 6
REMARK VINA RESULT:    -5.949      3.149      6.879
REMARK INTER + INTRA:          -8.226
REMARK INTER:                  -7.800
REMARK INTRA:                  -0.426
REMARK UNBOUND:                -0.539
REMARK  Name = 
REMARK  6 active torsions:
REMARK  status: ('A' for Active; 'I' for Inactive)
REMARK    1  A    between atoms: C_1  and  O_2
REMARK    2  A    between atoms: O_2  and  C_3
REMARK    3  A    between atoms: C_6  and  C_7
REMARK    4  A    between atoms: C_7  and  N_8
REMARK    5  A    between atoms: N_8  and  C_9
REMARK    6  A    between atoms: C_12  and  C_13
REMARK                            x       y       z     vdW  Elec       q    Type
REMARK                         _______ _______ _______ _____ _____    ______ ____
ROOT
ATOM      1  N   UNL     1      46.409   6.179  12.165  0.00  0.00    +0.000 N 
ATOM      2  H   UNL     1      47.136   6.481  11.525  0.00  0.00    +0.000 HD
ENDROOT
BRANCH   1   3
ATOM      3  C   UNL     1      46.891   5.758  13.414  0.00  0.00    +0.000 A 
ATOM      4  C   UNL     1      46.466   4.524  13.925  0.00  0.00    +0.000 A 
ATOM      5  C   UNL     1      46.985   4.032  15.122  0.00  0.00    +0.000 A 
ATOM      6  C   UNL     1      47.943   4.790  15.777  0.00  0.00    +0.000 A 
ATOM      7  N   UNL     1      48.408   5.987  15.316  0.00  0.00    +0.000 NA
ATOM      8  C   UNL     1      47.871   6.424  14.149  0.00  0.00    +0.000 A 
BRANCH   6   9
ATOM      9  C   UNL     1      48.535   4.295  17.060  0.00  0.00    +0.000 C 
ATOM     10  N   UNL     1      49.723   4.874  17.414  0.00  0.00    +0.000 N 
ATOM     11  O   UNL     1      48.003   3.433  17.749  0.00  0.00    +0.000 OA
ATOM     12  H   UNL     1      50.128   5.582  16.809  0.00  0.00    +0.000 HD
ATOM     13  H   UNL     1      50.189   4.591  18.263  0.00  0.00    +0.000 HD
ENDBRANCH   6   9
ENDBRANCH   1   3
BRANCH   1  14
ATOM     14  C   UNL     1      45.140   5.741  11.559  0.00  0.00    +0.000 C 
ATOM     15  C   UNL     1      43.855   5.780  12.365  0.00  0.00    +0.000 C 
ATOM     16  C   UNL     1      44.111   6.852  11.359  0.00  0.00    +0.000 C 
BRANCH  14  20
ATOM     17  C   UNL     1      45.708   2.864   8.310  0.00  0.00    +0.000 A 
ATOM     18  C   UNL     1      46.042   4.201   8.123  0.00  0.00    +0.000 A 
ATOM     19  C   UNL     1      45.814   5.135   9.146  0.00  0.00    +0.000 A 
ATOM     20  C   UNL     1      45.271   4.760  10.390  0.00  0.00    +0.000 A 
ATOM     21  C   UNL     1      44.906   3.412  10.535  0.00  0.00    +0.000 A 
ATOM     22  C   UNL     1      45.122   2.479   9.513  0.00  0.00    +0.000 A 
BRANCH  17  24
ATOM     23  C   UNL     1      47.235   1.419   7.192  0.00  0.00    +0.000 C 
ATOM     24  O   UNL     1      45.898   1.848   7.414  0.00  0.00    +0.000 OA
ENDBRANCH  17  24
ENDBRANCH  14  20
ENDBRANCH   1  14
TORSDOF 5
ENDMDL
MODEL 7
REMARK VINA RESULT:    -5.843      3.459      7.027
REMARK INTER + INTRA:          -8.090
REMARK INTER:                  -7.723
REMARK INTRA:                  -0.367
REMARK UNBOUND:                -0.539
REMARK  Name = 
REMARK  6 active torsions:
REMARK  status: ('A' for Active; 'I' for Inactive)
REMARK    1  A    between atoms: C_1  and  O_2
REMARK    2  A    between atoms: O_2  and  C_3
REMARK    3  A    between atoms: C_6  and  C_7
REMARK    4  A    between atoms: C_7  and  N_8
REMARK    5  A    between atoms: N_8  and  C_9
REMARK    6  A    between atoms: C_12  and  C_13
REMARK                            x       y       z     vdW  Elec       q    Type
REMARK                         _______ _______ _______ _____ _____    ______ ____
ROOT
ATOM      1  N   UNL     1      47.644   6.956  13.082  0.00  0.00    +0.000 N 
ATOM      2  H   UNL     1      48.490   7.032  12.526  0.00  0.00    +0.000 HD
ENDROOT
BRANCH   1   3
ATOM      3  C   UNL     1      47.714   5.985  14.092  0.00  0.00    +0.000 A 
ATOM      4  C   UNL     1      48.266   6.334  15.332  0.00  0.00    +0.000 A 
ATOM      5  C   UNL     1      48.278   5.423  16.388  0.00  0.00    +0.000 A 
ATOM      6  C   UNL     1      47.715   4.175  16.178  0.00  0.00    +0.000 A 
ATOM      7  N   UNL     1      47.146   3.789  14.999  0.00  0.00    +0.000 NA
ATOM      8  C   UNL     1      47.160   4.709  14.002  0.00  0.00    +0.000 A 
BRANCH   6   9
ATOM      9  C   UNL     1      47.696   3.169  17.288  0.00  0.00    +0.000 C 
ATOM     10  N   UNL     1      48.915   2.898  17.847  0.00  0.00    +0.000 N 
ATOM     11  O   UNL     1      46.670   2.622  17.671  0.00  0.00    +0.000 OA
ATOM     12  H   UNL     1      49.739   3.374  17.493  0.00  0.00    +0.000 HD
ATOM     13  H   UNL     1      48.987   2.228  18.597  0.00  0.00    +0.000 HD
ENDBRANCH   6   9
ENDBRANCH   1   3
BRANCH   1  14
ATOM     14  C   UNL     1      46.399   7.431  12.452  0.00  0.00    +0.000 C 
ATOM     15  C   UNL     1      45.605   8.557  13.086  0.00  0.00    +0.000 C 
ATOM     16  C   UNL     1      46.464   8.855  11.904  0.00  0.00    +0.000 C 
BRANCH  14  20
ATOM     17  C   UNL     1      44.465   4.372   9.989  0.00  0.00    +0.000 A 
ATOM     18  C   UNL     1      45.616   5.008   9.535  0.00  0.00    +0.000 A 
ATOM     19  C   UNL     1      46.210   6.025  10.300  0.00  0.00    +0.000 A 
ATOM     20  C   UNL     1      45.689   6.419  11.547  0.00  0.00    +0.000 A 
ATOM     21  C   UNL     1      44.505   5.788  11.962  0.00  0.00    +0.000 A 
ATOM     22  C   UNL     1      43.904   4.781  11.197  0.00  0.00    +0.000 A 
BRANCH  17  24
ATOM     23  C   UNL     1      44.532   2.165   9.101  0.00  0.00    +0.000 C 
ATOM     24  O   UNL     1      43.800   3.355   9.363  0.00  0.00    +0.000 OA
ENDBRANCH  17  24
ENDBRANCH  14  20
ENDBRANCH   1  14
TORSDOF 5
ENDMDL
MODEL 8
REMARK VINA RESULT:    -5.782      2.713      4.554
REMARK INTER + INTRA:          -8.011
REMARK INTER:                  -7.889
REMARK INTRA:                  -0.123
REMARK UNBOUND:                -0.539
REMARK  Name = 
REMARK  6 active torsions:
REMARK  status: ('A' for Active; 'I' for Inactive)
REMARK    1  A    between atoms: C_1  and  O_2
REMARK    2  A    between atoms: O_2  and  C_3
REMARK    3  A    between atoms: C_6  and  C_7
REMARK    4  A    between atoms: C_7  and  N_8
REMARK    5  A    between atoms: N_8  and  C_9
REMARK    6  A    between atoms: C_12  and  C_13
REMARK                            x       y       z     vdW  Elec       q    Type
REMARK                         _______ _______ _______ _____ _____    ______ ____
ROOT
ATOM      1  N   UNL     1      46.115   6.138  13.509  0.00  0.00    +0.000 N 
ATOM      2  H   UNL     1      45.414   6.294  14.226  0.00  0.00    +0.000 HD
ENDROOT
BRANCH   1   3
ATOM      3  C   UNL     1      45.666   5.350  12.439  0.00  0.00    +0.000 A 
ATOM      4  C   UNL     1      45.641   5.903  11.152  0.00  0.00    +0.000 A 
ATOM      5  C   UNL     1      45.281   5.127  10.050  0.00  0.00    +0.000 A 
ATOM      6  C   UNL     1      44.968   3.795  10.266  0.00  0.00    +0.000 A 
ATOM      7  N   UNL     1      44.995   3.199  11.493  0.00  0.00    +0.000 NA
ATOM      8  C   UNL     1      45.350   3.995  12.533  0.00  0.00    +0.000 A 
BRANCH   6   9
ATOM      9  C   UNL     1      44.586   2.922   9.110  0.00  0.00    +0.000 C 
ATOM     10  N   UNL     1      44.240   3.589   7.967  0.00  0.00    +0.000 N 
ATOM     11  O   UNL     1      44.580   1.699   9.175  0.00  0.00    +0.000 OA
ATOM     12  H   UNL     1      44.257   4.604   7.962  0.00  0.00    +0.000 HD
ATOM     13  H   UNL     1      43.966   3.073   7.145  0.00  0.00    +0.000 HD
ENDBRANCH   6   9
ENDBRANCH   1   3
BRANCH   1  14
ATOM     14  C   UNL     1      47.522   6.275  13.925  0.00  0.00    +0.000 C 
ATOM     15  C   UNL     1      48.598   6.557  12.894  0.00  0.00    +0.000 C 
ATOM     16  C   UNL     1      48.106   7.676  13.749  0.00  0.00    +0.000 C 
BRANCH  14  20
ATOM     17  C   UNL     1      48.400   4.376  17.770  0.00  0.00    +0.000 A 
ATOM     18  C   UNL     1      49.079   5.530  17.391  0.00  0.00    +0.000 A 
ATOM     19  C   UNL     1      48.836   6.112  16.137  0.00  0.00    +0.000 A 
ATOM     20  C   UNL     1      47.894   5.578  15.237  0.00  0.00    +0.000 A 
ATOM     21  C   UNL     1      47.253   4.391  15.629  0.00  0.00    +0.000 A 
ATOM     22  C   UNL     1      47.501   3.801  16.875  0.00  0.00    +0.000 A 
BRANCH  17  24
ATOM     23  C   UNL     1      48.789   4.511  20.115  0.00  0.00    +0.000 C 
ATOM     24  O   UNL     1      48.519   3.721  18.964  0.00  0.00    +0.000 OA
ENDBRANCH  17  24
ENDBRANCH  14  20
ENDBRANCH   1  14
TORSDOF 5
ENDMDL
MODEL 9
REMARK VINA RESULT:    -5.541      3.266      5.183
REMARK INTER + INTRA:          -7.699
REMARK INTER:                  -7.232
REMARK INTRA:                  -0.467
REMARK UNBOUND:                -0.539
REMARK  Name = 
REMARK  6 active torsions:
REMARK  status: ('A' for Active; 'I' for Inactive)
REMARK    1  A    between atoms: C_1  and  O_2
REMARK    2  A    between atoms: O_2  and  C_3
REMARK    3  A    between atoms: C_6  and  C_7
REMARK    4  A    between atoms: C_7  and  N_8
REMARK    5  A    between atoms: N_8  and  C_9
REMARK    6  A    between atoms: C_12  and  C_13
REMARK                            x       y       z     vdW  Elec       q    Type
REMARK                         _______ _______ _______ _____ _____    ______ ____
ROOT
ATOM      1  N   UNL     1      46.208   7.542  13.205  0.00  0.00    +0.000 N 
ATOM      2  H   UNL     1      45.644   8.084  13.852  0.00  0.00    +0.000 HD
ENDROOT
BRANCH   1   3
ATOM      3  C   UNL     1      45.576   6.381  12.736  0.00  0.00    +0.000 A 
ATOM      4  C   UNL     1      45.016   6.385  11.451  0.00  0.00    +0.000 A 
ATOM      5  C   UNL     1      44.452   5.227  10.917  0.00  0.00    +0.000 A 
ATOM      6  C   UNL     1      44.480   4.074  11.685  0.00  0.00    +0.000 A 
ATOM      7  N   UNL     1      45.029   4.008  12.932  0.00  0.00    +0.000 NA
ATOM      8  C   UNL     1      45.564   5.160  13.409  0.00  0.00    +0.000 A 
BRANCH   6   9
ATOM      9  C   UNL     1      43.895   2.805  11.146  0.00  0.00    +0.000 C 
ATOM     10  N   UNL     1      44.537   2.286  10.056  0.00  0.00    +0.000 N 
ATOM     11  O   UNL     1      42.912   2.265  11.639  0.00  0.00    +0.000 OA
ATOM     12  H   UNL     1      45.346   2.771   9.680  0.00  0.00    +0.000 HD
ATOM     13  H   UNL     1      44.202   1.434   9.631  0.00  0.00    +0.000 HD
ENDBRANCH   6   9
ENDBRANCH   1   3
BRANCH   1  14
ATOM     14  C   UNL     1      47.667   7.736  13.283  0.00  0.00    +0.000 C 
ATOM     15  C   UNL     1      48.552   7.353  12.112  0.00  0.00    +0.000 C 
ATOM     16  C   UNL     1      48.222   8.792  12.330  0.00  0.00    +0.000 C 
BRANCH  14  20
ATOM     17  C   UNL     1      49.148   7.737  17.403  0.00  0.00    +0.000 A 
ATOM     18  C   UNL     1      48.683   8.916  16.828  0.00  0.00    +0.000 A 
ATOM     19  C   UNL     1      48.254   8.929  15.491  0.00  0.00    +0.000 A 
ATOM     20  C   UNL     1      48.254   7.766  14.698  0.00  0.00    +0.000 A 
ATOM     21  C   UNL     1      48.767   6.601  15.291  0.00  0.00    +0.000 A 
ATOM     22  C   UNL     1      49.205   6.586  16.621  0.00  0.00    +0.000 A 
BRANCH  17  24
ATOM     23  C   UNL     1      50.886   7.076  18.888  0.00  0.00    +0.000 C 
ATOM     24  O   UNL     1      49.569   7.575  18.693  0.00  0.00    +0.000 OA
ENDBRANCH  17  24
ENDBRANCH  14  20
ENDBRANCH   1  14
TORSDOF 5
ENDMDL
