MODEL 1
REMARK VINA RESULT:    -7.635      0.000      0.000
REMARK INTER + INTRA:         -10.655
REMARK INTER:                  -9.867
REMARK INTRA:                  -0.788
REMARK UNBOUND:                -0.788
REMARK  Name = 
REMARK  5 active torsions:
REMARK  status: ('A' for Active; 'I' for Inactive)
REMARK    1  A    between atoms: C_2  and  C_24
REMARK    2  A    between atoms: N_3  and  C_4
REMARK    3  A    between atoms: C_7  and  C_8
REMARK    4  A    between atoms: C_8  and  N_9
REMARK    5  A    between atoms: C_10  and  C_12
REMARK                            x       y       z     vdW  Elec       q    Type
REMARK                         _______ _______ _______ _____ _____    ______ ____
ROOT
ATOM      1  C   UNL     1      51.295   2.336  17.384  0.00  0.00    +0.000 A 
ATOM      2  C   UNL     1      49.903   2.229  17.372  0.00  0.00    +0.000 A 
ATOM      3  C   UNL     1      49.094   3.368  17.383  0.00  0.00    +0.000 A 
ATOM      4  C   UNL     1      49.664   4.644  17.402  0.00  0.00    +0.000 A 
ATOM      5  C   UNL     1      51.058   4.754  17.493  0.00  0.00    +0.000 A 
ATOM      6  C   UNL     1      51.867   3.609  17.487  0.00  0.00    +0.000 A 
ENDROOT
BRANCH   1   9
ATOM      7  O   UNL     1      53.613   1.654  19.054  0.00  0.00    +0.000 OA
ATOM      8  C   UNL     1      53.240   0.966  18.109  0.00  0.00    +0.000 C 
ATOM      9  N   UNL     1      52.156   1.217  17.281  0.00  0.00    +0.000 N 
ATOM     10  H   UNL     1      51.845   0.469  16.674  0.00  0.00    +0.000 HD
BRANCH   8  11
ATOM     11  C   UNL     1      53.979  -0.298  17.859  0.00  0.00    +0.000 A 
ATOM     12  C   UNL     1      54.516  -0.497  16.578  0.00  0.00    +0.000 A 
ATOM     13  C   UNL     1      55.180  -1.682  16.267  0.00  0.00    +0.000 A 
ATOM     14  C   UNL     1      55.303  -2.678  17.234  0.00  0.00    +0.000 A 
ATOM     15  C   UNL     1      54.758  -2.483  18.506  0.00  0.00    +0.000 A 
ATOM     16 CL   UNL     1      54.895  -3.729  19.685  0.00  0.00    +0.000 Cl
ATOM     17  C   UNL     1      54.095  -1.298  18.828  0.00  0.00    +0.000 A 
ENDBRANCH   8  11
ENDBRANCH   1   9
BRANCH   4  18
ATOM     18  C   UNL     1      48.785   5.865  17.355  0.00  0.00    +0.000 C 
BRANCH  18  19
ATOM     19  N   UNL     1      47.932   5.849  16.198  0.00  0.00    +0.000 N 
ATOM     20  C   UNL     1      48.380   6.280  14.977  0.00  0.00    +0.000 C 
ATOM     21  O   UNL     1      49.538   6.650  14.801  0.00  0.00    +0.000 OA
ATOM     22  H   UNL     1      46.936   5.747  16.362  0.00  0.00    +0.000 HD
BRANCH  20  23
ATOM     23  C   UNL     1      47.417   6.222  13.871  0.00  0.00    +0.000 A 
ATOM     24  C   UNL     1      47.049   7.392  13.218  0.00  0.00    +0.000 A 
ATOM     25  S   UNL     1      45.959   7.142  11.930  0.00  0.00    +0.000 S 
ATOM     26  C   UNL     1      45.899   5.468  12.233  0.00  0.00    +0.000 A 
ATOM     27  N   UNL     1      45.113   4.651  11.484  0.00  0.00    +0.000 NA
ATOM     28  C   UNL     1      45.139   3.411  11.842  0.00  0.00    +0.000 A 
ATOM     29  N   UNL     1      45.890   2.912  12.875  0.00  0.00    +0.000 N 
ATOM     30  C   UNL     1      46.721   3.697  13.640  0.00  0.00    +0.000 A 
ATOM     31  O   UNL     1      47.405   3.207  14.532  0.00  0.00    +0.000 OA
ATOM     32  C   UNL     1      46.716   5.102  13.288  0.00  0.00    +0.000 A 
ATOM     33  H   UNL     1      45.873   1.929  13.099  0.00  0.00    +0.000 HD
ENDBRANCH  20  23
ENDBRANCH  18  19
ENDBRANCH   4  18
TORSDOF 5
ENDMDL
MODEL 2
REMARK VINA RESULT:    -7.403      4.284      9.366
REMARK INTER + INTRA:         -10.355
REMARK INTER:                  -9.134
REMARK INTRA:                  -1.221
REMARK UNBOUND:                -0.788
REMARK  Name = 
REMARK  5 active torsions:
REMARK  status: ('A' for Active; 'I' for Inactive)
REMARK    1  A    between atoms: C_2  and  C_24
REMARK    2  A    between atoms: N_3  and  C_4
REMARK    3  A    between atoms: C_7  and  C_8
REMARK    4  A    between atoms: C_8  and  N_9
REMARK    5  A    between atoms: C_10  and  C_12
REMARK                            x       y       z     vdW  Elec       q    Type
REMARK                         _______ _______ _______ _____ _____    ______ ____
ROOT
ATOM      1  C   UNL     1      47.329   4.710  16.188  0.00  0.00    +0.000 A 
ATOM      2  C   UNL     1      47.280   3.728  17.179  0.00  0.00    +0.000 A 
ATOM      3  C   UNL     1      48.105   3.801  18.305  0.00  0.00    +0.000 A 
ATOM      4  C   UNL     1      48.997   4.865  18.464  0.00  0.00    +0.000 A 
ATOM      5  C   UNL     1      49.105   5.809  17.434  0.00  0.00    +0.000 A 
ATOM      6  C   UNL     1      48.280   5.730  16.303  0.00  0.00    +0.000 A 
ENDROOT
BRANCH   1   9
ATOM      7  O   UNL     1      47.575   3.269  13.640  0.00  0.00    +0.000 OA
ATOM      8  C   UNL     1      46.641   4.022  13.900  0.00  0.00    +0.000 C 
ATOM      9  N   UNL     1      46.451   4.729  15.077  0.00  0.00    +0.000 N 
ATOM     10  H   UNL     1      45.543   5.148  15.233  0.00  0.00    +0.000 HD
BRANCH   8  11
ATOM     11  C   UNL     1      45.567   4.142  12.880  0.00  0.00    +0.000 A 
ATOM     12  C   UNL     1      44.590   5.130  13.077  0.00  0.00    +0.000 A 
ATOM     13  C   UNL     1      43.530   5.263  12.182  0.00  0.00    +0.000 A 
ATOM     14  C   UNL     1      43.437   4.402  11.090  0.00  0.00    +0.000 A 
ATOM     15  C   UNL     1      44.404   3.411  10.902  0.00  0.00    +0.000 A 
ATOM     16 CL   UNL     1      44.267   2.338   9.563  0.00  0.00    +0.000 Cl
ATOM     17  C   UNL     1      45.471   3.272  11.791  0.00  0.00    +0.000 A 
ENDBRANCH   8  11
ENDBRANCH   1   9
BRANCH   4  18
ATOM     18  C   UNL     1      49.840   4.966  19.707  0.00  0.00    +0.000 C 
BRANCH  18  19
ATOM     19  N   UNL     1      50.972   4.081  19.642  0.00  0.00    +0.000 N 
ATOM     20  C   UNL     1      52.194   4.519  19.204  0.00  0.00    +0.000 C 
ATOM     21  O   UNL     1      52.394   5.692  18.896  0.00  0.00    +0.000 OA
ATOM     22  H   UNL     1      50.782   3.085  19.691  0.00  0.00    +0.000 HD
BRANCH  20  23
ATOM     23  C   UNL     1      53.272   3.525  19.174  0.00  0.00    +0.000 A 
ATOM     24  C   UNL     1      54.463   3.781  19.842  0.00  0.00    +0.000 A 
ATOM     25  S   UNL     1      55.590   2.505  19.744  0.00  0.00    +0.000 S 
ATOM     26  C   UNL     1      54.548   1.586  18.762  0.00  0.00    +0.000 A 
ATOM     27  N   UNL     1      54.923   0.365  18.297  0.00  0.00    +0.000 NA
ATOM     28  C   UNL     1      54.048  -0.208  17.539  0.00  0.00    +0.000 A 
ATOM     29  N   UNL     1      52.828   0.325  17.214  0.00  0.00    +0.000 N 
ATOM     30  C   UNL     1      52.395   1.541  17.686  0.00  0.00    +0.000 A 
ATOM     31  O   UNL     1      51.281   1.968  17.403  0.00  0.00    +0.000 OA
ATOM     32  C   UNL     1      53.348   2.234  18.530  0.00  0.00    +0.000 A 
ATOM     33  H   UNL     1      52.184  -0.180  16.623  0.00  0.00    +0.000 HD
ENDBRANCH  20  23
ENDBRANCH  18  19
ENDBRANCH   4  18
TORSDOF 5
ENDMDL
MODEL 3
REMARK VINA RESULT:    -7.085      4.227      9.374
REMARK INTER + INTRA:          -9.944
REMARK INTER:                  -8.818
REMARK INTRA:                  -1.126
REMARK UNBOUND:                -0.788
REMARK  Name = 
REMARK  5 active torsions:
REMARK  status: ('A' for Active; 'I' for Inactive)
REMARK    1  A    between atoms: C_2  and  C_24
REMARK    2  A    between atoms: N_3  and  C_4
REMARK    3  A    between atoms: C_7  and  C_8
REMARK    4  A    between atoms: C_8  and  N_9
REMARK    5  A    between atoms: C_10  and  C_12
REMARK                            x       y       z     vdW  Elec       q    Type
REMARK                         _______ _______ _______ _____ _____    ______ ____
ROOT
ATOM      1  C   UNL     1      47.421   5.062  14.529  0.00  0.00    +0.000 A 
ATOM      2  C   UNL     1      48.159   6.213  14.808  0.00  0.00    +0.000 A 
ATOM      3  C   UNL     1      48.645   6.461  16.095  0.00  0.00    +0.000 A 
ATOM      4  C   UNL     1      48.404   5.555  17.132  0.00  0.00    +0.000 A 
ATOM      5  C   UNL     1      47.598   4.439  16.873  0.00  0.00    +0.000 A 
ATOM      6  C   UNL     1      47.107   4.196  15.582  0.00  0.00    +0.000 A 
ENDROOT
BRANCH   1   9
ATOM      7  O   UNL     1      44.827   5.611  13.265  0.00  0.00    +0.000 OA
ATOM      8  C   UNL     1      45.737   5.012  12.700  0.00  0.00    +0.000 C 
ATOM      9  N   UNL     1      46.987   4.721  13.225  0.00  0.00    +0.000 N 
ATOM     10  H   UNL     1      47.703   4.404  12.584  0.00  0.00    +0.000 HD
BRANCH   8  11
ATOM     11  C   UNL     1      45.507   4.612  11.288  0.00  0.00    +0.000 A 
ATOM     12  C   UNL     1      45.725   5.577  10.294  0.00  0.00    +0.000 A 
ATOM     13  C   UNL     1      45.482   5.279   8.954  0.00  0.00    +0.000 A 
ATOM     14  C   UNL     1      45.013   4.015   8.603  0.00  0.00    +0.000 A 
ATOM     15  C   UNL     1      44.785   3.058   9.595  0.00  0.00    +0.000 A 
ATOM     16 CL   UNL     1      44.182   1.507   9.154  0.00  0.00    +0.000 Cl
ATOM     17  C   UNL     1      45.028   3.346  10.939  0.00  0.00    +0.000 A 
ENDBRANCH   8  11
ENDBRANCH   1   9
BRANCH   4  18
ATOM     18  C   UNL     1      48.981   5.802  18.501  0.00  0.00    +0.000 C 
BRANCH  18  19
ATOM     19  N   UNL     1      50.061   4.895  18.782  0.00  0.00    +0.000 N 
ATOM     20  C   UNL     1      51.346   5.179  18.400  0.00  0.00    +0.000 C 
ATOM     21  O   UNL     1      51.645   6.235  17.849  0.00  0.00    +0.000 OA
ATOM     22  H   UNL     1      49.811   3.947  19.043  0.00  0.00    +0.000 HD
BRANCH  20  23
ATOM     23  C   UNL     1      52.363   4.176  18.736  0.00  0.00    +0.000 A 
ATOM     24  C   UNL     1      53.431   4.525  19.554  0.00  0.00    +0.000 A 
ATOM     25  S   UNL     1      54.493   3.231  19.880  0.00  0.00    +0.000 S 
ATOM     26  C   UNL     1      53.594   2.172  18.898  0.00  0.00    +0.000 A 
ATOM     27  N   UNL     1      53.984   0.882  18.723  0.00  0.00    +0.000 NA
ATOM     28  C   UNL     1      53.228   0.199  17.929  0.00  0.00    +0.000 A 
ATOM     29  N   UNL     1      52.111   0.688  17.303  0.00  0.00    +0.000 N 
ATOM     30  C   UNL     1      51.663   1.976  17.476  0.00  0.00    +0.000 A 
ATOM     31  O   UNL     1      50.637   2.366  16.927  0.00  0.00    +0.000 OA
ATOM     32  C   UNL     1      52.486   2.791  18.346  0.00  0.00    +0.000 A 
ATOM     33  H   UNL     1      51.556   0.098  16.702  0.00  0.00    +0.000 HD
ENDBRANCH  20  23
ENDBRANCH  18  19
ENDBRANCH   4  18
TORSDOF 5
ENDMDL
MODEL 4
REMARK VINA RESULT:    -6.852      4.303      9.340
REMARK INTER + INTRA:          -9.643
REMARK INTER:                  -8.580
REMARK INTRA:                  -1.064
REMARK UNBOUND:                -0.788
REMARK  Name = 
REMARK  5 active torsions:
REMARK  status: ('A' for Active; 'I' for Inactive)
REMARK    1  A    between atoms: C_2  and  C_24
REMARK    2  A    between atoms: N_3  and  C_4
REMARK    3  A    between atoms: C_7  and  C_8
REMARK    4  A    between atoms: C_8  and  N_9
REMARK    5  A    between atoms: C_10  and  C_12
REMARK                            x       y       z     vdW  Elec       q    Type
REMARK                         _______ _______ _______ _____ _____    ______ ____
ROOT
ATOM      1  C   UNL     1      48.192   6.297  14.712  0.00  0.00    +0.000 A 
ATOM      2  C   UNL     1      49.227   7.099  14.231  0.00  0.00    +0.000 A 
ATOM      3  C   UNL     1      50.350   7.372  15.016  0.00  0.00    +0.000 A 
ATOM      4  C   UNL     1      50.462   6.841  16.304  0.00  0.00    +0.000 A 
ATOM      5  C   UNL     1      49.390   6.101  16.819  0.00  0.00    +0.000 A 
ATOM      6  C   UNL     1      48.262   5.834  16.031  0.00  0.00    +0.000 A 
ENDROOT
BRANCH   1   9
ATOM      7  O   UNL     1      47.439   3.613  13.785  0.00  0.00    +0.000 OA
ATOM      8  C   UNL     1      46.793   4.623  13.519  0.00  0.00    +0.000 C 
ATOM      9  N   UNL     1      47.079   5.918  13.923  0.00  0.00    +0.000 N 
ATOM     10  H   UNL     1      46.358   6.618  13.802  0.00  0.00    +0.000 HD
BRANCH   8  11
ATOM     11  C   UNL     1      45.542   4.438  12.739  0.00  0.00    +0.000 A 
ATOM     12  C   UNL     1      44.378   5.057  13.220  0.00  0.00    +0.000 A 
ATOM     13  C   UNL     1      43.162   4.885  12.560  0.00  0.00    +0.000 A 
ATOM     14  C   UNL     1      43.103   4.084  11.421  0.00  0.00    +0.000 A 
ATOM     15  C   UNL     1      44.261   3.458  10.951  0.00  0.00    +0.000 A 
ATOM     16 CL   UNL     1      44.172   2.452   9.557  0.00  0.00    +0.000 Cl
ATOM     17  C   UNL     1      45.483   3.628  11.602  0.00  0.00    +0.000 A 
ENDBRANCH   8  11
ENDBRANCH   1   9
BRANCH   4  18
ATOM     18  C   UNL     1      51.702   7.092  17.120  0.00  0.00    +0.000 C 
BRANCH  18  19
ATOM     19  N   UNL     1      52.386   5.864  17.421  0.00  0.00    +0.000 N 
ATOM     20  C   UNL     1      52.461   5.386  18.704  0.00  0.00    +0.000 C 
ATOM     21  O   UNL     1      51.909   5.953  19.644  0.00  0.00    +0.000 OA
ATOM     22  H   UNL     1      53.011   5.498  16.711  0.00  0.00    +0.000 HD
BRANCH  20  23
ATOM     23  C   UNL     1      53.189   4.126  18.890  0.00  0.00    +0.000 A 
ATOM     24  C   UNL     1      54.372   4.117  19.619  0.00  0.00    +0.000 A 
ATOM     25  S   UNL     1      55.064   2.566  19.777  0.00  0.00    +0.000 S 
ATOM     26  C   UNL     1      53.837   1.861  18.833  0.00  0.00    +0.000 A 
ATOM     27  N   UNL     1      53.847   0.530  18.557  0.00  0.00    +0.000 NA
ATOM     28  C   UNL     1      52.874   0.134  17.805  0.00  0.00    +0.000 A 
ATOM     29  N   UNL     1      51.886   0.948  17.314  0.00  0.00    +0.000 N 
ATOM     30  C   UNL     1      51.821   2.293  17.593  0.00  0.00    +0.000 A 
ATOM     31  O   UNL     1      50.900   2.982  17.165  0.00  0.00    +0.000 OA
ATOM     32  C   UNL     1      52.900   2.792  18.420  0.00  0.00    +0.000 A 
ATOM     33  H   UNL     1      51.147   0.575  16.738  0.00  0.00    +0.000 HD
ENDBRANCH  20  23
ENDBRANCH  18  19
ENDBRANCH   4  18
TORSDOF 5
ENDMDL
MODEL 5
REMARK VINA RESULT:    -6.168      7.164      9.224
REMARK INTER + INTRA:          -8.759
REMARK INTER:                  -7.942
REMARK INTRA:                  -0.817
REMARK UNBOUND:                -0.788
REMARK  Name = 
REMARK  5 active torsions:
REMARK  status: ('A' for Active; 'I' for Inactive)
REMARK    1  A    between atoms: C_2  and  C_24
REMARK    2  A    between atoms: N_3  and  C_4
REMARK    3  A    between atoms: C_7  and  C_8
REMARK    4  A    between atoms: C_8  and  N_9
REMARK    5  A    between atoms: C_10  and  C_12
REMARK                            x       y       z     vdW  Elec       q    Type
REMARK                         _______ _______ _______ _____ _____    ______ ____
ROOT
ATOM      1  C   UNL     1      46.660   6.615  13.558  0.00  0.00    +0.000 A 
ATOM      2  C   UNL     1      45.682   6.844  12.589  0.00  0.00    +0.000 A 
ATOM      3  C   UNL     1      44.936   5.789  12.058  0.00  0.00    +0.000 A 
ATOM      4  C   UNL     1      45.151   4.478  12.491  0.00  0.00    +0.000 A 
ATOM      5  C   UNL     1      46.184   4.236  13.405  0.00  0.00    +0.000 A 
ATOM      6  C   UNL     1      46.936   5.295  13.932  0.00  0.00    +0.000 A 
ENDROOT
BRANCH   1   9
ATOM      7  O   UNL     1      49.459   7.412  13.162  0.00  0.00    +0.000 OA
ATOM      8  C   UNL     1      48.707   7.971  13.954  0.00  0.00    +0.000 C 
ATOM      9  N   UNL     1      47.377   7.659  14.192  0.00  0.00    +0.000 N 
ATOM     10  H   UNL     1      46.825   8.325  14.719  0.00  0.00    +0.000 HD
BRANCH   8  11
ATOM     11  C   UNL     1      49.250   9.142  14.690  0.00  0.00    +0.000 A 
ATOM     12  C   UNL     1      50.382   9.778  14.158  0.00  0.00    +0.000 A 
ATOM     13  C   UNL     1      50.967  10.853  14.824  0.00  0.00    +0.000 A 
ATOM     14  C   UNL     1      50.426  11.293  16.031  0.00  0.00    +0.000 A 
ATOM     15  C   UNL     1      49.306  10.652  16.565  0.00  0.00    +0.000 A 
ATOM     16 CL   UNL     1      48.661  11.188  18.068  0.00  0.00    +0.000 Cl
ATOM     17  C   UNL     1      48.711   9.576  15.904  0.00  0.00    +0.000 A 
ENDBRANCH   8  11
ENDBRANCH   1   9
BRANCH   4  18
ATOM     18  C   UNL     1      44.302   3.356  11.955  0.00  0.00    +0.000 C 
BRANCH  18  19
ATOM     19  N   UNL     1      44.999   2.617  10.937  0.00  0.00    +0.000 N 
ATOM     20  C   UNL     1      44.807   2.883   9.606  0.00  0.00    +0.000 C 
ATOM     21  O   UNL     1      44.075   3.793   9.223  0.00  0.00    +0.000 OA
ATOM     22  H   UNL     1      45.436   1.745  11.218  0.00  0.00    +0.000 HD
BRANCH  20  23
ATOM     23  C   UNL     1      45.566   2.060   8.659  0.00  0.00    +0.000 A 
ATOM     24  C   UNL     1      45.459   0.676   8.709  0.00  0.00    +0.000 A 
ATOM     25  S   UNL     1      46.371  -0.125   7.511  0.00  0.00    +0.000 S 
ATOM     26  C   UNL     1      46.984   1.347   6.916  0.00  0.00    +0.000 A 
ATOM     27  N   UNL     1      47.863   1.368   5.879  0.00  0.00    +0.000 NA
ATOM     28  C   UNL     1      48.270   2.549   5.550  0.00  0.00    +0.000 A 
ATOM     29  N   UNL     1      47.869   3.711   6.158  0.00  0.00    +0.000 N 
ATOM     30  C   UNL     1      46.959   3.738   7.189  0.00  0.00    +0.000 A 
ATOM     31  O   UNL     1      46.597   4.801   7.682  0.00  0.00    +0.000 OA
ATOM     32  C   UNL     1      46.483   2.436   7.608  0.00  0.00    +0.000 A 
ATOM     33  H   UNL     1      48.218   4.604   5.846  0.00  0.00    +0.000 HD
ENDBRANCH  20  23
ENDBRANCH  18  19
ENDBRANCH   4  18
TORSDOF 5
ENDMDL
MODEL 6
REMARK VINA RESULT:    -6.129      5.169      9.122
REMARK INTER + INTRA:          -8.708
REMARK INTER:                  -7.532
REMARK INTRA:                  -1.176
REMARK UNBOUND:                -0.788
REMARK  Name = 
REMARK  5 active torsions:
REMARK  status: ('A' for Active; 'I' for Inactive)
REMARK    1  A    between atoms: C_2  and  C_24
REMARK    2  A    between atoms: N_3  and  C_4
REMARK    3  A    between atoms: C_7  and  C_8
REMARK    4  A    between atoms: C_8  and  N_9
REMARK    5  A    between atoms: C_10  and  C_12
REMARK                            x       y       z     vdW  Elec       q    Type
REMARK                         _______ _______ _______ _____ _____    ______ ____
ROOT
ATOM      1  C   UNL     1      47.483   4.070  16.084  0.00  0.00    +0.000 A 
ATOM      2  C   UNL     1      47.819   5.218  16.804  0.00  0.00    +0.000 A 
ATOM      3  C   UNL     1      48.885   5.213  17.708  0.00  0.00    +0.000 A 
ATOM      4  C   UNL     1      49.641   4.055  17.907  0.00  0.00    +0.000 A 
ATOM      5  C   UNL     1      49.257   2.881  17.246  0.00  0.00    +0.000 A 
ATOM      6  C   UNL     1      48.184   2.888  16.344  0.00  0.00    +0.000 A 
ENDROOT
BRANCH   1   9
ATOM      7  O   UNL     1      47.623   5.041  13.315  0.00  0.00    +0.000 OA
ATOM      8  C   UNL     1      46.614   4.537  13.801  0.00  0.00    +0.000 C 
ATOM      9  N   UNL     1      46.473   4.051  15.092  0.00  0.00    +0.000 N 
ATOM     10  H   UNL     1      45.659   3.483  15.294  0.00  0.00    +0.000 HD
BRANCH   8  11
ATOM     11  C   UNL     1      45.443   4.367  12.902  0.00  0.00    +0.000 A 
ATOM     12  C   UNL     1      44.269   5.064  13.225  0.00  0.00    +0.000 A 
ATOM     13  C   UNL     1      43.121   4.911  12.448  0.00  0.00    +0.000 A 
ATOM     14  C   UNL     1      43.141   4.053  11.350  0.00  0.00    +0.000 A 
ATOM     15  C   UNL     1      44.308   3.351  11.037  0.00  0.00    +0.000 A 
ATOM     16 CL   UNL     1      44.315   2.277   9.693  0.00  0.00    +0.000 Cl
ATOM     17  C   UNL     1      45.463   3.501  11.806  0.00  0.00    +0.000 A 
ENDBRANCH   8  11
ENDBRANCH   1   9
BRANCH   4  18
ATOM     18  C   UNL     1      50.823   4.075  18.840  0.00  0.00    +0.000 C 
BRANCH  18  19
ATOM     19  N   UNL     1      51.909   4.840  18.288  0.00  0.00    +0.000 N 
ATOM     20  C   UNL     1      52.295   6.032  18.843  0.00  0.00    +0.000 C 
ATOM     21  O   UNL     1      51.770   6.477  19.861  0.00  0.00    +0.000 OA
ATOM     22  H   UNL     1      52.210   4.601  17.349  0.00  0.00    +0.000 HD
BRANCH  20  23
ATOM     23  C   UNL     1      53.410   6.726  18.189  0.00  0.00    +0.000 A 
ATOM     24  C   UNL     1      54.562   7.010  18.912  0.00  0.00    +0.000 A 
ATOM     25  S   UNL     1      55.775   7.777  17.991  0.00  0.00    +0.000 S 
ATOM     26  C   UNL     1      54.784   7.805  16.607  0.00  0.00    +0.000 A 
ATOM     27  N   UNL     1      55.222   8.361  15.447  0.00  0.00    +0.000 NA
ATOM     28  C   UNL     1      54.358   8.342  14.487  0.00  0.00    +0.000 A 
ATOM     29  N   UNL     1      53.099   7.807  14.581  0.00  0.00    +0.000 N 
ATOM     30  C   UNL     1      52.626   7.208  15.726  0.00  0.00    +0.000 A 
ATOM     31  O   UNL     1      51.507   6.708  15.759  0.00  0.00    +0.000 OA
ATOM     32  C   UNL     1      53.553   7.218  16.839  0.00  0.00    +0.000 A 
ATOM     33  H   UNL     1      52.473   7.814  13.790  0.00  0.00    +0.000 HD
ENDBRANCH  20  23
ENDBRANCH  18  19
ENDBRANCH   4  18
TORSDOF 5
ENDMDL
MODEL 7
REMARK VINA RESULT:    -5.867      4.800      6.264
REMARK INTER + INTRA:          -8.370
REMARK INTER:                  -7.463
REMARK INTRA:                  -0.908
REMARK UNBOUND:                -0.788
REMARK  Name = 
REMARK  5 active torsions:
REMARK  status: ('A' for Active; 'I' for Inactive)
REMARK    1  A    between atoms: C_2  and  C_24
REMARK    2  A    between atoms: N_3  and  C_4
REMARK    3  A    between atoms: C_7  and  C_8
REMARK    4  A    between atoms: C_8  and  N_9
REMARK    5  A    between atoms: C_10  and  C_12
REMARK                            x       y       z     vdW  Elec       q    Type
REMARK                         _______ _______ _______ _____ _____    ______ ____
ROOT
ATOM      1  C   UNL     1      49.551   7.878  15.020  0.00  0.00    +0.000 A 
ATOM      2  C   UNL     1      48.362   8.594  15.170  0.00  0.00    +0.000 A 
ATOM      3  C   UNL     1      47.438   8.678  14.125  0.00  0.00    +0.000 A 
ATOM      4  C   UNL     1      47.684   8.040  12.906  0.00  0.00    +0.000 A 
ATOM      5  C   UNL     1      48.910   7.387  12.727  0.00  0.00    +0.000 A 
ATOM      6  C   UNL     1      49.838   7.310  13.774  0.00  0.00    +0.000 A 
ENDROOT
BRANCH   1   9
ATOM      7  O   UNL     1      50.053   5.447  16.592  0.00  0.00    +0.000 OA
ATOM      8  C   UNL     1      50.649   6.504  16.779  0.00  0.00    +0.000 C 
ATOM      9  N   UNL     1      50.474   7.687  16.077  0.00  0.00    +0.000 N 
ATOM     10  H   UNL     1      51.168   8.414  16.200  0.00  0.00    +0.000 HD
BRANCH   8  11
ATOM     11  C   UNL     1      51.714   6.505  17.815  0.00  0.00    +0.000 A 
ATOM     12  C   UNL     1      52.656   7.545  17.780  0.00  0.00    +0.000 A 
ATOM     13  C   UNL     1      53.706   7.577  18.695  0.00  0.00    +0.000 A 
ATOM     14  C   UNL     1      53.824   6.565  19.646  0.00  0.00    +0.000 A 
ATOM     15  C   UNL     1      52.892   5.525  19.673  0.00  0.00    +0.000 A 
ATOM     16 CL   UNL     1      53.060   4.267  20.836  0.00  0.00    +0.000 Cl
ATOM     17  C   UNL     1      51.834   5.485  18.762  0.00  0.00    +0.000 A 
ENDBRANCH   8  11
ENDBRANCH   1   9
BRANCH   4  18
ATOM     18  C   UNL     1      46.655   8.088  11.807  0.00  0.00    +0.000 C 
BRANCH  18  19
ATOM     19  N   UNL     1      46.207   6.768  11.456  0.00  0.00    +0.000 N 
ATOM     20  C   UNL     1      44.934   6.349  11.743  0.00  0.00    +0.000 C 
ATOM     21  O   UNL     1      44.105   7.091  12.264  0.00  0.00    +0.000 OA
ATOM     22  H   UNL     1      46.920   6.086  11.221  0.00  0.00    +0.000 HD
BRANCH  20  23
ATOM     23  C   UNL     1      44.591   4.979  11.344  0.00  0.00    +0.000 A 
ATOM     24  C   UNL     1      43.853   4.175  12.203  0.00  0.00    +0.000 A 
ATOM     25  S   UNL     1      43.505   2.632  11.566  0.00  0.00    +0.000 S 
ATOM     26  C   UNL     1      44.373   2.964  10.141  0.00  0.00    +0.000 A 
ATOM     27  N   UNL     1      44.489   2.029   9.161  0.00  0.00    +0.000 NA
ATOM     28  C   UNL     1      45.200   2.402   8.150  0.00  0.00    +0.000 A 
ATOM     29  N   UNL     1      45.795   3.631   8.025  0.00  0.00    +0.000 N 
ATOM     30  C   UNL     1      45.678   4.617   8.976  0.00  0.00    +0.000 A 
ATOM     31  O   UNL     1      46.195   5.717   8.812  0.00  0.00    +0.000 OA
ATOM     32  C   UNL     1      44.903   4.242  10.141  0.00  0.00    +0.000 A 
ATOM     33  H   UNL     1      46.330   3.865   7.203  0.00  0.00    +0.000 HD
ENDBRANCH  20  23
ENDBRANCH  18  19
ENDBRANCH   4  18
TORSDOF 5
ENDMDL
MODEL 8
REMARK VINA RESULT:    -5.406     12.029     14.508
REMARK INTER + INTRA:          -7.774
REMARK INTER:                  -6.874
REMARK INTRA:                  -0.900
REMARK UNBOUND:                -0.788
REMARK  Name = 
REMARK  5 active torsions:
REMARK  status: ('A' for Active; 'I' for Inactive)
REMARK    1  A    between atoms: C_2  and  C_24
REMARK    2  A    between atoms: N_3  and  C_4
REMARK    3  A    between atoms: C_7  and  C_8
REMARK    4  A    between atoms: C_8  and  N_9
REMARK    5  A    between atoms: C_10  and  C_12
REMARK                            x       y       z     vdW  Elec       q    Type
REMARK                         _______ _______ _______ _____ _____    ______ ____
ROOT
ATOM      1  C   UNL     1      38.757  -2.928  10.566  0.00  0.00    +0.000 A 
ATOM      2  C   UNL     1      37.911  -1.834  10.374  0.00  0.00    +0.000 A 
ATOM      3  C   UNL     1      37.311  -1.599   9.135  0.00  0.00    +0.000 A 
ATOM      4  C   UNL     1      37.542  -2.459   8.058  0.00  0.00    +0.000 A 
ATOM      5  C   UNL     1      38.451  -3.511   8.225  0.00  0.00    +0.000 A 
ATOM      6  C   UNL     1      39.057  -3.743   9.468  0.00  0.00    +0.000 A 
ENDROOT
BRANCH   1   9
ATOM      7  O   UNL     1      41.246  -1.946  11.778  0.00  0.00    +0.000 OA
ATOM      8  C   UNL     1      40.505  -2.757  12.326  0.00  0.00    +0.000 C 
ATOM      9  N   UNL     1      39.314  -3.261  11.824  0.00  0.00    +0.000 N 
ATOM     10  H   UNL     1      38.710  -3.762  12.463  0.00  0.00    +0.000 HD
BRANCH   8  11
ATOM     11  C   UNL     1      40.880  -3.197  13.695  0.00  0.00    +0.000 A 
ATOM     12  C   UNL     1      41.521  -4.439  13.827  0.00  0.00    +0.000 A 
ATOM     13  C   UNL     1      41.857  -4.930  15.087  0.00  0.00    +0.000 A 
ATOM     14  C   UNL     1      41.545  -4.185  16.223  0.00  0.00    +0.000 A 
ATOM     15  C   UNL     1      40.896  -2.954  16.091  0.00  0.00    +0.000 A 
ATOM     16 CL   UNL     1      40.495  -2.054  17.501  0.00  0.00    +0.000 Cl
ATOM     17  C   UNL     1      40.560  -2.452  14.833  0.00  0.00    +0.000 A 
ENDBRANCH   8  11
ENDBRANCH   1   9
BRANCH   4  18
ATOM     18  C   UNL     1      36.845  -2.229   6.743  0.00  0.00    +0.000 C 
BRANCH  18  19
ATOM     19  N   UNL     1      37.603  -1.345   5.899  0.00  0.00    +0.000 N 
ATOM     20  C   UNL     1      37.023  -0.705   4.835  0.00  0.00    +0.000 C 
ATOM     21  O   UNL     1      35.826  -0.814   4.583  0.00  0.00    +0.000 OA
ATOM     22  H   UNL     1      38.614  -1.403   5.962  0.00  0.00    +0.000 HD
BRANCH  20  23
ATOM     23  C   UNL     1      37.897   0.166   4.042  0.00  0.00    +0.000 A 
ATOM     24  C   UNL     1      38.277  -0.220   2.763  0.00  0.00    +0.000 A 
ATOM     25  S   UNL     1      39.254   0.927   1.965  0.00  0.00    +0.000 S 
ATOM     26  C   UNL     1      39.248   1.957   3.319  0.00  0.00    +0.000 A 
ATOM     27  N   UNL     1      39.933   3.132   3.306  0.00  0.00    +0.000 NA
ATOM     28  C   UNL     1      39.867   3.799   4.409  0.00  0.00    +0.000 A 
ATOM     29  N   UNL     1      39.170   3.403   5.521  0.00  0.00    +0.000 N 
ATOM     30  C   UNL     1      38.439   2.239   5.568  0.00  0.00    +0.000 A 
ATOM     31  O   UNL     1      37.798   1.937   6.569  0.00  0.00    +0.000 OA
ATOM     32  C   UNL     1      38.493   1.443   4.359  0.00  0.00    +0.000 A 
ATOM     33  H   UNL     1      39.150   3.976   6.351  0.00  0.00    +0.000 HD
ENDBRANCH  20  23
ENDBRANCH  18  19
ENDBRANCH   4  18
TORSDOF 5
ENDMDL
MODEL 9
REMARK VINA RESULT:    -5.066     11.151     13.925
REMARK INTER + INTRA:          -7.335
REMARK INTER:                  -6.354
REMARK INTRA:                  -0.980
REMARK UNBOUND:                -0.788
REMARK  Name = 
REMARK  5 active torsions:
REMARK  status: ('A' for Active; 'I' for Inactive)
REMARK    1  A    between atoms: C_2  and  C_24
REMARK    2  A    between atoms: N_3  and  C_4
REMARK    3  A    between atoms: C_7  and  C_8
REMARK    4  A    between atoms: C_8  and  N_9
REMARK    5  A    between atoms: C_10  and  C_12
REMARK                            x       y       z     vdW  Elec       q    Type
REMARK                         _______ _______ _______ _____ _____    ______ ____
ROOT
ATOM      1  C   UNL     1      40.969  -3.860  13.720  0.00  0.00    +0.000 A 
ATOM      2  C   UNL     1      41.400  -2.834  12.878  0.00  0.00    +0.000 A 
ATOM      3  C   UNL     1      40.732  -2.557  11.683  0.00  0.00    +0.000 A 
ATOM      4  C   UNL     1      39.612  -3.302  11.306  0.00  0.00    +0.000 A 
ATOM      5  C   UNL     1      39.224  -4.383  12.109  0.00  0.00    +0.000 A 
ATOM      6  C   UNL     1      39.900  -4.662  13.305  0.00  0.00    +0.000 A 
ENDROOT
BRANCH   1   9
ATOM      7  O   UNL     1      40.336  -2.635  16.314  0.00  0.00    +0.000 OA
ATOM      8  C   UNL     1      41.203  -3.491  16.169  0.00  0.00    +0.000 C 
ATOM      9  N   UNL     1      41.555  -4.119  14.983  0.00  0.00    +0.000 N 
ATOM     10  H   UNL     1      42.141  -4.942  15.044  0.00  0.00    +0.000 HD
BRANCH   8  11
ATOM     11  C   UNL     1      41.908  -3.953  17.392  0.00  0.00    +0.000 A 
ATOM     12  C   UNL     1      41.243  -3.813  18.619  0.00  0.00    +0.000 A 
ATOM     13  C   UNL     1      41.868  -4.184  19.809  0.00  0.00    +0.000 A 
ATOM     14  C   UNL     1      43.166  -4.691  19.776  0.00  0.00    +0.000 A 
ATOM     15  C   UNL     1      43.832  -4.819  18.554  0.00  0.00    +0.000 A 
ATOM     16 CL   UNL     1      45.443  -5.423  18.528  0.00  0.00    +0.000 Cl
ATOM     17  C   UNL     1      43.213  -4.453  17.358  0.00  0.00    +0.000 A 
ENDBRANCH   8  11
ENDBRANCH   1   9
BRANCH   4  18
ATOM     18  C   UNL     1      38.865  -2.959  10.044  0.00  0.00    +0.000 C 
BRANCH  18  19
ATOM     19  N   UNL     1      39.392  -3.676   8.915  0.00  0.00    +0.000 N 
ATOM     20  C   UNL     1      38.827  -4.850   8.490  0.00  0.00    +0.000 C 
ATOM     21  O   UNL     1      37.819  -5.316   9.016  0.00  0.00    +0.000 OA
ATOM     22  H   UNL     1      40.325  -3.425   8.604  0.00  0.00    +0.000 HD
BRANCH  20  23
ATOM     23  C   UNL     1      39.455  -5.495   7.332  0.00  0.00    +0.000 A 
ATOM     24  C   UNL     1      40.143  -6.690   7.499  0.00  0.00    +0.000 A 
ATOM     25  S   UNL     1      40.772  -7.326   6.047  0.00  0.00    +0.000 S 
ATOM     26  C   UNL     1      40.192  -6.001   5.151  0.00  0.00    +0.000 A 
ATOM     27  N   UNL     1      40.416  -5.912   3.813  0.00  0.00    +0.000 NA
ATOM     28  C   UNL     1      39.948  -4.840   3.264  0.00  0.00    +0.000 A 
ATOM     29  N   UNL     1      39.266  -3.855   3.932  0.00  0.00    +0.000 N 
ATOM     30  C   UNL     1      38.991  -3.920   5.277  0.00  0.00    +0.000 A 
ATOM     31  O   UNL     1      38.346  -3.036   5.832  0.00  0.00    +0.000 OA
ATOM     32  C   UNL     1      39.510  -5.096   5.944  0.00  0.00    +0.000 A 
ATOM     33  H   UNL     1      38.917  -3.046   3.442  0.00  0.00    +0.000 HD
ENDBRANCH  20  23
ENDBRANCH  18  19
ENDBRANCH   4  18
TORSDOF 5
ENDMDL
