MODEL 1
REMARK VINA RESULT:    -8.129      0.000      0.000
REMARK INTER + INTRA:         -11.137
REMARK INTER:                 -10.505
REMARK INTRA:                  -0.632
REMARK UNBOUND:                -0.632
REMARK  Name = 
REMARK  5 active torsions:
REMARK  status: ('A' for Active; 'I' for Inactive)
REMARK    1  A    between atoms: C_2  and  C_18
REMARK    2  A    between atoms: N_3  and  C_4
REMARK    3  A    between atoms: C_4  and  C_5
REMARK    4  A    between atoms: C_8  and  C_9
REMARK    5  A    between atoms: C_9  and  C_10
REMARK                            x       y       z     vdW  Elec       q    Type
REMARK                         _______ _______ _______ _____ _____    ______ ____
ROOT
ATOM      1  O   UNL     1      48.387   6.715  12.618  0.00  0.00    +0.000 OA
ATOM      2  C   UNL     1      47.727   6.610  13.648  0.00  0.00    +0.000 C 
ATOM      3  N   UNL     1      46.363   6.750  13.663  0.00  0.00    +0.000 N 
ATOM      4  H   UNL     1      45.882   6.818  14.553  0.00  0.00    +0.000 HD
ENDROOT
BRANCH   2   5
ATOM      5  C   UNL     1      48.358   6.279  14.930  0.00  0.00    +0.000 A 
ATOM      6  C   UNL     1      49.331   7.121  15.455  0.00  0.00    +0.000 A 
ATOM      7  S   UNL     1      49.958   6.593  16.949  0.00  0.00    +0.000 S 
ATOM      8  C   UNL     1      48.921   5.245  16.970  0.00  0.00    +0.000 A 
ATOM      9  N   UNL     1      48.917   4.382  18.022  0.00  0.00    +0.000 NA
ATOM     10  C   UNL     1      48.055   3.427  17.927  0.00  0.00    +0.000 A 
ATOM     11  N   UNL     1      47.205   3.246  16.865  0.00  0.00    +0.000 N 
ATOM     12  C   UNL     1      47.232   4.042  15.744  0.00  0.00    +0.000 A 
ATOM     13  O   UNL     1      46.569   3.765  14.750  0.00  0.00    +0.000 OA
ATOM     14  C   UNL     1      48.138   5.172  15.832  0.00  0.00    +0.000 A 
ATOM     15  H   UNL     1      46.577   2.456  16.836  0.00  0.00    +0.000 HD
ENDBRANCH   2   5
BRANCH   3  16
ATOM     16  C   UNL     1      45.612   7.127  12.493  0.00  0.00    +0.000 C 
BRANCH  16  17
ATOM     17  C   UNL     1      45.353   5.952  11.600  0.00  0.00    +0.000 A 
ATOM     18  C   UNL     1      44.631   4.845  12.047  0.00  0.00    +0.000 A 
ATOM     19  C   UNL     1      44.369   3.792  11.176  0.00  0.00    +0.000 A 
ATOM     20  C   UNL     1      44.854   3.862   9.873  0.00  0.00    +0.000 A 
ATOM     21  N   UNL     1      45.595   4.907   9.425  0.00  0.00    +0.000 NA
ATOM     22  C   UNL     1      45.831   5.916  10.296  0.00  0.00    +0.000 A 
BRANCH  20  23
ATOM     23  C   UNL     1      44.490   2.800   8.863  0.00  0.00    +0.000 C 
BRANCH  23  24
ATOM     24  C   UNL     1      45.613   2.526   7.897  0.00  0.00    +0.000 A 
ATOM     25  C   UNL     1      46.407   1.388   8.033  0.00  0.00    +0.000 A 
ATOM     26  N   UNL     1      47.455   1.117   7.218  0.00  0.00    +0.000 NA
ATOM     27  C   UNL     1      47.684   2.035   6.253  0.00  0.00    +0.000 A 
ATOM     28  C   UNL     1      46.895   3.162   6.099  0.00  0.00    +0.000 A 
ATOM     29  N   UNL     1      45.846   3.434   6.911  0.00  0.00    +0.000 NA
ENDBRANCH  23  24
ENDBRANCH  20  23
ENDBRANCH  16  17
ENDBRANCH   3  16
TORSDOF 5
ENDMDL
MODEL 2
REMARK VINA RESULT:    -7.936      0.911      1.437
REMARK INTER + INTRA:         -10.888
REMARK INTER:                 -10.597
REMARK INTRA:                  -0.291
REMARK UNBOUND:                -0.632
REMARK  Name = 
REMARK  5 active torsions:
REMARK  status: ('A' for Active; 'I' for Inactive)
REMARK    1  A    between atoms: C_2  and  C_18
REMARK    2  A    between atoms: N_3  and  C_4
REMARK    3  A    between atoms: C_4  and  C_5
REMARK    4  A    between atoms: C_8  and  C_9
REMARK    5  A    between atoms: C_9  and  C_10
REMARK                            x       y       z     vdW  Elec       q    Type
REMARK                         _______ _______ _______ _____ _____    ______ ____
ROOT
ATOM      1  O   UNL     1      49.025   6.788  13.198  0.00  0.00    +0.000 OA
ATOM      2  C   UNL     1      48.219   6.672  14.118  0.00  0.00    +0.000 C 
ATOM      3  N   UNL     1      46.880   6.915  13.954  0.00  0.00    +0.000 N 
ATOM      4  H   UNL     1      46.282   6.966  14.771  0.00  0.00    +0.000 HD
ENDROOT
BRANCH   2   5
ATOM      5  C   UNL     1      48.638   6.216  15.448  0.00  0.00    +0.000 A 
ATOM      6  C   UNL     1      49.569   6.956  16.166  0.00  0.00    +0.000 A 
ATOM      7  S   UNL     1      49.941   6.291  17.690  0.00  0.00    +0.000 S 
ATOM      8  C   UNL     1      48.837   5.016  17.464  0.00  0.00    +0.000 A 
ATOM      9  N   UNL     1      48.632   4.089  18.438  0.00  0.00    +0.000 NA
ATOM     10  C   UNL     1      47.741   3.202  18.152  0.00  0.00    +0.000 A 
ATOM     11  N   UNL     1      47.045   3.147  16.969  0.00  0.00    +0.000 N 
ATOM     12  C   UNL     1      47.280   4.011  15.926  0.00  0.00    +0.000 A 
ATOM     13  O   UNL     1      46.754   3.844  14.830  0.00  0.00    +0.000 OA
ATOM     14  C   UNL     1      48.226   5.070  16.224  0.00  0.00    +0.000 A 
ATOM     15  H   UNL     1      46.384   2.404  16.794  0.00  0.00    +0.000 HD
ENDBRANCH   2   5
BRANCH   3  16
ATOM     16  C   UNL     1      46.331   7.418  12.721  0.00  0.00    +0.000 C 
BRANCH  16  17
ATOM     17  C   UNL     1      45.805   6.313  11.857  0.00  0.00    +0.000 A 
ATOM     18  C   UNL     1      46.129   6.232  10.502  0.00  0.00    +0.000 A 
ATOM     19  C   UNL     1      45.660   5.166   9.741  0.00  0.00    +0.000 A 
ATOM     20  C   UNL     1      44.858   4.207  10.351  0.00  0.00    +0.000 A 
ATOM     21  N   UNL     1      44.493   4.283  11.656  0.00  0.00    +0.000 NA
ATOM     22  C   UNL     1      44.966   5.331  12.371  0.00  0.00    +0.000 A 
BRANCH  20  23
ATOM     23  C   UNL     1      44.430   2.972   9.594  0.00  0.00    +0.000 C 
BRANCH  23  24
ATOM     24  C   UNL     1      45.408   2.602   8.510  0.00  0.00    +0.000 A 
ATOM     25  C   UNL     1      45.642   3.462   7.438  0.00  0.00    +0.000 A 
ATOM     26  N   UNL     1      46.478   3.159   6.416  0.00  0.00    +0.000 NA
ATOM     27  C   UNL     1      47.078   1.952   6.505  0.00  0.00    +0.000 A 
ATOM     28  C   UNL     1      46.866   1.094   7.570  0.00  0.00    +0.000 A 
ATOM     29  N   UNL     1      46.032   1.395   8.594  0.00  0.00    +0.000 NA
ENDBRANCH  23  24
ENDBRANCH  20  23
ENDBRANCH  16  17
ENDBRANCH   3  16
TORSDOF 5
ENDMDL
MODEL 3
REMARK VINA RESULT:    -7.540      2.877      3.552
REMARK INTER + INTRA:         -10.376
REMARK INTER:                  -9.574
REMARK INTRA:                  -0.802
REMARK UNBOUND:                -0.632
REMARK  Name = 
REMARK  5 active torsions:
REMARK  status: ('A' for Active; 'I' for Inactive)
REMARK    1  A    between atoms: C_2  and  C_18
REMARK    2  A    between atoms: N_3  and  C_4
REMARK    3  A    between atoms: C_4  and  C_5
REMARK    4  A    between atoms: C_8  and  C_9
REMARK    5  A    between atoms: C_9  and  C_10
REMARK                            x       y       z     vdW  Elec       q    Type
REMARK                         _______ _______ _______ _____ _____    ______ ____
ROOT
ATOM      1  O   UNL     1      45.045   8.173  11.173  0.00  0.00    +0.000 OA
ATOM      2  C   UNL     1      45.752   7.988  12.160  0.00  0.00    +0.000 C 
ATOM      3  N   UNL     1      45.499   6.991  13.067  0.00  0.00    +0.000 N 
ATOM      4  H   UNL     1      46.006   6.980  13.945  0.00  0.00    +0.000 HD
ENDROOT
BRANCH   2   5
ATOM      5  C   UNL     1      46.948   8.801  12.407  0.00  0.00    +0.000 A 
ATOM      6  C   UNL     1      46.887  10.180  12.244  0.00  0.00    +0.000 A 
ATOM      7  S   UNL     1      48.359  10.972  12.574  0.00  0.00    +0.000 S 
ATOM      8  C   UNL     1      49.117   9.507  12.991  0.00  0.00    +0.000 A 
ATOM      9  N   UNL     1      50.408   9.485  13.421  0.00  0.00    +0.000 NA
ATOM     10  C   UNL     1      50.845   8.315  13.741  0.00  0.00    +0.000 A 
ATOM     11  N   UNL     1      50.112   7.157  13.655  0.00  0.00    +0.000 N 
ATOM     12  C   UNL     1      48.835   7.120  13.149  0.00  0.00    +0.000 A 
ATOM     13  O   UNL     1      48.262   6.055  12.942  0.00  0.00    +0.000 OA
ATOM     14  C   UNL     1      48.274   8.421  12.837  0.00  0.00    +0.000 A 
ATOM     15  H   UNL     1      50.525   6.266  13.889  0.00  0.00    +0.000 HD
ENDBRANCH   2   5
BRANCH   3  16
ATOM     16  C   UNL     1      44.333   6.150  12.984  0.00  0.00    +0.000 C 
BRANCH  16  17
ATOM     17  C   UNL     1      44.493   5.084  11.944  0.00  0.00    +0.000 A 
ATOM     18  C   UNL     1      45.376   4.018  12.124  0.00  0.00    +0.000 A 
ATOM     19  C   UNL     1      45.465   3.022  11.157  0.00  0.00    +0.000 A 
ATOM     20  C   UNL     1      44.676   3.123  10.014  0.00  0.00    +0.000 A 
ATOM     21  N   UNL     1      43.842   4.170   9.794  0.00  0.00    +0.000 NA
ATOM     22  C   UNL     1      43.776   5.122  10.753  0.00  0.00    +0.000 A 
BRANCH  20  23
ATOM     23  C   UNL     1      44.652   2.005   8.999  0.00  0.00    +0.000 C 
BRANCH  23  24
ATOM     24  C   UNL     1      45.764   2.128   7.991  0.00  0.00    +0.000 A 
ATOM     25  C   UNL     1      46.720   1.122   7.859  0.00  0.00    +0.000 A 
ATOM     26  N   UNL     1      47.764   1.203   6.999  0.00  0.00    +0.000 NA
ATOM     27  C   UNL     1      47.819   2.338   6.268  0.00  0.00    +0.000 A 
ATOM     28  C   UNL     1      46.869   3.338   6.380  0.00  0.00    +0.000 A 
ATOM     29  N   UNL     1      45.824   3.260   7.237  0.00  0.00    +0.000 NA
ENDBRANCH  23  24
ENDBRANCH  20  23
ENDBRANCH  16  17
ENDBRANCH   3  16
TORSDOF 5
ENDMDL
MODEL 4
REMARK VINA RESULT:    -7.355      2.377      3.912
REMARK INTER + INTRA:         -10.137
REMARK INTER:                  -9.191
REMARK INTRA:                  -0.946
REMARK UNBOUND:                -0.632
REMARK  Name = 
REMARK  5 active torsions:
REMARK  status: ('A' for Active; 'I' for Inactive)
REMARK    1  A    between atoms: C_2  and  C_18
REMARK    2  A    between atoms: N_3  and  C_4
REMARK    3  A    between atoms: C_4  and  C_5
REMARK    4  A    between atoms: C_8  and  C_9
REMARK    5  A    between atoms: C_9  and  C_10
REMARK                            x       y       z     vdW  Elec       q    Type
REMARK                         _______ _______ _______ _____ _____    ______ ____
ROOT
ATOM      1  O   UNL     1      48.751   5.506  15.802  0.00  0.00    +0.000 OA
ATOM      2  C   UNL     1      48.259   6.363  15.073  0.00  0.00    +0.000 C 
ATOM      3  N   UNL     1      47.147   6.124  14.309  0.00  0.00    +0.000 N 
ATOM      4  H   UNL     1      46.875   6.801  13.604  0.00  0.00    +0.000 HD
ENDROOT
BRANCH   2   5
ATOM      5  C   UNL     1      48.810   7.721  15.011  0.00  0.00    +0.000 A 
ATOM      6  C   UNL     1      48.895   8.482  16.170  0.00  0.00    +0.000 A 
ATOM      7  S   UNL     1      49.560  10.031  15.924  0.00  0.00    +0.000 S 
ATOM      8  C   UNL     1      49.800   9.725  14.268  0.00  0.00    +0.000 A 
ATOM      9  N   UNL     1      50.389  10.651  13.464  0.00  0.00    +0.000 NA
ATOM     10  C   UNL     1      50.545  10.274  12.240  0.00  0.00    +0.000 A 
ATOM     11  N   UNL     1      50.151   9.058  11.742  0.00  0.00    +0.000 N 
ATOM     12  C   UNL     1      49.479   8.125  12.495  0.00  0.00    +0.000 A 
ATOM     13  O   UNL     1      49.005   7.115  11.986  0.00  0.00    +0.000 OA
ATOM     14  C   UNL     1      49.338   8.475  13.897  0.00  0.00    +0.000 A 
ATOM     15  H   UNL     1      50.272   8.837  10.763  0.00  0.00    +0.000 HD
ENDBRANCH   2   5
BRANCH   3  16
ATOM     16  C   UNL     1      46.529   4.826  14.227  0.00  0.00    +0.000 C 
BRANCH  16  17
ATOM     17  C   UNL     1      45.964   4.567  12.863  0.00  0.00    +0.000 A 
ATOM     18  C   UNL     1      45.932   5.565  11.888  0.00  0.00    +0.000 A 
ATOM     19  C   UNL     1      45.442   5.277  10.619  0.00  0.00    +0.000 A 
ATOM     20  C   UNL     1      44.976   3.992  10.354  0.00  0.00    +0.000 A 
ATOM     21  N   UNL     1      44.957   3.015  11.296  0.00  0.00    +0.000 NA
ATOM     22  C   UNL     1      45.441   3.326  12.521  0.00  0.00    +0.000 A 
BRANCH  20  23
ATOM     23  C   UNL     1      44.551   3.603   8.958  0.00  0.00    +0.000 C 
BRANCH  23  24
ATOM     24  C   UNL     1      45.645   2.889   8.209  0.00  0.00    +0.000 A 
ATOM     25  C   UNL     1      46.454   3.576   7.305  0.00  0.00    +0.000 A 
ATOM     26  N   UNL     1      47.423   2.972   6.575  0.00  0.00    +0.000 NA
ATOM     27  C   UNL     1      47.553   1.643   6.781  0.00  0.00    +0.000 A 
ATOM     28  C   UNL     1      46.766   0.952   7.685  0.00  0.00    +0.000 A 
ATOM     29  N   UNL     1      45.798   1.553   8.418  0.00  0.00    +0.000 NA
ENDBRANCH  23  24
ENDBRANCH  20  23
ENDBRANCH  16  17
ENDBRANCH   3  16
TORSDOF 5
ENDMDL
MODEL 5
REMARK VINA RESULT:    -7.199      3.952      9.018
REMARK INTER + INTRA:          -9.935
REMARK INTER:                  -9.426
REMARK INTRA:                  -0.509
REMARK UNBOUND:                -0.632
REMARK  Name = 
REMARK  5 active torsions:
REMARK  status: ('A' for Active; 'I' for Inactive)
REMARK    1  A    between atoms: C_2  and  C_18
REMARK    2  A    between atoms: N_3  and  C_4
REMARK    3  A    between atoms: C_4  and  C_5
REMARK    4  A    between atoms: C_8  and  C_9
REMARK    5  A    between atoms: C_9  and  C_10
REMARK                            x       y       z     vdW  Elec       q    Type
REMARK                         _______ _______ _______ _____ _____    ______ ____
ROOT
ATOM      1  O   UNL     1      47.182   3.114  13.870  0.00  0.00    +0.000 OA
ATOM      2  C   UNL     1      46.730   4.151  14.348  0.00  0.00    +0.000 C 
ATOM      3  N   UNL     1      46.766   4.415  15.693  0.00  0.00    +0.000 N 
ATOM      4  H   UNL     1      46.239   5.201  16.057  0.00  0.00    +0.000 HD
ENDROOT
BRANCH   2   5
ATOM      5  C   UNL     1      46.163   5.202  13.495  0.00  0.00    +0.000 A 
ATOM      6  C   UNL     1      46.926   6.320  13.184  0.00  0.00    +0.000 A 
ATOM      7  S   UNL     1      46.121   7.439  12.183  0.00  0.00    +0.000 S 
ATOM      8  C   UNL     1      44.741   6.449  12.093  0.00  0.00    +0.000 A 
ATOM      9  N   UNL     1      43.669   6.810  11.337  0.00  0.00    +0.000 NA
ATOM     10  C   UNL     1      42.708   5.950  11.326  0.00  0.00    +0.000 A 
ATOM     11  N   UNL     1      42.714   4.764  12.018  0.00  0.00    +0.000 N 
ATOM     12  C   UNL     1      43.738   4.397  12.858  0.00  0.00    +0.000 A 
ATOM     13  O   UNL     1      43.648   3.408  13.578  0.00  0.00    +0.000 OA
ATOM     14  C   UNL     1      44.873   5.301  12.853  0.00  0.00    +0.000 A 
ATOM     15  H   UNL     1      41.914   4.149  11.994  0.00  0.00    +0.000 HD
ENDBRANCH   2   5
BRANCH   3  16
ATOM     16  C   UNL     1      47.244   3.457  16.656  0.00  0.00    +0.000 C 
BRANCH  16  17
ATOM     17  C   UNL     1      48.689   3.680  16.987  0.00  0.00    +0.000 A 
ATOM     18  C   UNL     1      49.522   2.621  17.351  0.00  0.00    +0.000 A 
ATOM     19  C   UNL     1      50.869   2.858  17.607  0.00  0.00    +0.000 A 
ATOM     20  C   UNL     1      51.352   4.160  17.510  0.00  0.00    +0.000 A 
ATOM     21  N   UNL     1      50.555   5.213  17.200  0.00  0.00    +0.000 NA
ATOM     22  C   UNL     1      49.250   4.951  16.956  0.00  0.00    +0.000 A 
BRANCH  20  23
ATOM     23  C   UNL     1      52.829   4.442  17.660  0.00  0.00    +0.000 C 
BRANCH  23  24
ATOM     24  C   UNL     1      53.571   3.280  18.267  0.00  0.00    +0.000 A 
ATOM     25  C   UNL     1      53.692   3.157  19.650  0.00  0.00    +0.000 A 
ATOM     26  N   UNL     1      54.385   2.155  20.245  0.00  0.00    +0.000 NA
ATOM     27  C   UNL     1      54.959   1.273  19.398  0.00  0.00    +0.000 A 
ATOM     28  C   UNL     1      54.834   1.376  18.023  0.00  0.00    +0.000 A 
ATOM     29  N   UNL     1      54.141   2.375  17.426  0.00  0.00    +0.000 NA
ENDBRANCH  23  24
ENDBRANCH  20  23
ENDBRANCH  16  17
ENDBRANCH   3  16
TORSDOF 5
ENDMDL
MODEL 6
REMARK VINA RESULT:    -7.184      2.230      3.010
REMARK INTER + INTRA:          -9.916
REMARK INTER:                  -9.358
REMARK INTRA:                  -0.558
REMARK UNBOUND:                -0.632
REMARK  Name = 
REMARK  5 active torsions:
REMARK  status: ('A' for Active; 'I' for Inactive)
REMARK    1  A    between atoms: C_2  and  C_18
REMARK    2  A    between atoms: N_3  and  C_4
REMARK    3  A    between atoms: C_4  and  C_5
REMARK    4  A    between atoms: C_8  and  C_9
REMARK    5  A    between atoms: C_9  and  C_10
REMARK                            x       y       z     vdW  Elec       q    Type
REMARK                         _______ _______ _______ _____ _____    ______ ____
ROOT
ATOM      1  O   UNL     1      47.889   4.955  13.794  0.00  0.00    +0.000 OA
ATOM      2  C   UNL     1      47.716   6.130  13.478  0.00  0.00    +0.000 C 
ATOM      3  N   UNL     1      46.468   6.655  13.265  0.00  0.00    +0.000 N 
ATOM      4  H   UNL     1      46.383   7.577  12.849  0.00  0.00    +0.000 HD
ENDROOT
BRANCH   2   5
ATOM      5  C   UNL     1      48.842   7.062  13.355  0.00  0.00    +0.000 A 
ATOM      6  C   UNL     1      49.014   7.781  12.179  0.00  0.00    +0.000 A 
ATOM      7  S   UNL     1      50.364   8.819  12.204  0.00  0.00    +0.000 S 
ATOM      8  C   UNL     1      50.743   8.379  13.803  0.00  0.00    +0.000 A 
ATOM      9  N   UNL     1      51.790   8.951  14.457  0.00  0.00    +0.000 NA
ATOM     10  C   UNL     1      51.940   8.554  15.675  0.00  0.00    +0.000 A 
ATOM     11  N   UNL     1      51.145   7.624  16.297  0.00  0.00    +0.000 N 
ATOM     12  C   UNL     1      50.130   6.960  15.651  0.00  0.00    +0.000 A 
ATOM     13  O   UNL     1      49.538   6.027  16.184  0.00  0.00    +0.000 OA
ATOM     14  C   UNL     1      49.878   7.418  14.297  0.00  0.00    +0.000 A 
ATOM     15  H   UNL     1      51.338   7.331  17.244  0.00  0.00    +0.000 HD
ENDBRANCH   2   5
BRANCH   3  16
ATOM     16  C   UNL     1      45.274   5.850  13.297  0.00  0.00    +0.000 C 
BRANCH  16  17
ATOM     17  C   UNL     1      45.128   5.027  12.054  0.00  0.00    +0.000 A 
ATOM     18  C   UNL     1      44.685   3.705  12.105  0.00  0.00    +0.000 A 
ATOM     19  C   UNL     1      44.518   2.985  10.926  0.00  0.00    +0.000 A 
ATOM     20  C   UNL     1      44.816   3.602   9.715  0.00  0.00    +0.000 A 
ATOM     21  N   UNL     1      45.289   4.872   9.639  0.00  0.00    +0.000 NA
ATOM     22  C   UNL     1      45.440   5.546  10.803  0.00  0.00    +0.000 A 
BRANCH  20  23
ATOM     23  C   UNL     1      44.533   2.900   8.408  0.00  0.00    +0.000 C 
BRANCH  23  24
ATOM     24  C   UNL     1      45.790   2.632   7.623  0.00  0.00    +0.000 A 
ATOM     25  C   UNL     1      46.540   1.479   7.853  0.00  0.00    +0.000 A 
ATOM     26  N   UNL     1      47.700   1.212   7.205  0.00  0.00    +0.000 NA
ATOM     27  C   UNL     1      48.088   2.149   6.312  0.00  0.00    +0.000 A 
ATOM     28  C   UNL     1      47.345   3.290   6.065  0.00  0.00    +0.000 A 
ATOM     29  N   UNL     1      46.185   3.559   6.709  0.00  0.00    +0.000 NA
ENDBRANCH  23  24
ENDBRANCH  20  23
ENDBRANCH  16  17
ENDBRANCH   3  16
TORSDOF 5
ENDMDL
MODEL 7
REMARK VINA RESULT:    -7.034      2.565      3.477
REMARK INTER + INTRA:          -9.722
REMARK INTER:                  -9.103
REMARK INTRA:                  -0.619
REMARK UNBOUND:                -0.632
REMARK  Name = 
REMARK  5 active torsions:
REMARK  status: ('A' for Active; 'I' for Inactive)
REMARK    1  A    between atoms: C_2  and  C_18
REMARK    2  A    between atoms: N_3  and  C_4
REMARK    3  A    between atoms: C_4  and  C_5
REMARK    4  A    between atoms: C_8  and  C_9
REMARK    5  A    between atoms: C_9  and  C_10
REMARK                            x       y       z     vdW  Elec       q    Type
REMARK                         _______ _______ _______ _____ _____    ______ ____
ROOT
ATOM      1  O   UNL     1      48.585   5.120  15.951  0.00  0.00    +0.000 OA
ATOM      2  C   UNL     1      48.283   6.027  15.179  0.00  0.00    +0.000 C 
ATOM      3  N   UNL     1      47.185   5.960  14.362  0.00  0.00    +0.000 N 
ATOM      4  H   UNL     1      47.069   6.652  13.630  0.00  0.00    +0.000 HD
ENDROOT
BRANCH   2   5
ATOM      5  C   UNL     1      49.061   7.270  15.120  0.00  0.00    +0.000 A 
ATOM      6  C   UNL     1      49.752   7.594  13.959  0.00  0.00    +0.000 A 
ATOM      7  S   UNL     1      50.598   9.069  14.056  0.00  0.00    +0.000 S 
ATOM      8  C   UNL     1      50.035   9.351  15.637  0.00  0.00    +0.000 A 
ATOM      9  N   UNL     1      50.361  10.492  16.302  0.00  0.00    +0.000 NA
ATOM     10  C   UNL     1      49.835  10.595  17.475  0.00  0.00    +0.000 A 
ATOM     11  N   UNL     1      49.023   9.651  18.053  0.00  0.00    +0.000 N 
ATOM     12  C   UNL     1      48.735   8.448  17.453  0.00  0.00    +0.000 A 
ATOM     13  O   UNL     1      48.135   7.564  18.054  0.00  0.00    +0.000 OA
ATOM     14  C   UNL     1      49.249   8.312  16.103  0.00  0.00    +0.000 A 
ATOM     15  H   UNL     1      48.671   9.778  18.991  0.00  0.00    +0.000 HD
ENDBRANCH   2   5
BRANCH   3  16
ATOM     16  C   UNL     1      46.359   4.783  14.272  0.00  0.00    +0.000 C 
BRANCH  16  17
ATOM     17  C   UNL     1      45.841   4.576  12.882  0.00  0.00    +0.000 A 
ATOM     18  C   UNL     1      45.971   5.562  11.903  0.00  0.00    +0.000 A 
ATOM     19  C   UNL     1      45.518   5.318  10.610  0.00  0.00    +0.000 A 
ATOM     20  C   UNL     1      44.926   4.091  10.327  0.00  0.00    +0.000 A 
ATOM     21  N   UNL     1      44.748   3.131  11.270  0.00  0.00    +0.000 NA
ATOM     22  C   UNL     1      45.200   3.398  12.518  0.00  0.00    +0.000 A 
BRANCH  20  23
ATOM     23  C   UNL     1      44.532   3.739   8.912  0.00  0.00    +0.000 C 
BRANCH  23  24
ATOM     24  C   UNL     1      45.621   2.990   8.189  0.00  0.00    +0.000 A 
ATOM     25  C   UNL     1      46.452   3.645   7.281  0.00  0.00    +0.000 A 
ATOM     26  N   UNL     1      47.418   3.009   6.572  0.00  0.00    +0.000 NA
ATOM     27  C   UNL     1      47.522   1.683   6.806  0.00  0.00    +0.000 A 
ATOM     28  C   UNL     1      46.712   1.024   7.715  0.00  0.00    +0.000 A 
ATOM     29  N   UNL     1      45.748   1.656   8.425  0.00  0.00    +0.000 NA
ENDBRANCH  23  24
ENDBRANCH  20  23
ENDBRANCH  16  17
ENDBRANCH   3  16
TORSDOF 5
ENDMDL
MODEL 8
REMARK VINA RESULT:    -6.938      2.952      4.051
REMARK INTER + INTRA:          -9.598
REMARK INTER:                  -8.933
REMARK INTRA:                  -0.665
REMARK UNBOUND:                -0.632
REMARK  Name = 
REMARK  5 active torsions:
REMARK  status: ('A' for Active; 'I' for Inactive)
REMARK    1  A    between atoms: C_2  and  C_18
REMARK    2  A    between atoms: N_3  and  C_4
REMARK    3  A    between atoms: C_4  and  C_5
REMARK    4  A    between atoms: C_8  and  C_9
REMARK    5  A    between atoms: C_9  and  C_10
REMARK                            x       y       z     vdW  Elec       q    Type
REMARK                         _______ _______ _______ _____ _____    ______ ____
ROOT
ATOM      1  O   UNL     1      49.651   5.240  16.522  0.00  0.00    +0.000 OA
ATOM      2  C   UNL     1      48.811   6.118  16.700  0.00  0.00    +0.000 C 
ATOM      3  N   UNL     1      48.247   6.814  15.662  0.00  0.00    +0.000 N 
ATOM      4  H   UNL     1      47.686   7.635  15.862  0.00  0.00    +0.000 HD
ENDROOT
BRANCH   2   5
ATOM      5  C   UNL     1      48.319   6.445  18.043  0.00  0.00    +0.000 A 
ATOM      6  C   UNL     1      48.130   5.429  18.971  0.00  0.00    +0.000 A 
ATOM      7  S   UNL     1      47.560   5.980  20.480  0.00  0.00    +0.000 S 
ATOM      8  C   UNL     1      47.588   7.600  19.961  0.00  0.00    +0.000 A 
ATOM      9  N   UNL     1      47.249   8.611  20.806  0.00  0.00    +0.000 NA
ATOM     10  C   UNL     1      47.352   9.791  20.296  0.00  0.00    +0.000 A 
ATOM     11  N   UNL     1      47.749  10.053  19.008  0.00  0.00    +0.000 N 
ATOM     12  C   UNL     1      48.019   9.062  18.095  0.00  0.00    +0.000 A 
ATOM     13  O   UNL     1      48.222   9.321  16.913  0.00  0.00    +0.000 OA
ATOM     14  C   UNL     1      47.983   7.717  18.640  0.00  0.00    +0.000 A 
ATOM     15  H   UNL     1      47.775  11.000  18.659  0.00  0.00    +0.000 HD
ENDBRANCH   2   5
BRANCH   3  16
ATOM     16  C   UNL     1      48.668   6.640  14.295  0.00  0.00    +0.000 C 
BRANCH  16  17
ATOM     17  C   UNL     1      47.529   6.226  13.415  0.00  0.00    +0.000 A 
ATOM     18  C   UNL     1      47.126   7.008  12.331  0.00  0.00    +0.000 A 
ATOM     19  C   UNL     1      46.094   6.570  11.507  0.00  0.00    +0.000 A 
ATOM     20  C   UNL     1      45.472   5.359  11.797  0.00  0.00    +0.000 A 
ATOM     21  N   UNL     1      45.815   4.600  12.868  0.00  0.00    +0.000 NA
ATOM     22  C   UNL     1      46.823   5.052  13.650  0.00  0.00    +0.000 A 
BRANCH  20  23
ATOM     23  C   UNL     1      44.433   4.789  10.861  0.00  0.00    +0.000 C 
BRANCH  23  24
ATOM     24  C   UNL     1      45.052   4.010   9.730  0.00  0.00    +0.000 A 
ATOM     25  C   UNL     1      45.625   4.668   8.643  0.00  0.00    +0.000 A 
ATOM     26  N   UNL     1      46.157   4.015   7.581  0.00  0.00    +0.000 NA
ATOM     27  C   UNL     1      46.093   2.667   7.646  0.00  0.00    +0.000 A 
ATOM     28  C   UNL     1      45.540   2.001   8.726  0.00  0.00    +0.000 A 
ATOM     29  N   UNL     1      45.009   2.651   9.789  0.00  0.00    +0.000 NA
ENDBRANCH  23  24
ENDBRANCH  20  23
ENDBRANCH  16  17
ENDBRANCH   3  16
TORSDOF 5
ENDMDL
MODEL 9
REMARK VINA RESULT:    -6.827      3.267      8.047
REMARK INTER + INTRA:          -9.454
REMARK INTER:                  -8.840
REMARK INTRA:                  -0.614
REMARK UNBOUND:                -0.632
REMARK  Name = 
REMARK  5 active torsions:
REMARK  status: ('A' for Active; 'I' for Inactive)
REMARK    1  A    between atoms: C_2  and  C_18
REMARK    2  A    between atoms: N_3  and  C_4
REMARK    3  A    between atoms: C_4  and  C_5
REMARK    4  A    between atoms: C_8  and  C_9
REMARK    5  A    between atoms: C_9  and  C_10
REMARK                            x       y       z     vdW  Elec       q    Type
REMARK                         _______ _______ _______ _____ _____    ______ ____
ROOT
ATOM      1  O   UNL     1      45.560   7.810  11.876  0.00  0.00    +0.000 OA
ATOM      2  C   UNL     1      46.222   6.841  11.514  0.00  0.00    +0.000 C 
ATOM      3  N   UNL     1      47.565   6.735  11.767  0.00  0.00    +0.000 N 
ATOM      4  H   UNL     1      48.099   6.004  11.311  0.00  0.00    +0.000 HD
ENDROOT
BRANCH   2   5
ATOM      5  C   UNL     1      45.600   5.705  10.825  0.00  0.00    +0.000 A 
ATOM      6  C   UNL     1      45.803   5.535   9.461  0.00  0.00    +0.000 A 
ATOM      7  S   UNL     1      45.016   4.167   8.819  0.00  0.00    +0.000 S 
ATOM      8  C   UNL     1      44.413   3.728  10.348  0.00  0.00    +0.000 A 
ATOM      9  N   UNL     1      43.675   2.597  10.510  0.00  0.00    +0.000 NA
ATOM     10  C   UNL     1      43.315   2.363  11.726  0.00  0.00    +0.000 A 
ATOM     11  N   UNL     1      43.614   3.169  12.797  0.00  0.00    +0.000 N 
ATOM     12  C   UNL     1      44.284   4.362  12.668  0.00  0.00    +0.000 A 
ATOM     13  O   UNL     1      44.403   5.132  13.616  0.00  0.00    +0.000 OA
ATOM     14  C   UNL     1      44.769   4.637  11.328  0.00  0.00    +0.000 A 
ATOM     15  H   UNL     1      43.272   2.946  13.721  0.00  0.00    +0.000 HD
ENDBRANCH   2   5
BRANCH   3  16
ATOM     16  C   UNL     1      48.321   7.793  12.387  0.00  0.00    +0.000 C 
BRANCH  16  17
ATOM     17  C   UNL     1      48.927   7.353  13.685  0.00  0.00    +0.000 A 
ATOM     18  C   UNL     1      50.225   7.720  14.043  0.00  0.00    +0.000 A 
ATOM     19  C   UNL     1      50.738   7.332  15.276  0.00  0.00    +0.000 A 
ATOM     20  C   UNL     1      49.944   6.564  16.123  0.00  0.00    +0.000 A 
ATOM     21  N   UNL     1      48.695   6.157  15.781  0.00  0.00    +0.000 NA
ATOM     22  C   UNL     1      48.223   6.552  14.576  0.00  0.00    +0.000 A 
BRANCH  20  23
ATOM     23  C   UNL     1      50.416   6.225  17.517  0.00  0.00    +0.000 C 
BRANCH  23  24
ATOM     24  C   UNL     1      50.977   4.830  17.603  0.00  0.00    +0.000 A 
ATOM     25  C   UNL     1      52.300   4.618  17.990  0.00  0.00    +0.000 A 
ATOM     26  N   UNL     1      52.866   3.388  18.042  0.00  0.00    +0.000 NA
ATOM     27  C   UNL     1      52.055   2.367  17.688  0.00  0.00    +0.000 A 
ATOM     28  C   UNL     1      50.736   2.563  17.315  0.00  0.00    +0.000 A 
ATOM     29  N   UNL     1      50.167   3.790  17.264  0.00  0.00    +0.000 NA
ENDBRANCH  23  24
ENDBRANCH  20  23
ENDBRANCH  16  17
ENDBRANCH   3  16
TORSDOF 5
ENDMDL
