MODEL 1
REMARK VINA RESULT:    -8.808      0.000      0.000
REMARK INTER + INTRA:         -12.971
REMARK INTER:                 -12.413
REMARK INTRA:                  -0.558
REMARK UNBOUND:                -0.558
REMARK  Name = 
REMARK  7 active torsions:
REMARK  status: ('A' for Active; 'I' for Inactive)
REMARK    1  A    between atoms: C_2  and  C_20
REMARK    2  A    between atoms: N_3  and  C_4
REMARK    3  A    between atoms: C_4  and  C_5
REMARK    4  A    between atoms: C_8  and  C_9
REMARK    5  A    between atoms: C_9  and  N_10
REMARK    6  A    between atoms: N_10  and  C_11
REMARK    7  A    between atoms: C_11  and  C_12
REMARK                            x       y       z     vdW  Elec       q    Type
REMARK                         _______ _______ _______ _____ _____    ______ ____
ROOT
ATOM      1  C   UNL     1      46.089   4.581  13.974  0.00  0.00    +0.000 C 
ENDROOT
BRANCH   1   2
ATOM      2  C   UNL     1      45.506   5.865  13.358  0.00  0.00    +0.000 C 
ATOM      3  C   UNL     1      46.177   6.271  12.034  0.00  0.00    +0.000 C 
ATOM      4  C   UNL     1      45.889   5.293  10.895  0.00  0.00    +0.000 C 
ATOM      5  C   UNL     1      44.382   5.081  10.674  0.00  0.00    +0.000 C 
ATOM      6  C   UNL     1      43.641   4.776  11.991  0.00  0.00    +0.000 C 
ATOM      7  C   UNL     1      43.997   5.731  13.129  0.00  0.00    +0.000 C 
BRANCH   5   8
ATOM      8  C   UNL     1      44.148   3.958   9.636  0.00  0.00    +0.000 C 
BRANCH   8   9
ATOM      9  N   UNL     1      44.972   2.798   9.962  0.00  0.00    +0.000 NA
ATOM     10  H   UNL     1      44.708   2.423  10.871  0.00  0.00    +0.000 HD
BRANCH   9  11
ATOM     11  C   UNL     1      44.895   1.743   8.956  0.00  0.00    +0.000 C 
BRANCH  11  12
ATOM     12  C   UNL     1      45.934   1.967   7.889  0.00  0.00    +0.000 A 
ATOM     13  C   UNL     1      45.961   3.145   7.134  0.00  0.00    +0.000 A 
ATOM     14  C   UNL     1      46.951   3.331   6.173  0.00  0.00    +0.000 A 
ATOM     15  C   UNL     1      47.884   2.324   5.994  0.00  0.00    +0.000 A 
ATOM     16  N   UNL     1      47.887   1.168   6.691  0.00  0.00    +0.000 NA
ATOM     17  C   UNL     1      46.914   1.018   7.621  0.00  0.00    +0.000 A 
ENDBRANCH  11  12
ENDBRANCH   9  11
ENDBRANCH   8   9
ENDBRANCH   5   8
ENDBRANCH   1   2
BRANCH   1  20
ATOM     18  O   UNL     1      46.476   3.584  16.639  0.00  0.00    +0.000 OA
ATOM     19  C   UNL     1      47.317   4.317  16.133  0.00  0.00    +0.000 C 
ATOM     20  N   UNL     1      47.187   4.847  14.873  0.00  0.00    +0.000 N 
ATOM     21  H   UNL     1      47.969   5.345  14.470  0.00  0.00    +0.000 HD
BRANCH  19  22
ATOM     22  C   UNL     1      48.525   4.739  16.862  0.00  0.00    +0.000 A 
ATOM     23  C   UNL     1      48.647   6.045  17.318  0.00  0.00    +0.000 A 
ATOM     24  S   UNL     1      50.128   6.351  18.112  0.00  0.00    +0.000 S 
ATOM     25  C   UNL     1      50.635   4.736  17.917  0.00  0.00    +0.000 A 
ATOM     26  N   UNL     1      51.831   4.310  18.406  0.00  0.00    +0.000 NA
ATOM     27  C   UNL     1      52.068   3.056  18.213  0.00  0.00    +0.000 A 
ATOM     28  N   UNL     1      51.228   2.189  17.566  0.00  0.00    +0.000 N 
ATOM     29  C   UNL     1      50.045   2.592  16.999  0.00  0.00    +0.000 A 
ATOM     30  O   UNL     1      49.380   1.815  16.319  0.00  0.00    +0.000 OA
ATOM     31  C   UNL     1      49.702   3.985  17.227  0.00  0.00    +0.000 A 
ATOM     32  H   UNL     1      51.487   1.228  17.414  0.00  0.00    +0.000 HD
ENDBRANCH  19  22
ENDBRANCH   1  20
TORSDOF 7
ENDMDL
MODEL 2
REMARK VINA RESULT:    -8.760      1.920      2.198
REMARK INTER + INTRA:         -12.903
REMARK INTER:                 -11.677
REMARK INTRA:                  -1.226
REMARK UNBOUND:                -0.558
REMARK  Name = 
REMARK  7 active torsions:
REMARK  status: ('A' for Active; 'I' for Inactive)
REMARK    1  A    between atoms: C_2  and  C_20
REMARK    2  A    between atoms: N_3  and  C_4
REMARK    3  A    between atoms: C_4  and  C_5
REMARK    4  A    between atoms: C_8  and  C_9
REMARK    5  A    between atoms: C_9  and  N_10
REMARK    6  A    between atoms: N_10  and  C_11
REMARK    7  A    between atoms: C_11  and  C_12
REMARK                            x       y       z     vdW  Elec       q    Type
REMARK                         _______ _______ _______ _____ _____    ______ ____
ROOT
ATOM      1  C   UNL     1      47.155   5.595  12.936  0.00  0.00    +0.000 C 
ENDROOT
BRANCH   1   2
ATOM      2  C   UNL     1      45.908   6.415  12.560  0.00  0.00    +0.000 C 
ATOM      3  C   UNL     1      45.642   6.469  11.045  0.00  0.00    +0.000 C 
ATOM      4  C   UNL     1      45.238   5.116  10.461  0.00  0.00    +0.000 C 
ATOM      5  C   UNL     1      44.025   4.506  11.184  0.00  0.00    +0.000 C 
ATOM      6  C   UNL     1      44.194   4.525  12.716  0.00  0.00    +0.000 C 
ATOM      7  C   UNL     1      44.659   5.873  13.264  0.00  0.00    +0.000 C 
BRANCH   5   8
ATOM      8  C   UNL     1      43.769   3.068  10.675  0.00  0.00    +0.000 C 
BRANCH   8   9
ATOM      9  N   UNL     1      45.017   2.475  10.205  0.00  0.00    +0.000 NA
ATOM     10  H   UNL     1      45.439   1.913  10.942  0.00  0.00    +0.000 HD
BRANCH   9  11
ATOM     11  C   UNL     1      44.844   1.660   9.006  0.00  0.00    +0.000 C 
BRANCH  11  12
ATOM     12  C   UNL     1      45.914   1.987   7.998  0.00  0.00    +0.000 A 
ATOM     13  C   UNL     1      45.967   3.238   7.372  0.00  0.00    +0.000 A 
ATOM     14  C   UNL     1      46.985   3.518   6.465  0.00  0.00    +0.000 A 
ATOM     15  C   UNL     1      47.919   2.529   6.207  0.00  0.00    +0.000 A 
ATOM     16  N   UNL     1      47.897   1.306   6.778  0.00  0.00    +0.000 NA
ATOM     17  C   UNL     1      46.898   1.065   7.660  0.00  0.00    +0.000 A 
ENDBRANCH  11  12
ENDBRANCH   9  11
ENDBRANCH   8   9
ENDBRANCH   5   8
ENDBRANCH   1   2
BRANCH   1  20
ATOM     18  O   UNL     1      47.305   3.540  14.935  0.00  0.00    +0.000 OA
ATOM     19  C   UNL     1      47.580   4.698  15.228  0.00  0.00    +0.000 C 
ATOM     20  N   UNL     1      47.509   5.733  14.329  0.00  0.00    +0.000 N 
ATOM     21  H   UNL     1      47.863   6.641  14.601  0.00  0.00    +0.000 HD
BRANCH  19  22
ATOM     22  C   UNL     1      47.961   5.089  16.596  0.00  0.00    +0.000 A 
ATOM     23  C   UNL     1      47.259   4.594  17.687  0.00  0.00    +0.000 A 
ATOM     24  S   UNL     1      47.829   5.184  19.185  0.00  0.00    +0.000 S 
ATOM     25  C   UNL     1      49.063   6.082  18.429  0.00  0.00    +0.000 A 
ATOM     26  N   UNL     1      49.950   6.812  19.159  0.00  0.00    +0.000 NA
ATOM     27  C   UNL     1      50.850   7.414  18.456  0.00  0.00    +0.000 A 
ATOM     28  N   UNL     1      50.941   7.364  17.090  0.00  0.00    +0.000 N 
ATOM     29  C   UNL     1      50.029   6.695  16.313  0.00  0.00    +0.000 A 
ATOM     30  O   UNL     1      50.070   6.778  15.089  0.00  0.00    +0.000 OA
ATOM     31  C   UNL     1      49.020   5.958  17.054  0.00  0.00    +0.000 A 
ATOM     32  H   UNL     1      51.645   7.887  16.596  0.00  0.00    +0.000 HD
ENDBRANCH  19  22
ENDBRANCH   1  20
TORSDOF 7
ENDMDL
MODEL 3
REMARK VINA RESULT:    -8.749      1.714      1.942
REMARK INTER + INTRA:         -12.887
REMARK INTER:                 -11.687
REMARK INTRA:                  -1.200
REMARK UNBOUND:                -0.558
REMARK  Name = 
REMARK  7 active torsions:
REMARK  status: ('A' for Active; 'I' for Inactive)
REMARK    1  A    between atoms: C_2  and  C_20
REMARK    2  A    between atoms: N_3  and  C_4
REMARK    3  A    between atoms: C_4  and  C_5
REMARK    4  A    between atoms: C_8  and  C_9
REMARK    5  A    between atoms: C_9  and  N_10
REMARK    6  A    between atoms: N_10  and  C_11
REMARK    7  A    between atoms: C_11  and  C_12
REMARK                            x       y       z     vdW  Elec       q    Type
REMARK                         _______ _______ _______ _____ _____    ______ ____
ROOT
ATOM      1  C   UNL     1      46.994   5.479  13.150  0.00  0.00    +0.000 C 
ENDROOT
BRANCH   1   2
ATOM      2  C   UNL     1      45.862   6.387  12.636  0.00  0.00    +0.000 C 
ATOM      3  C   UNL     1      45.787   6.465  11.101  0.00  0.00    +0.000 C 
ATOM      4  C   UNL     1      45.364   5.146  10.455  0.00  0.00    +0.000 C 
ATOM      5  C   UNL     1      44.032   4.622  11.018  0.00  0.00    +0.000 C 
ATOM      6  C   UNL     1      44.014   4.623  12.559  0.00  0.00    +0.000 C 
ATOM      7  C   UNL     1      44.502   5.932  13.176  0.00  0.00    +0.000 C 
BRANCH   5   8
ATOM      8  C   UNL     1      43.739   3.207  10.464  0.00  0.00    +0.000 C 
BRANCH   8   9
ATOM      9  N   UNL     1      44.991   2.503  10.207  0.00  0.00    +0.000 NA
ATOM     10  H   UNL     1      45.293   2.005  11.043  0.00  0.00    +0.000 HD
BRANCH   9  11
ATOM     11  C   UNL     1      44.901   1.570   9.088  0.00  0.00    +0.000 C 
BRANCH  11  12
ATOM     12  C   UNL     1      45.935   1.907   8.047  0.00  0.00    +0.000 A 
ATOM     13  C   UNL     1      45.976   3.167   7.440  0.00  0.00    +0.000 A 
ATOM     14  C   UNL     1      46.961   3.455   6.501  0.00  0.00    +0.000 A 
ATOM     15  C   UNL     1      47.878   2.464   6.192  0.00  0.00    +0.000 A 
ATOM     16  N   UNL     1      47.868   1.232   6.743  0.00  0.00    +0.000 NA
ATOM     17  C   UNL     1      46.899   0.983   7.657  0.00  0.00    +0.000 A 
ENDBRANCH  11  12
ENDBRANCH   9  11
ENDBRANCH   8   9
ENDBRANCH   5   8
ENDBRANCH   1   2
BRANCH   1  20
ATOM     18  O   UNL     1      49.406   6.636  14.191  0.00  0.00    +0.000 OA
ATOM     19  C   UNL     1      48.502   6.320  14.955  0.00  0.00    +0.000 C 
ATOM     20  N   UNL     1      47.331   5.742  14.529  0.00  0.00    +0.000 N 
ATOM     21  H   UNL     1      46.579   5.616  15.193  0.00  0.00    +0.000 HD
BRANCH  19  22
ATOM     22  C   UNL     1      48.618   6.485  16.414  0.00  0.00    +0.000 A 
ATOM     23  C   UNL     1      48.805   7.746  16.963  0.00  0.00    +0.000 A 
ATOM     24  S   UNL     1      48.946   7.730  18.666  0.00  0.00    +0.000 S 
ATOM     25  C   UNL     1      48.712   6.044  18.729  0.00  0.00    +0.000 A 
ATOM     26  N   UNL     1      48.689   5.380  19.917  0.00  0.00    +0.000 NA
ATOM     27  C   UNL     1      48.471   4.112  19.815  0.00  0.00    +0.000 A 
ATOM     28  N   UNL     1      48.283   3.442  18.635  0.00  0.00    +0.000 N 
ATOM     29  C   UNL     1      48.364   4.060  17.413  0.00  0.00    +0.000 A 
ATOM     30  O   UNL     1      48.317   3.405  16.375  0.00  0.00    +0.000 OA
ATOM     31  C   UNL     1      48.562   5.499  17.468  0.00  0.00    +0.000 A 
ATOM     32  H   UNL     1      48.154   2.443  18.618  0.00  0.00    +0.000 HD
ENDBRANCH  19  22
ENDBRANCH   1  20
TORSDOF 7
ENDMDL
MODEL 4
REMARK VINA RESULT:    -7.890      3.545      9.264
REMARK INTER + INTRA:         -11.677
REMARK INTER:                 -10.311
REMARK INTRA:                  -1.367
REMARK UNBOUND:                -0.558
REMARK  Name = 
REMARK  7 active torsions:
REMARK  status: ('A' for Active; 'I' for Inactive)
REMARK    1  A    between atoms: C_2  and  C_20
REMARK    2  A    between atoms: N_3  and  C_4
REMARK    3  A    between atoms: C_4  and  C_5
REMARK    4  A    between atoms: C_8  and  C_9
REMARK    5  A    between atoms: C_9  and  N_10
REMARK    6  A    between atoms: N_10  and  C_11
REMARK    7  A    between atoms: C_11  and  C_12
REMARK                            x       y       z     vdW  Elec       q    Type
REMARK                         _______ _______ _______ _____ _____    ______ ____
ROOT
ATOM      1  C   UNL     1      48.607   5.858  15.912  0.00  0.00    +0.000 C 
ENDROOT
BRANCH   1   2
ATOM      2  C   UNL     1      48.173   5.263  17.263  0.00  0.00    +0.000 C 
ATOM      3  C   UNL     1      47.519   3.875  17.140  0.00  0.00    +0.000 C 
ATOM      4  C   UNL     1      48.499   2.791  16.691  0.00  0.00    +0.000 C 
ATOM      5  C   UNL     1      49.736   2.708  17.601  0.00  0.00    +0.000 C 
ATOM      6  C   UNL     1      50.369   4.092  17.844  0.00  0.00    +0.000 C 
ATOM      7  C   UNL     1      49.357   5.169  18.231  0.00  0.00    +0.000 C 
BRANCH   5   8
ATOM      8  C   UNL     1      50.771   1.724  17.005  0.00  0.00    +0.000 C 
BRANCH   8   9
ATOM      9  N   UNL     1      51.496   1.053  18.079  0.00  0.00    +0.000 NA
ATOM     10  H   UNL     1      51.055   0.161  18.297  0.00  0.00    +0.000 HD
BRANCH   9  11
ATOM     11  C   UNL     1      52.906   0.839  17.767  0.00  0.00    +0.000 C 
BRANCH  11  12
ATOM     12  C   UNL     1      53.702   2.078  18.083  0.00  0.00    +0.000 A 
ATOM     13  C   UNL     1      53.455   2.827  19.239  0.00  0.00    +0.000 A 
ATOM     14  C   UNL     1      54.226   3.952  19.515  0.00  0.00    +0.000 A 
ATOM     15  C   UNL     1      55.222   4.297  18.618  0.00  0.00    +0.000 A 
ATOM     16  N   UNL     1      55.485   3.610  17.485  0.00  0.00    +0.000 NA
ATOM     17  C   UNL     1      54.721   2.518  17.246  0.00  0.00    +0.000 A 
ENDBRANCH  11  12
ENDBRANCH   9  11
ENDBRANCH   8   9
ENDBRANCH   5   8
ENDBRANCH   1   2
BRANCH   1  20
ATOM     18  O   UNL     1      48.785   6.320  13.083  0.00  0.00    +0.000 OA
ATOM     19  C   UNL     1      47.698   6.079  13.595  0.00  0.00    +0.000 C 
ATOM     20  N   UNL     1      47.536   5.870  14.943  0.00  0.00    +0.000 N 
ATOM     21  H   UNL     1      46.636   5.558  15.284  0.00  0.00    +0.000 HD
BRANCH  19  22
ATOM     22  C   UNL     1      46.453   6.046  12.808  0.00  0.00    +0.000 A 
ATOM     23  C   UNL     1      45.952   7.210  12.242  0.00  0.00    +0.000 A 
ATOM     24  S   UNL     1      44.488   6.976  11.394  0.00  0.00    +0.000 S 
ATOM     25  C   UNL     1      44.501   5.303  11.714  0.00  0.00    +0.000 A 
ATOM     26  N   UNL     1      43.521   4.488  11.237  0.00  0.00    +0.000 NA
ATOM     27  C   UNL     1      43.678   3.240  11.529  0.00  0.00    +0.000 A 
ATOM     28  N   UNL     1      44.716   2.731  12.263  0.00  0.00    +0.000 N 
ATOM     29  C   UNL     1      45.687   3.526  12.819  0.00  0.00    +0.000 A 
ATOM     30  O   UNL     1      46.528   3.048  13.575  0.00  0.00    +0.000 OA
ATOM     31  C   UNL     1      45.588   4.935  12.483  0.00  0.00    +0.000 A 
ATOM     32  H   UNL     1      44.762   1.751  12.490  0.00  0.00    +0.000 HD
ENDBRANCH  19  22
ENDBRANCH   1  20
TORSDOF 7
ENDMDL
MODEL 5
REMARK VINA RESULT:    -7.769      3.514      9.105
REMARK INTER + INTRA:         -11.506
REMARK INTER:                 -10.473
REMARK INTRA:                  -1.033
REMARK UNBOUND:                -0.558
REMARK  Name = 
REMARK  7 active torsions:
REMARK  status: ('A' for Active; 'I' for Inactive)
REMARK    1  A    between atoms: C_2  and  C_20
REMARK    2  A    between atoms: N_3  and  C_4
REMARK    3  A    between atoms: C_4  and  C_5
REMARK    4  A    between atoms: C_8  and  C_9
REMARK    5  A    between atoms: C_9  and  N_10
REMARK    6  A    between atoms: N_10  and  C_11
REMARK    7  A    between atoms: C_11  and  C_12
REMARK                            x       y       z     vdW  Elec       q    Type
REMARK                         _______ _______ _______ _____ _____    ______ ____
ROOT
ATOM      1  C   UNL     1      48.709   5.935  16.101  0.00  0.00    +0.000 C 
ENDROOT
BRANCH   1   2
ATOM      2  C   UNL     1      48.255   5.295  17.425  0.00  0.00    +0.000 C 
ATOM      3  C   UNL     1      47.584   3.922  17.245  0.00  0.00    +0.000 C 
ATOM      4  C   UNL     1      48.553   2.843  16.763  0.00  0.00    +0.000 C 
ATOM      5  C   UNL     1      49.780   2.708  17.680  0.00  0.00    +0.000 C 
ATOM      6  C   UNL     1      50.430   4.074  17.980  0.00  0.00    +0.000 C 
ATOM      7  C   UNL     1      49.429   5.149  18.398  0.00  0.00    +0.000 C 
BRANCH   5   8
ATOM      8  C   UNL     1      50.808   1.734  17.057  0.00  0.00    +0.000 C 
BRANCH   8   9
ATOM      9  N   UNL     1      51.679   1.195  18.096  0.00  0.00    +0.000 NA
ATOM     10  H   UNL     1      51.533   0.191  18.192  0.00  0.00    +0.000 HD
BRANCH   9  11
ATOM     11  C   UNL     1      53.092   1.463  17.851  0.00  0.00    +0.000 C 
BRANCH  11  12
ATOM     12  C   UNL     1      53.826   0.175  17.584  0.00  0.00    +0.000 A 
ATOM     13  C   UNL     1      54.426  -0.078  16.345  0.00  0.00    +0.000 A 
ATOM     14  C   UNL     1      55.119  -1.266  16.139  0.00  0.00    +0.000 A 
ATOM     15  C   UNL     1      55.187  -2.172  17.184  0.00  0.00    +0.000 A 
ATOM     16  N   UNL     1      54.613  -1.973  18.390  0.00  0.00    +0.000 NA
ATOM     17  C   UNL     1      53.949  -0.806  18.561  0.00  0.00    +0.000 A 
ENDBRANCH  11  12
ENDBRANCH   9  11
ENDBRANCH   8   9
ENDBRANCH   5   8
ENDBRANCH   1   2
BRANCH   1  20
ATOM     18  O   UNL     1      48.939   6.514  13.297  0.00  0.00    +0.000 OA
ATOM     19  C   UNL     1      47.849   6.216  13.772  0.00  0.00    +0.000 C 
ATOM     20  N   UNL     1      47.662   5.949  15.106  0.00  0.00    +0.000 N 
ATOM     21  H   UNL     1      46.766   5.593  15.411  0.00  0.00    +0.000 HD
BRANCH  19  22
ATOM     22  C   UNL     1      46.626   6.173  12.953  0.00  0.00    +0.000 A 
ATOM     23  C   UNL     1      46.131   7.333  12.371  0.00  0.00    +0.000 A 
ATOM     24  S   UNL     1      44.691   7.087  11.486  0.00  0.00    +0.000 S 
ATOM     25  C   UNL     1      44.708   5.415  11.809  0.00  0.00    +0.000 A 
ATOM     26  N   UNL     1      43.747   4.591  11.308  0.00  0.00    +0.000 NA
ATOM     27  C   UNL     1      43.904   3.346  11.607  0.00  0.00    +0.000 A 
ATOM     28  N   UNL     1      44.927   2.845  12.369  0.00  0.00    +0.000 N 
ATOM     29  C   UNL     1      45.877   3.647  12.948  0.00  0.00    +0.000 A 
ATOM     30  O   UNL     1      46.702   3.178  13.728  0.00  0.00    +0.000 OA
ATOM     31  C   UNL     1      45.777   5.056  12.607  0.00  0.00    +0.000 A 
ATOM     32  H   UNL     1      44.974   1.866  12.599  0.00  0.00    +0.000 HD
ENDBRANCH  19  22
ENDBRANCH   1  20
TORSDOF 7
ENDMDL
MODEL 6
REMARK VINA RESULT:    -7.702      4.225      5.018
REMARK INTER + INTRA:         -11.412
REMARK INTER:                 -10.396
REMARK INTRA:                  -1.016
REMARK UNBOUND:                -0.558
REMARK  Name = 
REMARK  7 active torsions:
REMARK  status: ('A' for Active; 'I' for Inactive)
REMARK    1  A    between atoms: C_2  and  C_20
REMARK    2  A    between atoms: N_3  and  C_4
REMARK    3  A    between atoms: C_4  and  C_5
REMARK    4  A    between atoms: C_8  and  C_9
REMARK    5  A    between atoms: C_9  and  N_10
REMARK    6  A    between atoms: N_10  and  C_11
REMARK    7  A    between atoms: C_11  and  C_12
REMARK                            x       y       z     vdW  Elec       q    Type
REMARK                         _______ _______ _______ _____ _____    ______ ____
ROOT
ATOM      1  C   UNL     1      46.696   6.499  11.431  0.00  0.00    +0.000 C 
ENDROOT
BRANCH   1   2
ATOM      2  C   UNL     1      45.519   6.534  12.422  0.00  0.00    +0.000 C 
ATOM      3  C   UNL     1      44.140   6.516  11.738  0.00  0.00    +0.000 C 
ATOM      4  C   UNL     1      43.840   5.192  11.036  0.00  0.00    +0.000 C 
ATOM      5  C   UNL     1      43.970   3.986  11.982  0.00  0.00    +0.000 C 
ATOM      6  C   UNL     1      45.292   4.013  12.774  0.00  0.00    +0.000 C 
ATOM      7  C   UNL     1      45.596   5.367  13.412  0.00  0.00    +0.000 C 
BRANCH   5   8
ATOM      8  C   UNL     1      43.830   2.666  11.186  0.00  0.00    +0.000 C 
BRANCH   8   9
ATOM      9  N   UNL     1      44.962   2.507  10.280  0.00  0.00    +0.000 NA
ATOM     10  H   UNL     1      45.631   1.842  10.666  0.00  0.00    +0.000 HD
BRANCH   9  11
ATOM     11  C   UNL     1      44.566   2.082   8.941  0.00  0.00    +0.000 C 
BRANCH  11  12
ATOM     12  C   UNL     1      45.735   2.181   7.997  0.00  0.00    +0.000 A 
ATOM     13  C   UNL     1      45.930   3.311   7.195  0.00  0.00    +0.000 A 
ATOM     14  C   UNL     1      47.035   3.383   6.353  0.00  0.00    +0.000 A 
ATOM     15  C   UNL     1      47.913   2.313   6.336  0.00  0.00    +0.000 A 
ATOM     16  N   UNL     1      47.757   1.199   7.084  0.00  0.00    +0.000 NA
ATOM     17  C   UNL     1      46.674   1.161   7.896  0.00  0.00    +0.000 A 
ENDBRANCH  11  12
ENDBRANCH   9  11
ENDBRANCH   8   9
ENDBRANCH   5   8
ENDBRANCH   1   2
BRANCH   1  20
ATOM     18  O   UNL     1      49.032   6.256  13.084  0.00  0.00    +0.000 OA
ATOM     19  C   UNL     1      48.799   7.312  12.508  0.00  0.00    +0.000 C 
ATOM     20  N   UNL     1      47.691   7.505  11.720  0.00  0.00    +0.000 N 
ATOM     21  H   UNL     1      47.620   8.356  11.177  0.00  0.00    +0.000 HD
BRANCH  19  22
ATOM     22  C   UNL     1      49.669   8.491  12.656  0.00  0.00    +0.000 A 
ATOM     23  C   UNL     1      49.365   9.472  13.590  0.00  0.00    +0.000 A 
ATOM     24  S   UNL     1      50.472  10.773  13.592  0.00  0.00    +0.000 S 
ATOM     25  C   UNL     1      51.422  10.045  12.379  0.00  0.00    +0.000 A 
ATOM     26  N   UNL     1      52.562  10.636  11.928  0.00  0.00    +0.000 NA
ATOM     27  C   UNL     1      53.195   9.956  11.033  0.00  0.00    +0.000 A 
ATOM     28  N   UNL     1      52.791   8.744  10.537  0.00  0.00    +0.000 N 
ATOM     29  C   UNL     1      51.616   8.146  10.915  0.00  0.00    +0.000 A 
ATOM     30  O   UNL     1      51.226   7.125  10.356  0.00  0.00    +0.000 OA
ATOM     31  C   UNL     1      50.884   8.845  11.957  0.00  0.00    +0.000 A 
ATOM     32  H   UNL     1      53.311   8.280   9.810  0.00  0.00    +0.000 HD
ENDBRANCH  19  22
ENDBRANCH   1  20
TORSDOF 7
ENDMDL
MODEL 7
REMARK VINA RESULT:    -7.700      3.846      8.806
REMARK INTER + INTRA:         -11.408
REMARK INTER:                  -9.399
REMARK INTRA:                  -2.009
REMARK UNBOUND:                -0.558
REMARK  Name = 
REMARK  7 active torsions:
REMARK  status: ('A' for Active; 'I' for Inactive)
REMARK    1  A    between atoms: C_2  and  C_20
REMARK    2  A    between atoms: N_3  and  C_4
REMARK    3  A    between atoms: C_4  and  C_5
REMARK    4  A    between atoms: C_8  and  C_9
REMARK    5  A    between atoms: C_9  and  N_10
REMARK    6  A    between atoms: N_10  and  C_11
REMARK    7  A    between atoms: C_11  and  C_12
REMARK                            x       y       z     vdW  Elec       q    Type
REMARK                         _______ _______ _______ _____ _____    ______ ____
ROOT
ATOM      1  C   UNL     1      49.050   6.653  15.633  0.00  0.00    +0.000 C 
ENDROOT
BRANCH   1   2
ATOM      2  C   UNL     1      49.440   8.133  15.803  0.00  0.00    +0.000 C 
ATOM      3  C   UNL     1      48.314   9.000  16.393  0.00  0.00    +0.000 C 
ATOM      4  C   UNL     1      47.995   8.655  17.848  0.00  0.00    +0.000 C 
ATOM      5  C   UNL     1      49.237   8.726  18.751  0.00  0.00    +0.000 C 
ATOM      6  C   UNL     1      50.433   7.959  18.152  0.00  0.00    +0.000 C 
ATOM      7  C   UNL     1      50.689   8.277  16.680  0.00  0.00    +0.000 C 
BRANCH   5   8
ATOM      8  C   UNL     1      48.898   8.201  20.167  0.00  0.00    +0.000 C 
BRANCH   8   9
ATOM      9  N   UNL     1      47.837   7.202  20.088  0.00  0.00    +0.000 NA
ATOM     10  H   UNL     1      47.403   7.223  19.166  0.00  0.00    +0.000 HD
BRANCH   9  11
ATOM     11  C   UNL     1      48.304   5.850  20.379  0.00  0.00    +0.000 C 
BRANCH  11  12
ATOM     12  C   UNL     1      48.236   4.999  19.139  0.00  0.00    +0.000 A 
ATOM     13  C   UNL     1      49.310   4.191  18.750  0.00  0.00    +0.000 A 
ATOM     14  C   UNL     1      49.205   3.396  17.613  0.00  0.00    +0.000 A 
ATOM     15  C   UNL     1      48.023   3.438  16.894  0.00  0.00    +0.000 A 
ATOM     16  N   UNL     1      46.967   4.212  17.226  0.00  0.00    +0.000 NA
ATOM     17  C   UNL     1      47.098   4.971  18.340  0.00  0.00    +0.000 A 
ENDBRANCH  11  12
ENDBRANCH   9  11
ENDBRANCH   8   9
ENDBRANCH   5   8
ENDBRANCH   1   2
BRANCH   1  20
ATOM     18  O   UNL     1      48.941   6.216  12.798  0.00  0.00    +0.000 OA
ATOM     19  C   UNL     1      47.905   6.254  13.450  0.00  0.00    +0.000 C 
ATOM     20  N   UNL     1      47.881   6.481  14.804  0.00  0.00    +0.000 N 
ATOM     21  H   UNL     1      47.005   6.382  15.300  0.00  0.00    +0.000 HD
BRANCH  19  22
ATOM     22  C   UNL     1      46.580   6.113  12.821  0.00  0.00    +0.000 A 
ATOM     23  C   UNL     1      45.933   7.224  12.296  0.00  0.00    +0.000 A 
ATOM     24  S   UNL     1      44.398   6.866  11.638  0.00  0.00    +0.000 S 
ATOM     25  C   UNL     1      44.568   5.207  11.987  0.00  0.00    +0.000 A 
ATOM     26  N   UNL     1      43.599   4.313  11.650  0.00  0.00    +0.000 NA
ATOM     27  C   UNL     1      43.879   3.089  11.946  0.00  0.00    +0.000 A 
ATOM     28  N   UNL     1      45.031   2.673  12.559  0.00  0.00    +0.000 N 
ATOM     29  C   UNL     1      46.003   3.548  12.976  0.00  0.00    +0.000 A 
ATOM     30  O   UNL     1      46.961   3.152  13.634  0.00  0.00    +0.000 OA
ATOM     31  C   UNL     1      45.764   4.937  12.626  0.00  0.00    +0.000 A 
ATOM     32  H   UNL     1      45.175   1.705  12.798  0.00  0.00    +0.000 HD
ENDBRANCH  19  22
ENDBRANCH   1  20
TORSDOF 7
ENDMDL
MODEL 8
REMARK VINA RESULT:    -7.628      3.475      8.736
REMARK INTER + INTRA:         -11.308
REMARK INTER:                 -10.038
REMARK INTRA:                  -1.270
REMARK UNBOUND:                -0.558
REMARK  Name = 
REMARK  7 active torsions:
REMARK  status: ('A' for Active; 'I' for Inactive)
REMARK    1  A    between atoms: C_2  and  C_20
REMARK    2  A    between atoms: N_3  and  C_4
REMARK    3  A    between atoms: C_4  and  C_5
REMARK    4  A    between atoms: C_8  and  C_9
REMARK    5  A    between atoms: C_9  and  N_10
REMARK    6  A    between atoms: N_10  and  C_11
REMARK    7  A    between atoms: C_11  and  C_12
REMARK                            x       y       z     vdW  Elec       q    Type
REMARK                         _______ _______ _______ _____ _____    ______ ____
ROOT
ATOM      1  C   UNL     1      47.068   8.164  12.006  0.00  0.00    +0.000 C 
ENDROOT
BRANCH   1   2
ATOM      2  C   UNL     1      48.603   8.057  11.981  0.00  0.00    +0.000 C 
ATOM      3  C   UNL     1      49.315   9.317  12.505  0.00  0.00    +0.000 C 
ATOM      4  C   UNL     1      49.102   9.544  14.002  0.00  0.00    +0.000 C 
ATOM      5  C   UNL     1      49.514   8.323  14.842  0.00  0.00    +0.000 C 
ATOM      6  C   UNL     1      48.912   7.014  14.294  0.00  0.00    +0.000 C 
ATOM      7  C   UNL     1      49.084   6.845  12.786  0.00  0.00    +0.000 C 
BRANCH   5   8
ATOM      8  C   UNL     1      49.117   8.536  16.322  0.00  0.00    +0.000 C 
BRANCH   8   9
ATOM      9  N   UNL     1      48.213   7.474  16.754  0.00  0.00    +0.000 NA
ATOM     10  H   UNL     1      47.999   6.856  15.973  0.00  0.00    +0.000 HD
BRANCH   9  11
ATOM     11  C   UNL     1      48.743   6.692  17.867  0.00  0.00    +0.000 C 
BRANCH  11  12
ATOM     12  C   UNL     1      48.751   5.228  17.515  0.00  0.00    +0.000 A 
ATOM     13  C   UNL     1      47.569   4.545  17.211  0.00  0.00    +0.000 A 
ATOM     14  C   UNL     1      47.614   3.198  16.864  0.00  0.00    +0.000 A 
ATOM     15  C   UNL     1      48.849   2.572  16.838  0.00  0.00    +0.000 A 
ATOM     16  N   UNL     1      50.012   3.190  17.137  0.00  0.00    +0.000 NA
ATOM     17  C   UNL     1      49.936   4.501  17.466  0.00  0.00    +0.000 A 
ENDBRANCH  11  12
ENDBRANCH   9  11
ENDBRANCH   8   9
ENDBRANCH   5   8
ENDBRANCH   1   2
BRANCH   1  20
ATOM     18  O   UNL     1      44.299   7.655  11.439  0.00  0.00    +0.000 OA
ATOM     19  C   UNL     1      45.089   6.722  11.510  0.00  0.00    +0.000 C 
ATOM     20  N   UNL     1      46.421   6.890  11.799  0.00  0.00    +0.000 N 
ATOM     21  H   UNL     1      47.041   6.093  11.724  0.00  0.00    +0.000 HD
BRANCH  19  22
ATOM     22  C   UNL     1      44.662   5.321  11.344  0.00  0.00    +0.000 A 
ATOM     23  C   UNL     1      43.916   4.695  12.333  0.00  0.00    +0.000 A 
ATOM     24  S   UNL     1      43.542   3.068  11.974  0.00  0.00    +0.000 S 
ATOM     25  C   UNL     1      44.323   3.161  10.462  0.00  0.00    +0.000 A 
ATOM     26  N   UNL     1      44.348   2.095   9.616  0.00  0.00    +0.000 NA
ATOM     27  C   UNL     1      44.946   2.320   8.495  0.00  0.00    +0.000 A 
ATOM     28  N   UNL     1      45.531   3.507   8.142  0.00  0.00    +0.000 N 
ATOM     29  C   UNL     1      45.586   4.584   8.990  0.00  0.00    +0.000 A 
ATOM     30  O   UNL     1      46.229   5.586   8.688  0.00  0.00    +0.000 OA
ATOM     31  C   UNL     1      44.887   4.404  10.251  0.00  0.00    +0.000 A 
ATOM     32  H   UNL     1      46.015   3.609   7.265  0.00  0.00    +0.000 HD
ENDBRANCH  19  22
ENDBRANCH   1  20
TORSDOF 7
ENDMDL
MODEL 9
REMARK VINA RESULT:    -7.302      3.756      9.078
REMARK INTER + INTRA:         -10.848
REMARK INTER:                  -8.887
REMARK INTRA:                  -1.961
REMARK UNBOUND:                -0.558
REMARK  Name = 
REMARK  7 active torsions:
REMARK  status: ('A' for Active; 'I' for Inactive)
REMARK    1  A    between atoms: C_2  and  C_20
REMARK    2  A    between atoms: N_3  and  C_4
REMARK    3  A    between atoms: C_4  and  C_5
REMARK    4  A    between atoms: C_8  and  C_9
REMARK    5  A    between atoms: C_9  and  N_10
REMARK    6  A    between atoms: N_10  and  C_11
REMARK    7  A    between atoms: C_11  and  C_12
REMARK                            x       y       z     vdW  Elec       q    Type
REMARK                         _______ _______ _______ _____ _____    ______ ____
ROOT
ATOM      1  C   UNL     1      48.458   5.472  15.882  0.00  0.00    +0.000 C 
ENDROOT
BRANCH   1   2
ATOM      2  C   UNL     1      48.245   4.241  16.780  0.00  0.00    +0.000 C 
ATOM      3  C   UNL     1      49.506   3.822  17.558  0.00  0.00    +0.000 C 
ATOM      4  C   UNL     1      49.918   4.840  18.620  0.00  0.00    +0.000 C 
ATOM      5  C   UNL     1      48.777   5.153  19.603  0.00  0.00    +0.000 C 
ATOM      6  C   UNL     1      47.457   5.475  18.875  0.00  0.00    +0.000 C 
ATOM      7  C   UNL     1      47.104   4.475  17.776  0.00  0.00    +0.000 C 
BRANCH   5   8
ATOM      8  C   UNL     1      49.186   6.311  20.544  0.00  0.00    +0.000 C 
BRANCH   8   9
ATOM      9  N   UNL     1      48.513   7.542  20.142  0.00  0.00    +0.000 NA
ATOM     10  H   UNL     1      47.951   7.903  20.911  0.00  0.00    +0.000 HD
BRANCH   9  11
ATOM     11  C   UNL     1      49.437   8.574  19.683  0.00  0.00    +0.000 C 
BRANCH  11  12
ATOM     12  C   UNL     1      49.392   8.681  18.182  0.00  0.00    +0.000 A 
ATOM     13  C   UNL     1      48.224   9.063  17.513  0.00  0.00    +0.000 A 
ATOM     14  C   UNL     1      48.223   9.178  16.127  0.00  0.00    +0.000 A 
ATOM     15  C   UNL     1      49.398   8.901  15.448  0.00  0.00    +0.000 A 
ATOM     16  N   UNL     1      50.543   8.518  16.052  0.00  0.00    +0.000 NA
ATOM     17  C   UNL     1      50.514   8.419  17.403  0.00  0.00    +0.000 A 
ENDBRANCH  11  12
ENDBRANCH   9  11
ENDBRANCH   8   9
ENDBRANCH   5   8
ENDBRANCH   1   2
BRANCH   1  20
ATOM     18  O   UNL     1      48.747   6.213  13.123  0.00  0.00    +0.000 OA
ATOM     19  C   UNL     1      47.637   5.956  13.573  0.00  0.00    +0.000 C 
ATOM     20  N   UNL     1      47.423   5.616  14.886  0.00  0.00    +0.000 N 
ATOM     21  H   UNL     1      46.503   5.299  15.164  0.00  0.00    +0.000 HD
BRANCH  19  22
ATOM     22  C   UNL     1      46.420   6.042  12.747  0.00  0.00    +0.000 A 
ATOM     23  C   UNL     1      46.001   7.266  12.245  0.00  0.00    +0.000 A 
ATOM     24  S   UNL     1      44.556   7.169  11.339  0.00  0.00    +0.000 S 
ATOM     25  C   UNL     1      44.469   5.480  11.546  0.00  0.00    +0.000 A 
ATOM     26  N   UNL     1      43.465   4.753  10.986  0.00  0.00    +0.000 NA
ATOM     27  C   UNL     1      43.545   3.482  11.199  0.00  0.00    +0.000 A 
ATOM     28  N   UNL     1      44.530   2.870  11.930  0.00  0.00    +0.000 N 
ATOM     29  C   UNL     1      45.522   3.572  12.567  0.00  0.00    +0.000 A 
ATOM     30  O   UNL     1      46.310   3.002  13.315  0.00  0.00    +0.000 OA
ATOM     31  C   UNL     1      45.509   5.004  12.322  0.00  0.00    +0.000 A 
ATOM     32  H   UNL     1      44.517   1.876  12.091  0.00  0.00    +0.000 HD
ENDBRANCH  19  22
ENDBRANCH   1  20
TORSDOF 7
ENDMDL
