MODEL 1
REMARK VINA RESULT:    -8.097      0.000      0.000
REMARK INTER + INTRA:         -10.529
REMARK INTER:                  -9.990
REMARK INTRA:                  -0.539
REMARK UNBOUND:                -0.539
REMARK  Name = 
REMARK  5 active torsions:
REMARK  status: ('A' for Active; 'I' for Inactive)
REMARK    1  A    between atoms: C_1  and  C_2
REMARK    2  A    between atoms: N_5  and  C_6
REMARK    3  A    between atoms: C_6  and  C_7
REMARK    4  A    between atoms: C_11  and  C_12
REMARK    5  A    between atoms: C_21  and  C_22
REMARK                            x       y       z     vdW  Elec       q    Type
REMARK                         _______ _______ _______ _____ _____    ______ ____
ROOT
ATOM      1  C   UNL     1      50.120   6.561  16.756  0.00  0.00    +0.000 C 
ATOM      2  C   UNL     1      49.145   5.422  16.834  0.00  0.00    +0.000 A 
ATOM      3  N   UNL     1      48.278   5.322  15.779  0.00  0.00    +0.000 NA
ATOM      4  C   UNL     1      47.428   4.279  15.716  0.00  0.00    +0.000 A 
ATOM      5  N   UNL     1      46.424   4.214  14.751  0.00  0.00    +0.000 N 
ATOM      6  C   UNL     1      47.461   3.276  16.680  0.00  0.00    +0.000 A 
ATOM      7  C   UNL     1      48.297   3.404  17.787  0.00  0.00    +0.000 A 
ATOM      8  C   UNL     1      49.126   4.524  17.904  0.00  0.00    +0.000 A 
ATOM      9  H   UNL     1      46.425   3.317  14.277  0.00  0.00    +0.000 HD
ENDROOT
BRANCH   8  10
ATOM     10  C   UNL     1      49.923   4.730  19.139  0.00  0.00    +0.000 C 
ATOM     11  N   UNL     1      51.091   4.016  19.251  0.00  0.00    +0.000 N 
ATOM     12  O   UNL     1      49.562   5.454  20.058  0.00  0.00    +0.000 OA
ATOM     13  H   UNL     1      51.316   3.238  18.650  0.00  0.00    +0.000 HD
ATOM     14  H   UNL     1      51.559   4.063  20.149  0.00  0.00    +0.000 HD
ENDBRANCH   8  10
BRANCH   5  15
ATOM     15  C   UNL     1      46.239   5.340  13.829  0.00  0.00    +0.000 C 
BRANCH  15  16
ATOM     16  C   UNL     1      45.218   5.023  12.740  0.00  0.00    +0.000 A 
ATOM     17  C   UNL     1      43.898   5.435  12.888  0.00  0.00    +0.000 A 
ATOM     18  C   UNL     1      42.958   5.042  11.949  0.00  0.00    +0.000 A 
ATOM     19  C   UNL     1      43.367   4.309  10.843  0.00  0.00    +0.000 A 
ATOM     20  C   UNL     1      44.721   4.025  10.673  0.00  0.00    +0.000 A 
ATOM     21  N   UNL     1      45.638   4.349  11.630  0.00  0.00    +0.000 NA
BRANCH  20  22
ATOM     22  C   UNL     1      45.249   3.524   9.378  0.00  0.00    +0.000 A 
ATOM     23  C   UNL     1      45.379   2.141   9.154  0.00  0.00    +0.000 A 
ATOM     24  C   UNL     1      46.027   1.636   8.021  0.00  0.00    +0.000 A 
ATOM     25  C   UNL     1      46.551   2.507   7.072  0.00  0.00    +0.000 A 
ATOM     26  C   UNL     1      46.402   3.879   7.241  0.00  0.00    +0.000 A 
ATOM     27  C   UNL     1      45.750   4.380   8.376  0.00  0.00    +0.000 A 
ENDBRANCH  20  22
ENDBRANCH  15  16
ENDBRANCH   5  15
TORSDOF 4
ENDMDL
MODEL 2
REMARK VINA RESULT:    -7.639      4.523      8.101
REMARK INTER + INTRA:          -9.965
REMARK INTER:                  -9.916
REMARK INTRA:                  -0.049
REMARK UNBOUND:                -0.539
REMARK  Name = 
REMARK  5 active torsions:
REMARK  status: ('A' for Active; 'I' for Inactive)
REMARK    1  A    between atoms: C_1  and  C_2
REMARK    2  A    between atoms: N_5  and  C_6
REMARK    3  A    between atoms: C_6  and  C_7
REMARK    4  A    between atoms: C_11  and  C_12
REMARK    5  A    between atoms: C_21  and  C_22
REMARK                            x       y       z     vdW  Elec       q    Type
REMARK                         _______ _______ _______ _____ _____    ______ ____
ROOT
ATOM      1  C   UNL     1      47.123   4.007   7.157  0.00  0.00    +0.000 C 
ATOM      2  C   UNL     1      46.175   3.298   8.081  0.00  0.00    +0.000 A 
ATOM      3  N   UNL     1      45.431   4.112   8.892  0.00  0.00    +0.000 NA
ATOM      4  C   UNL     1      44.489   3.573   9.688  0.00  0.00    +0.000 A 
ATOM      5  N   UNL     1      43.816   4.336  10.642  0.00  0.00    +0.000 N 
ATOM      6  C   UNL     1      44.225   2.207   9.654  0.00  0.00    +0.000 A 
ATOM      7  C   UNL     1      45.019   1.367   8.878  0.00  0.00    +0.000 A 
ATOM      8  C   UNL     1      46.054   1.907   8.107  0.00  0.00    +0.000 A 
ATOM      9  H   UNL     1      42.812   4.208  10.577  0.00  0.00    +0.000 HD
ENDROOT
BRANCH   8  10
ATOM     10  C   UNL     1      46.984   1.007   7.379  0.00  0.00    +0.000 C 
ATOM     11  N   UNL     1      46.821  -0.343   7.574  0.00  0.00    +0.000 N 
ATOM     12  O   UNL     1      47.897   1.414   6.672  0.00  0.00    +0.000 OA
ATOM     13  H   UNL     1      46.256  -0.724   8.317  0.00  0.00    +0.000 HD
ATOM     14  H   UNL     1      47.538  -0.941   7.179  0.00  0.00    +0.000 HD
ENDBRANCH   8  10
BRANCH   5  15
ATOM     15  C   UNL     1      44.194   5.741  10.836  0.00  0.00    +0.000 C 
BRANCH  15  16
ATOM     16  C   UNL     1      45.410   5.882  11.748  0.00  0.00    +0.000 A 
ATOM     17  C   UNL     1      45.583   5.002  12.810  0.00  0.00    +0.000 A 
ATOM     18  C   UNL     1      46.627   5.211  13.697  0.00  0.00    +0.000 A 
ATOM     19  C   UNL     1      47.519   6.249  13.465  0.00  0.00    +0.000 A 
ATOM     20  C   UNL     1      47.377   7.029  12.317  0.00  0.00    +0.000 A 
ATOM     21  N   UNL     1      46.312   6.871  11.481  0.00  0.00    +0.000 NA
BRANCH  20  22
ATOM     22  C   UNL     1      48.462   7.937  11.862  0.00  0.00    +0.000 A 
ATOM     23  C   UNL     1      49.766   7.443  11.674  0.00  0.00    +0.000 A 
ATOM     24  C   UNL     1      50.846   8.294  11.413  0.00  0.00    +0.000 A 
ATOM     25  C   UNL     1      50.644   9.666  11.318  0.00  0.00    +0.000 A 
ATOM     26  C   UNL     1      49.360  10.183  11.456  0.00  0.00    +0.000 A 
ATOM     27  C   UNL     1      48.282   9.327  11.715  0.00  0.00    +0.000 A 
ENDBRANCH  20  22
ENDBRANCH  15  16
ENDBRANCH   5  15
TORSDOF 4
ENDMDL
MODEL 3
REMARK VINA RESULT:    -7.466      3.389      8.889
REMARK INTER + INTRA:          -9.751
REMARK INTER:                  -9.191
REMARK INTRA:                  -0.560
REMARK UNBOUND:                -0.539
REMARK  Name = 
REMARK  5 active torsions:
REMARK  status: ('A' for Active; 'I' for Inactive)
REMARK    1  A    between atoms: C_1  and  C_2
REMARK    2  A    between atoms: N_5  and  C_6
REMARK    3  A    between atoms: C_6  and  C_7
REMARK    4  A    between atoms: C_11  and  C_12
REMARK    5  A    between atoms: C_21  and  C_22
REMARK                            x       y       z     vdW  Elec       q    Type
REMARK                         _______ _______ _______ _____ _____    ______ ____
ROOT
ATOM      1  C   UNL     1      43.835   2.872  12.498  0.00  0.00    +0.000 C 
ATOM      2  C   UNL     1      44.803   4.019  12.547  0.00  0.00    +0.000 A 
ATOM      3  N   UNL     1      45.634   4.036  13.635  0.00  0.00    +0.000 NA
ATOM      4  C   UNL     1      46.597   4.973  13.719  0.00  0.00    +0.000 A 
ATOM      5  N   UNL     1      47.364   5.130  14.873  0.00  0.00    +0.000 N 
ATOM      6  C   UNL     1      46.792   5.888  12.688  0.00  0.00    +0.000 A 
ATOM      7  C   UNL     1      45.911   5.915  11.609  0.00  0.00    +0.000 A 
ATOM      8  C   UNL     1      44.857   4.996  11.551  0.00  0.00    +0.000 A 
ATOM      9  H   UNL     1      48.354   5.160  14.658  0.00  0.00    +0.000 HD
ENDROOT
BRANCH   8  10
ATOM     10  C   UNL     1      43.842   5.100  10.473  0.00  0.00    +0.000 C 
ATOM     11  N   UNL     1      44.221   4.680   9.221  0.00  0.00    +0.000 N 
ATOM     12  O   UNL     1      42.729   5.582  10.643  0.00  0.00    +0.000 OA
ATOM     13  H   UNL     1      45.181   4.506   8.970  0.00  0.00    +0.000 HD
ATOM     14  H   UNL     1      43.570   4.876   8.469  0.00  0.00    +0.000 HD
ENDBRANCH   8  10
BRANCH   5  15
ATOM     15  C   UNL     1      47.067   4.306  16.051  0.00  0.00    +0.000 C 
BRANCH  15  16
ATOM     16  C   UNL     1      48.145   4.437  17.123  0.00  0.00    +0.000 A 
ATOM     17  C   UNL     1      47.891   5.178  18.272  0.00  0.00    +0.000 A 
ATOM     18  C   UNL     1      48.914   5.383  19.184  0.00  0.00    +0.000 A 
ATOM     19  C   UNL     1      50.148   4.785  18.967  0.00  0.00    +0.000 A 
ATOM     20  C   UNL     1      50.318   3.949  17.865  0.00  0.00    +0.000 A 
ATOM     21  N   UNL     1      49.337   3.801  16.929  0.00  0.00    +0.000 NA
BRANCH  20  22
ATOM     22  C   UNL     1      51.496   3.050  17.752  0.00  0.00    +0.000 A 
ATOM     23  C   UNL     1      51.328   1.706  17.372  0.00  0.00    +0.000 A 
ATOM     24  C   UNL     1      52.384   0.789  17.419  0.00  0.00    +0.000 A 
ATOM     25  C   UNL     1      53.645   1.200  17.838  0.00  0.00    +0.000 A 
ATOM     26  C   UNL     1      53.856   2.531  18.180  0.00  0.00    +0.000 A 
ATOM     27  C   UNL     1      52.796   3.446  18.128  0.00  0.00    +0.000 A 
ENDBRANCH  20  22
ENDBRANCH  15  16
ENDBRANCH   5  15
TORSDOF 4
ENDMDL
MODEL 4
REMARK VINA RESULT:    -7.322      1.349      1.974
REMARK INTER + INTRA:          -9.573
REMARK INTER:                  -9.056
REMARK INTRA:                  -0.518
REMARK UNBOUND:                -0.539
REMARK  Name = 
REMARK  5 active torsions:
REMARK  status: ('A' for Active; 'I' for Inactive)
REMARK    1  A    between atoms: C_1  and  C_2
REMARK    2  A    between atoms: N_5  and  C_6
REMARK    3  A    between atoms: C_6  and  C_7
REMARK    4  A    between atoms: C_11  and  C_12
REMARK    5  A    between atoms: C_21  and  C_22
REMARK                            x       y       z     vdW  Elec       q    Type
REMARK                         _______ _______ _______ _____ _____    ______ ____
ROOT
ATOM      1  C   UNL     1      49.168   4.011  17.858  0.00  0.00    +0.000 C 
ATOM      2  C   UNL     1      49.153   5.057  16.782  0.00  0.00    +0.000 A 
ATOM      3  N   UNL     1      48.063   5.029  15.955  0.00  0.00    +0.000 NA
ATOM      4  C   UNL     1      47.916   5.985  15.018  0.00  0.00    +0.000 A 
ATOM      5  N   UNL     1      46.911   5.914  14.054  0.00  0.00    +0.000 N 
ATOM      6  C   UNL     1      48.830   7.030  14.919  0.00  0.00    +0.000 A 
ATOM      7  C   UNL     1      49.972   7.030  15.716  0.00  0.00    +0.000 A 
ATOM      8  C   UNL     1      50.176   5.998  16.637  0.00  0.00    +0.000 A 
ATOM      9  H   UNL     1      46.394   6.784  13.994  0.00  0.00    +0.000 HD
ENDROOT
BRANCH   8  10
ATOM     10  C   UNL     1      51.449   5.922  17.397  0.00  0.00    +0.000 C 
ATOM     11  N   UNL     1      51.625   6.837  18.407  0.00  0.00    +0.000 N 
ATOM     12  O   UNL     1      52.344   5.130  17.130  0.00  0.00    +0.000 OA
ATOM     13  H   UNL     1      51.042   7.652  18.513  0.00  0.00    +0.000 HD
ATOM     14  H   UNL     1      52.545   6.863  18.831  0.00  0.00    +0.000 HD
ENDBRANCH   8  10
BRANCH   5  15
ATOM     15  C   UNL     1      46.040   4.734  14.010  0.00  0.00    +0.000 C 
BRANCH  15  16
ATOM     16  C   UNL     1      45.125   4.747  12.788  0.00  0.00    +0.000 A 
ATOM     17  C   UNL     1      43.932   5.460  12.825  0.00  0.00    +0.000 A 
ATOM     18  C   UNL     1      43.058   5.371  11.753  0.00  0.00    +0.000 A 
ATOM     19  C   UNL     1      43.425   4.631  10.637  0.00  0.00    +0.000 A 
ATOM     20  C   UNL     1      44.685   4.035  10.595  0.00  0.00    +0.000 A 
ATOM     21  N   UNL     1      45.518   4.062  11.674  0.00  0.00    +0.000 NA
BRANCH  20  22
ATOM     22  C   UNL     1      45.245   3.503   9.326  0.00  0.00    +0.000 A 
ATOM     23  C   UNL     1      45.395   2.116   9.145  0.00  0.00    +0.000 A 
ATOM     24  C   UNL     1      46.073   1.585   8.041  0.00  0.00    +0.000 A 
ATOM     25  C   UNL     1      46.608   2.434   7.078  0.00  0.00    +0.000 A 
ATOM     26  C   UNL     1      46.440   3.809   7.205  0.00  0.00    +0.000 A 
ATOM     27  C   UNL     1      45.759   4.335   8.310  0.00  0.00    +0.000 A 
ENDBRANCH  20  22
ENDBRANCH  15  16
ENDBRANCH   5  15
TORSDOF 4
ENDMDL
MODEL 5
REMARK VINA RESULT:    -7.261      3.153      3.742
REMARK INTER + INTRA:          -9.499
REMARK INTER:                  -8.845
REMARK INTRA:                  -0.653
REMARK UNBOUND:                -0.539
REMARK  Name = 
REMARK  5 active torsions:
REMARK  status: ('A' for Active; 'I' for Inactive)
REMARK    1  A    between atoms: C_1  and  C_2
REMARK    2  A    between atoms: N_5  and  C_6
REMARK    3  A    between atoms: C_6  and  C_7
REMARK    4  A    between atoms: C_11  and  C_12
REMARK    5  A    between atoms: C_21  and  C_22
REMARK                            x       y       z     vdW  Elec       q    Type
REMARK                         _______ _______ _______ _____ _____    ______ ____
ROOT
ATOM      1  C   UNL     1      50.048   8.686  11.370  0.00  0.00    +0.000 C 
ATOM      2  C   UNL     1      49.491   8.054  12.612  0.00  0.00    +0.000 A 
ATOM      3  N   UNL     1      48.231   7.535  12.489  0.00  0.00    +0.000 NA
ATOM      4  C   UNL     1      47.684   6.867  13.523  0.00  0.00    +0.000 A 
ATOM      5  N   UNL     1      46.352   6.457  13.504  0.00  0.00    +0.000 N 
ATOM      6  C   UNL     1      48.408   6.650  14.691  0.00  0.00    +0.000 A 
ATOM      7  C   UNL     1      49.666   7.228  14.846  0.00  0.00    +0.000 A 
ATOM      8  C   UNL     1      50.210   7.992  13.808  0.00  0.00    +0.000 A 
ATOM      9  H   UNL     1      46.262   5.479  13.757  0.00  0.00    +0.000 HD
ENDROOT
BRANCH   8  10
ATOM     10  C   UNL     1      51.490   8.715  14.013  0.00  0.00    +0.000 C 
ATOM     11  N   UNL     1      51.409   9.997  14.499  0.00  0.00    +0.000 N 
ATOM     12  O   UNL     1      52.583   8.242  13.723  0.00  0.00    +0.000 OA
ATOM     13  H   UNL     1      50.546  10.517  14.526  0.00  0.00    +0.000 HD
ATOM     14  H   UNL     1      52.274  10.526  14.511  0.00  0.00    +0.000 HD
ENDBRANCH   8  10
BRANCH   5  15
ATOM     15  C   UNL     1      45.502   6.826  12.367  0.00  0.00    +0.000 C 
BRANCH  15  16
ATOM     16  C   UNL     1      44.821   5.610  11.745  0.00  0.00    +0.000 A 
ATOM     17  C   UNL     1      43.563   5.219  12.192  0.00  0.00    +0.000 A 
ATOM     18  C   UNL     1      43.005   4.049  11.701  0.00  0.00    +0.000 A 
ATOM     19  C   UNL     1      43.681   3.332  10.723  0.00  0.00    +0.000 A 
ATOM     20  C   UNL     1      44.881   3.829  10.217  0.00  0.00    +0.000 A 
ATOM     21  N   UNL     1      45.467   4.942  10.746  0.00  0.00    +0.000 NA
BRANCH  20  22
ATOM     22  C   UNL     1      45.482   3.280   8.974  0.00  0.00    +0.000 A 
ATOM     23  C   UNL     1      45.691   1.895   8.842  0.00  0.00    +0.000 A 
ATOM     24  C   UNL     1      46.406   1.357   7.765  0.00  0.00    +0.000 A 
ATOM     25  C   UNL     1      46.920   2.196   6.782  0.00  0.00    +0.000 A 
ATOM     26  C   UNL     1      46.694   3.566   6.860  0.00  0.00    +0.000 A 
ATOM     27  C   UNL     1      45.975   4.099   7.938  0.00  0.00    +0.000 A 
ENDBRANCH  20  22
ENDBRANCH  15  16
ENDBRANCH   5  15
TORSDOF 4
ENDMDL
MODEL 6
REMARK VINA RESULT:    -6.736      3.336      8.886
REMARK INTER + INTRA:          -8.851
REMARK INTER:                  -8.254
REMARK INTRA:                  -0.597
REMARK UNBOUND:                -0.539
REMARK  Name = 
REMARK  5 active torsions:
REMARK  status: ('A' for Active; 'I' for Inactive)
REMARK    1  A    between atoms: C_1  and  C_2
REMARK    2  A    between atoms: N_5  and  C_6
REMARK    3  A    between atoms: C_6  and  C_7
REMARK    4  A    between atoms: C_11  and  C_12
REMARK    5  A    between atoms: C_21  and  C_22
REMARK                            x       y       z     vdW  Elec       q    Type
REMARK                         _______ _______ _______ _____ _____    ______ ____
ROOT
ATOM      1  C   UNL     1      43.994   2.878  12.509  0.00  0.00    +0.000 C 
ATOM      2  C   UNL     1      44.909   4.065  12.594  0.00  0.00    +0.000 A 
ATOM      3  N   UNL     1      45.755   4.074  13.669  0.00  0.00    +0.000 NA
ATOM      4  C   UNL     1      46.675   5.051  13.781  0.00  0.00    +0.000 A 
ATOM      5  N   UNL     1      47.452   5.194  14.930  0.00  0.00    +0.000 N 
ATOM      6  C   UNL     1      46.812   6.015  12.787  0.00  0.00    +0.000 A 
ATOM      7  C   UNL     1      45.915   6.047  11.722  0.00  0.00    +0.000 A 
ATOM      8  C   UNL     1      44.903   5.084  11.639  0.00  0.00    +0.000 A 
ATOM      9  H   UNL     1      48.437   5.279  14.703  0.00  0.00    +0.000 HD
ENDROOT
BRANCH   8  10
ATOM     10  C   UNL     1      43.868   5.186  10.580  0.00  0.00    +0.000 C 
ATOM     11  N   UNL     1      44.205   4.717   9.334  0.00  0.00    +0.000 N 
ATOM     12  O   UNL     1      42.774   5.707  10.759  0.00  0.00    +0.000 OA
ATOM     13  H   UNL     1      45.154   4.504   9.069  0.00  0.00    +0.000 HD
ATOM     14  H   UNL     1      43.544   4.909   8.590  0.00  0.00    +0.000 HD
ENDBRANCH   8  10
BRANCH   5  15
ATOM     15  C   UNL     1      47.211   4.309  16.075  0.00  0.00    +0.000 C 
BRANCH  15  16
ATOM     16  C   UNL     1      48.276   4.474  17.156  0.00  0.00    +0.000 A 
ATOM     17  C   UNL     1      47.955   4.223  18.486  0.00  0.00    +0.000 A 
ATOM     18  C   UNL     1      48.896   4.486  19.469  0.00  0.00    +0.000 A 
ATOM     19  C   UNL     1      50.160   4.924  19.100  0.00  0.00    +0.000 A 
ATOM     20  C   UNL     1      50.476   5.042  17.747  0.00  0.00    +0.000 A 
ATOM     21  N   UNL     1      49.532   4.853  16.781  0.00  0.00    +0.000 NA
BRANCH  20  22
ATOM     22  C   UNL     1      51.881   5.203  17.293  0.00  0.00    +0.000 A 
ATOM     23  C   UNL     1      52.876   4.315  17.742  0.00  0.00    +0.000 A 
ATOM     24  C   UNL     1      54.233   4.533  17.476  0.00  0.00    +0.000 A 
ATOM     25  C   UNL     1      54.628   5.644  16.738  0.00  0.00    +0.000 A 
ATOM     26  C   UNL     1      53.667   6.518  16.244  0.00  0.00    +0.000 A 
ATOM     27  C   UNL     1      52.310   6.295  16.510  0.00  0.00    +0.000 A 
ENDBRANCH  20  22
ENDBRANCH  15  16
ENDBRANCH   5  15
TORSDOF 4
ENDMDL
MODEL 7
REMARK VINA RESULT:    -6.664      1.617      2.009
REMARK INTER + INTRA:          -8.762
REMARK INTER:                  -8.228
REMARK INTRA:                  -0.534
REMARK UNBOUND:                -0.539
REMARK  Name = 
REMARK  5 active torsions:
REMARK  status: ('A' for Active; 'I' for Inactive)
REMARK    1  A    between atoms: C_1  and  C_2
REMARK    2  A    between atoms: N_5  and  C_6
REMARK    3  A    between atoms: C_6  and  C_7
REMARK    4  A    between atoms: C_11  and  C_12
REMARK    5  A    between atoms: C_21  and  C_22
REMARK                            x       y       z     vdW  Elec       q    Type
REMARK                         _______ _______ _______ _____ _____    ______ ____
ROOT
ATOM      1  C   UNL     1      51.577   6.418  17.368  0.00  0.00    +0.000 C 
ATOM      2  C   UNL     1      50.178   5.881  17.457  0.00  0.00    +0.000 A 
ATOM      3  N   UNL     1      49.467   5.906  16.287  0.00  0.00    +0.000 NA
ATOM      4  C   UNL     1      48.236   5.362  16.247  0.00  0.00    +0.000 A 
ATOM      5  N   UNL     1      47.414   5.500  15.130  0.00  0.00    +0.000 N 
ATOM      6  C   UNL     1      47.704   4.725  17.364  0.00  0.00    +0.000 A 
ATOM      7  C   UNL     1      48.396   4.750  18.573  0.00  0.00    +0.000 A 
ATOM      8  C   UNL     1      49.640   5.384  18.647  0.00  0.00    +0.000 A 
ATOM      9  H   UNL     1      47.036   4.606  14.836  0.00  0.00    +0.000 HD
ENDROOT
BRANCH   8  10
ATOM     10  C   UNL     1      50.323   5.526  19.957  0.00  0.00    +0.000 C 
ATOM     11  N   UNL     1      50.089   6.684  20.657  0.00  0.00    +0.000 N 
ATOM     12  O   UNL     1      51.107   4.695  20.399  0.00  0.00    +0.000 OA
ATOM     13  H   UNL     1      49.655   7.495  20.243  0.00  0.00    +0.000 HD
ATOM     14  H   UNL     1      50.658   6.830  21.483  0.00  0.00    +0.000 HD
ENDBRANCH   8  10
BRANCH   5  15
ATOM     15  C   UNL     1      47.866   6.320  14.001  0.00  0.00    +0.000 C 
BRANCH  15  16
ATOM     16  C   UNL     1      46.748   6.566  12.991  0.00  0.00    +0.000 A 
ATOM     17  C   UNL     1      46.133   7.812  12.932  0.00  0.00    +0.000 A 
ATOM     18  C   UNL     1      45.044   7.989  12.093  0.00  0.00    +0.000 A 
ATOM     19  C   UNL     1      44.639   6.941  11.276  0.00  0.00    +0.000 A 
ATOM     20  C   UNL     1      45.364   5.751  11.279  0.00  0.00    +0.000 A 
ATOM     21  N   UNL     1      46.391   5.549  12.154  0.00  0.00    +0.000 NA
BRANCH  20  22
ATOM     22  C   UNL     1      45.171   4.726  10.221  0.00  0.00    +0.000 A 
ATOM     23  C   UNL     1      44.540   3.506  10.525  0.00  0.00    +0.000 A 
ATOM     24  C   UNL     1      44.492   2.452   9.605  0.00  0.00    +0.000 A 
ATOM     25  C   UNL     1      45.065   2.600   8.346  0.00  0.00    +0.000 A 
ATOM     26  C   UNL     1      45.659   3.808   7.999  0.00  0.00    +0.000 A 
ATOM     27  C   UNL     1      45.703   4.861   8.922  0.00  0.00    +0.000 A 
ENDBRANCH  20  22
ENDBRANCH  15  16
ENDBRANCH   5  15
TORSDOF 4
ENDMDL
MODEL 8
REMARK VINA RESULT:    -6.538      3.575      7.877
REMARK INTER + INTRA:          -8.606
REMARK INTER:                  -7.933
REMARK INTRA:                  -0.673
REMARK UNBOUND:                -0.539
REMARK  Name = 
REMARK  5 active torsions:
REMARK  status: ('A' for Active; 'I' for Inactive)
REMARK    1  A    between atoms: C_1  and  C_2
REMARK    2  A    between atoms: N_5  and  C_6
REMARK    3  A    between atoms: C_6  and  C_7
REMARK    4  A    between atoms: C_11  and  C_12
REMARK    5  A    between atoms: C_21  and  C_22
REMARK                            x       y       z     vdW  Elec       q    Type
REMARK                         _______ _______ _______ _____ _____    ______ ____
ROOT
ATOM      1  C   UNL     1      46.195   3.763  13.055  0.00  0.00    +0.000 C 
ATOM      2  C   UNL     1      45.811   5.140  12.597  0.00  0.00    +0.000 A 
ATOM      3  N   UNL     1      46.848   6.027  12.481  0.00  0.00    +0.000 NA
ATOM      4  C   UNL     1      46.615   7.258  11.989  0.00  0.00    +0.000 A 
ATOM      5  N   UNL     1      47.601   8.245  11.996  0.00  0.00    +0.000 N 
ATOM      6  C   UNL     1      45.347   7.619  11.547  0.00  0.00    +0.000 A 
ATOM      7  C   UNL     1      44.276   6.745  11.720  0.00  0.00    +0.000 A 
ATOM      8  C   UNL     1      44.492   5.492  12.304  0.00  0.00    +0.000 A 
ATOM      9  H   UNL     1      47.694   8.682  11.086  0.00  0.00    +0.000 HD
ENDROOT
BRANCH   8  10
ATOM     10  C   UNL     1      43.339   4.608  12.608  0.00  0.00    +0.000 C 
ATOM     11  N   UNL     1      42.965   3.717  11.631  0.00  0.00    +0.000 N 
ATOM     12  O   UNL     1      42.695   4.677  13.648  0.00  0.00    +0.000 OA
ATOM     13  H   UNL     1      43.295   3.778  10.681  0.00  0.00    +0.000 HD
ATOM     14  H   UNL     1      42.102   3.212  11.794  0.00  0.00    +0.000 HD
ENDBRANCH   8  10
BRANCH   5  15
ATOM     15  C   UNL     1      48.897   7.962  12.622  0.00  0.00    +0.000 C 
BRANCH  15  16
ATOM     16  C   UNL     1      48.798   7.913  14.144  0.00  0.00    +0.000 A 
ATOM     17  C   UNL     1      48.393   9.043  14.846  0.00  0.00    +0.000 A 
ATOM     18  C   UNL     1      48.416   9.022  16.232  0.00  0.00    +0.000 A 
ATOM     19  C   UNL     1      48.773   7.851  16.888  0.00  0.00    +0.000 A 
ATOM     20  C   UNL     1      49.050   6.706  16.141  0.00  0.00    +0.000 A 
ATOM     21  N   UNL     1      49.097   6.742  14.779  0.00  0.00    +0.000 NA
BRANCH  20  22
ATOM     22  C   UNL     1      49.131   5.368  16.782  0.00  0.00    +0.000 A 
ATOM     23  C   UNL     1      50.344   4.922  17.338  0.00  0.00    +0.000 A 
ATOM     24  C   UNL     1      50.506   3.609  17.795  0.00  0.00    +0.000 A 
ATOM     25  C   UNL     1      49.448   2.709  17.719  0.00  0.00    +0.000 A 
ATOM     26  C   UNL     1      48.223   3.130  17.213  0.00  0.00    +0.000 A 
ATOM     27  C   UNL     1      48.064   4.446  16.760  0.00  0.00    +0.000 A 
ENDBRANCH  20  22
ENDBRANCH  15  16
ENDBRANCH   5  15
TORSDOF 4
ENDMDL
MODEL 9
REMARK VINA RESULT:    -6.459      4.829      7.776
REMARK INTER + INTRA:          -8.509
REMARK INTER:                  -7.859
REMARK INTRA:                  -0.650
REMARK UNBOUND:                -0.539
REMARK  Name = 
REMARK  5 active torsions:
REMARK  status: ('A' for Active; 'I' for Inactive)
REMARK    1  A    between atoms: C_1  and  C_2
REMARK    2  A    between atoms: N_5  and  C_6
REMARK    3  A    between atoms: C_6  and  C_7
REMARK    4  A    between atoms: C_11  and  C_12
REMARK    5  A    between atoms: C_21  and  C_22
REMARK                            x       y       z     vdW  Elec       q    Type
REMARK                         _______ _______ _______ _____ _____    ______ ____
ROOT
ATOM      1  C   UNL     1      42.694   5.532  11.403  0.00  0.00    +0.000 C 
ATOM      2  C   UNL     1      44.032   5.196  11.994  0.00  0.00    +0.000 A 
ATOM      3  N   UNL     1      44.718   6.255  12.525  0.00  0.00    +0.000 NA
ATOM      4  C   UNL     1      45.886   6.038  13.159  0.00  0.00    +0.000 A 
ATOM      5  N   UNL     1      46.696   7.093  13.578  0.00  0.00    +0.000 N 
ATOM      6  C   UNL     1      46.374   4.746  13.329  0.00  0.00    +0.000 A 
ATOM      7  C   UNL     1      45.712   3.671  12.738  0.00  0.00    +0.000 A 
ATOM      8  C   UNL     1      44.540   3.895  12.008  0.00  0.00    +0.000 A 
ATOM      9  H   UNL     1      46.975   6.983  14.546  0.00  0.00    +0.000 HD
ENDROOT
BRANCH   8  10
ATOM     10  C   UNL     1      43.902   2.777  11.270  0.00  0.00    +0.000 C 
ATOM     11  N   UNL     1      44.426   2.464  10.040  0.00  0.00    +0.000 N 
ATOM     12  O   UNL     1      42.919   2.173  11.684  0.00  0.00    +0.000 OA
ATOM     13  H   UNL     1      45.065   3.070   9.549  0.00  0.00    +0.000 HD
ATOM     14  H   UNL     1      43.905   1.791   9.490  0.00  0.00    +0.000 HD
ENDBRANCH   8  10
BRANCH   5  15
ATOM     15  C   UNL     1      46.307   8.470  13.255  0.00  0.00    +0.000 C 
BRANCH  15  16
ATOM     16  C   UNL     1      47.407   9.211  12.500  0.00  0.00    +0.000 A 
ATOM     17  C   UNL     1      47.147  10.463  11.953  0.00  0.00    +0.000 A 
ATOM     18  C   UNL     1      48.117  11.074  11.173  0.00  0.00    +0.000 A 
ATOM     19  C   UNL     1      49.350  10.457  11.015  0.00  0.00    +0.000 A 
ATOM     20  C   UNL     1      49.608   9.262  11.685  0.00  0.00    +0.000 A 
ATOM     21  N   UNL     1      48.635   8.623  12.395  0.00  0.00    +0.000 NA
BRANCH  20  22
ATOM     22  C   UNL     1      50.989   8.725  11.802  0.00  0.00    +0.000 A 
ATOM     23  C   UNL     1      51.694   8.845  13.014  0.00  0.00    +0.000 A 
ATOM     24  C   UNL     1      53.048   8.509  13.115  0.00  0.00    +0.000 A 
ATOM     25  C   UNL     1      53.731   8.028  12.003  0.00  0.00    +0.000 A 
ATOM     26  C   UNL     1      53.053   7.857  10.801  0.00  0.00    +0.000 A 
ATOM     27  C   UNL     1      51.696   8.192  10.705  0.00  0.00    +0.000 A 
ENDBRANCH  20  22
ENDBRANCH  15  16
ENDBRANCH   5  15
TORSDOF 4
ENDMDL
