MODEL 1
REMARK VINA RESULT:    -9.424      0.000      0.000
REMARK INTER + INTRA:         -13.101
REMARK INTER:                 -12.178
REMARK INTRA:                  -0.922
REMARK UNBOUND:                -0.922
REMARK  Name = 
REMARK  5 active torsions:
REMARK  status: ('A' for Active; 'I' for Inactive)
REMARK    1  A    between atoms: C_2  and  C_4
REMARK    2  A    between atoms: C_7  and  N_8
REMARK    3  A    between atoms: N_8  and  C_9
REMARK    4  A    between atoms: C_9  and  C_10
REMARK    5  A    between atoms: C_14  and  C_15
REMARK                            x       y       z     vdW  Elec       q    Type
REMARK                         _______ _______ _______ _____ _____    ______ ____
ROOT
ATOM      1  C   UNL     1      43.901   5.001  11.435  0.00  0.00    +0.000 C 
ATOM      2  C   UNL     1      43.022   4.075  12.260  0.00  0.00    +0.000 C 
ATOM      3  C   UNL     1      42.659   5.514  12.153  0.00  0.00    +0.000 C 
ENDROOT
BRANCH   1   4
ATOM      4  C   UNL     1      45.225   5.506  11.997  0.00  0.00    +0.000 A 
ATOM      5  C   UNL     1      45.953   6.519  11.365  0.00  0.00    +0.000 A 
ATOM      6  C   UNL     1      47.127   6.975  11.940  0.00  0.00    +0.000 A 
ATOM      7  N   UNL     1      47.639   6.491  13.090  0.00  0.00    +0.000 NA
ATOM      8  C   UNL     1      46.963   5.483  13.702  0.00  0.00    +0.000 A 
ATOM      9  C   UNL     1      45.769   4.985  13.177  0.00  0.00    +0.000 A 
BRANCH   8  10
ATOM     10  C   UNL     1      47.542   4.939  14.955  0.00  0.00    +0.000 A 
ATOM     11  C   UNL     1      48.245   5.735  15.859  0.00  0.00    +0.000 A 
ATOM     12  C   UNL     1      48.773   5.159  17.012  0.00  0.00    +0.000 A 
ATOM     13  C   UNL     1      48.590   3.803  17.244  0.00  0.00    +0.000 A 
ATOM     14  C   UNL     1      47.881   3.075  16.308  0.00  0.00    +0.000 A 
ATOM     15  N   UNL     1      47.353   3.606  15.185  0.00  0.00    +0.000 NA
ENDBRANCH   8  10
ENDBRANCH   1   4
BRANCH   1  16
ATOM     16  N   UNL     1      43.888   4.879   9.967  0.00  0.00    +0.000 N 
ATOM     17  H   UNL     1      43.065   5.191   9.463  0.00  0.00    +0.000 HD
BRANCH  16  21
ATOM     18  C   UNL     1      46.441   2.311   7.767  0.00  0.00    +0.000 A 
ATOM     19  C   UNL     1      45.581   1.776   8.725  0.00  0.00    +0.000 A 
ATOM     20  C   UNL     1      44.744   2.619   9.461  0.00  0.00    +0.000 A 
ATOM     21  C   UNL     1      44.715   4.000   9.239  0.00  0.00    +0.000 A 
ATOM     22  C   UNL     1      45.631   4.530   8.319  0.00  0.00    +0.000 A 
ATOM     23  C   UNL     1      46.489   3.696   7.589  0.00  0.00    +0.000 A 
BRANCH  18  25
ATOM     24  N   UNL     1      48.352   2.054   6.283  0.00  0.00    +0.000 N 
ATOM     25  C   UNL     1      47.325   1.442   6.948  0.00  0.00    +0.000 C 
ATOM     26  O   UNL     1      47.177   0.229   6.903  0.00  0.00    +0.000 OA
ATOM     27  H   UNL     1      49.013   1.446   5.818  0.00  0.00    +0.000 HD
ATOM     28  H   UNL     1      48.652   2.993   6.500  0.00  0.00    +0.000 HD
ENDBRANCH  18  25
ENDBRANCH  16  21
ENDBRANCH   1  16
TORSDOF 5
ENDMDL
MODEL 2
REMARK VINA RESULT:    -8.954      1.746      3.547
REMARK INTER + INTRA:         -12.494
REMARK INTER:                 -11.503
REMARK INTRA:                  -0.991
REMARK UNBOUND:                -0.922
REMARK  Name = 
REMARK  5 active torsions:
REMARK  status: ('A' for Active; 'I' for Inactive)
REMARK    1  A    between atoms: C_2  and  C_4
REMARK    2  A    between atoms: C_7  and  N_8
REMARK    3  A    between atoms: N_8  and  C_9
REMARK    4  A    between atoms: C_9  and  C_10
REMARK    5  A    between atoms: C_14  and  C_15
REMARK                            x       y       z     vdW  Elec       q    Type
REMARK                         _______ _______ _______ _____ _____    ______ ____
ROOT
ATOM      1  C   UNL     1      43.963   5.140  11.228  0.00  0.00    +0.000 C 
ATOM      2  C   UNL     1      42.807   4.383  11.862  0.00  0.00    +0.000 C 
ATOM      3  C   UNL     1      42.752   5.869  11.798  0.00  0.00    +0.000 C 
ENDROOT
BRANCH   1   4
ATOM      4  C   UNL     1      45.261   5.347  11.999  0.00  0.00    +0.000 A 
ATOM      5  C   UNL     1      45.694   4.435  12.968  0.00  0.00    +0.000 A 
ATOM      6  C   UNL     1      46.904   4.644  13.609  0.00  0.00    +0.000 A 
ATOM      7  N   UNL     1      47.710   5.697  13.368  0.00  0.00    +0.000 NA
ATOM      8  C   UNL     1      47.292   6.611  12.453  0.00  0.00    +0.000 A 
ATOM      9  C   UNL     1      46.086   6.454  11.767  0.00  0.00    +0.000 A 
BRANCH   8  10
ATOM     10  C   UNL     1      48.172   7.779  12.207  0.00  0.00    +0.000 A 
ATOM     11  C   UNL     1      49.407   7.661  11.570  0.00  0.00    +0.000 A 
ATOM     12  C   UNL     1      50.192   8.797  11.379  0.00  0.00    +0.000 A 
ATOM     13  C   UNL     1      49.732  10.028  11.826  0.00  0.00    +0.000 A 
ATOM     14  C   UNL     1      48.497  10.072  12.447  0.00  0.00    +0.000 A 
ATOM     15  N   UNL     1      47.714   8.991  12.640  0.00  0.00    +0.000 NA
ENDBRANCH   8  10
ENDBRANCH   1   4
BRANCH   1  16
ATOM     16  N   UNL     1      44.144   5.075   9.768  0.00  0.00    +0.000 N 
ATOM     17  H   UNL     1      43.469   5.544   9.175  0.00  0.00    +0.000 HD
BRANCH  16  21
ATOM     18  C   UNL     1      46.374   2.054   7.805  0.00  0.00    +0.000 A 
ATOM     19  C   UNL     1      46.540   3.387   7.433  0.00  0.00    +0.000 A 
ATOM     20  C   UNL     1      45.799   4.387   8.070  0.00  0.00    +0.000 A 
ATOM     21  C   UNL     1      44.910   4.092   9.109  0.00  0.00    +0.000 A 
ATOM     22  C   UNL     1      44.708   2.742   9.428  0.00  0.00    +0.000 A 
ATOM     23  C   UNL     1      45.430   1.728   8.784  0.00  0.00    +0.000 A 
BRANCH  18  25
ATOM     24  N   UNL     1      46.872  -0.314   7.547  0.00  0.00    +0.000 N 
ATOM     25  C   UNL     1      47.164   0.969   7.169  0.00  0.00    +0.000 C 
ATOM     26  O   UNL     1      48.006   1.199   6.313  0.00  0.00    +0.000 OA
ATOM     27  H   UNL     1      47.334  -1.051   7.031  0.00  0.00    +0.000 HD
ATOM     28  H   UNL     1      46.026  -0.550   8.046  0.00  0.00    +0.000 HD
ENDBRANCH  18  25
ENDBRANCH  16  21
ENDBRANCH   1  16
TORSDOF 5
ENDMDL
MODEL 3
REMARK VINA RESULT:    -7.428      1.163      2.317
REMARK INTER + INTRA:         -10.522
REMARK INTER:                 -10.486
REMARK INTRA:                  -0.036
REMARK UNBOUND:                -0.922
REMARK  Name = 
REMARK  5 active torsions:
REMARK  status: ('A' for Active; 'I' for Inactive)
REMARK    1  A    between atoms: C_2  and  C_4
REMARK    2  A    between atoms: C_7  and  N_8
REMARK    3  A    between atoms: N_8  and  C_9
REMARK    4  A    between atoms: C_9  and  C_10
REMARK    5  A    between atoms: C_14  and  C_15
REMARK                            x       y       z     vdW  Elec       q    Type
REMARK                         _______ _______ _______ _____ _____    ______ ____
ROOT
ATOM      1  C   UNL     1      44.491   5.754  11.177  0.00  0.00    +0.000 C 
ATOM      2  C   UNL     1      43.611   6.906  11.638  0.00  0.00    +0.000 C 
ATOM      3  C   UNL     1      44.885   7.205  10.929  0.00  0.00    +0.000 C 
ENDROOT
BRANCH   1   4
ATOM      4  C   UNL     1      45.369   5.010  12.176  0.00  0.00    +0.000 A 
ATOM      5  C   UNL     1      45.300   3.620  12.322  0.00  0.00    +0.000 A 
ATOM      6  C   UNL     1      46.151   2.985  13.211  0.00  0.00    +0.000 A 
ATOM      7  N   UNL     1      47.058   3.629  13.974  0.00  0.00    +0.000 NA
ATOM      8  C   UNL     1      47.119   4.983  13.869  0.00  0.00    +0.000 A 
ATOM      9  C   UNL     1      46.293   5.681  12.985  0.00  0.00    +0.000 A 
BRANCH   8  10
ATOM     10  C   UNL     1      48.103   5.688  14.725  0.00  0.00    +0.000 A 
ATOM     11  C   UNL     1      48.226   5.427  16.090  0.00  0.00    +0.000 A 
ATOM     12  C   UNL     1      49.163   6.132  16.841  0.00  0.00    +0.000 A 
ATOM     13  C   UNL     1      49.960   7.084  16.220  0.00  0.00    +0.000 A 
ATOM     14  C   UNL     1      49.787   7.290  14.864  0.00  0.00    +0.000 A 
ATOM     15  N   UNL     1      48.892   6.617  14.111  0.00  0.00    +0.000 NA
ENDBRANCH   8  10
ENDBRANCH   1   4
BRANCH   1  16
ATOM     16  N   UNL     1      44.045   4.925  10.044  0.00  0.00    +0.000 N 
ATOM     17  H   UNL     1      43.081   4.612  10.023  0.00  0.00    +0.000 HD
BRANCH  16  21
ATOM     18  C   UNL     1      46.586   2.624   7.553  0.00  0.00    +0.000 A 
ATOM     19  C   UNL     1      46.697   4.014   7.559  0.00  0.00    +0.000 A 
ATOM     20  C   UNL     1      45.854   4.779   8.371  0.00  0.00    +0.000 A 
ATOM     21  C   UNL     1      44.913   4.183   9.217  0.00  0.00    +0.000 A 
ATOM     22  C   UNL     1      44.770   2.790   9.153  0.00  0.00    +0.000 A 
ATOM     23  C   UNL     1      45.595   2.013   8.328  0.00  0.00    +0.000 A 
BRANCH  18  25
ATOM     24  N   UNL     1      48.571   2.394   6.165  0.00  0.00    +0.000 N 
ATOM     25  C   UNL     1      47.483   1.780   6.723  0.00  0.00    +0.000 C 
ATOM     26  O   UNL     1      47.291   0.581   6.579  0.00  0.00    +0.000 OA
ATOM     27  H   UNL     1      49.235   1.793   5.694  0.00  0.00    +0.000 HD
ATOM     28  H   UNL     1      48.893   3.302   6.468  0.00  0.00    +0.000 HD
ENDBRANCH  18  25
ENDBRANCH  16  21
ENDBRANCH   1  16
TORSDOF 5
ENDMDL
MODEL 4
REMARK VINA RESULT:    -7.322      2.607      7.321
REMARK INTER + INTRA:         -10.385
REMARK INTER:                 -10.293
REMARK INTRA:                  -0.092
REMARK UNBOUND:                -0.922
REMARK  Name = 
REMARK  5 active torsions:
REMARK  status: ('A' for Active; 'I' for Inactive)
REMARK    1  A    between atoms: C_2  and  C_4
REMARK    2  A    between atoms: C_7  and  N_8
REMARK    3  A    between atoms: N_8  and  C_9
REMARK    4  A    between atoms: C_9  and  C_10
REMARK    5  A    between atoms: C_14  and  C_15
REMARK                            x       y       z     vdW  Elec       q    Type
REMARK                         _______ _______ _______ _____ _____    ______ ____
ROOT
ATOM      1  C   UNL     1      46.164   7.540  12.114  0.00  0.00    +0.000 C 
ATOM      2  C   UNL     1      46.108   8.990  11.660  0.00  0.00    +0.000 C 
ATOM      3  C   UNL     1      45.385   8.589  12.898  0.00  0.00    +0.000 C 
ENDROOT
BRANCH   1   4
ATOM      4  C   UNL     1      45.307   6.485  11.423  0.00  0.00    +0.000 A 
ATOM      5  C   UNL     1      43.941   6.353  11.695  0.00  0.00    +0.000 A 
ATOM      6  C   UNL     1      43.197   5.410  11.007  0.00  0.00    +0.000 A 
ATOM      7  N   UNL     1      43.711   4.578  10.078  0.00  0.00    +0.000 NA
ATOM      8  C   UNL     1      45.043   4.668   9.823  0.00  0.00    +0.000 A 
ATOM      9  C   UNL     1      45.846   5.605  10.477  0.00  0.00    +0.000 A 
BRANCH   8  10
ATOM     10  C   UNL     1      45.607   3.737   8.816  0.00  0.00    +0.000 A 
ATOM     11  C   UNL     1      45.593   2.353   8.990  0.00  0.00    +0.000 A 
ATOM     12  C   UNL     1      46.149   1.533   8.011  0.00  0.00    +0.000 A 
ATOM     13  C   UNL     1      46.710   2.107   6.877  0.00  0.00    +0.000 A 
ATOM     14  C   UNL     1      46.687   3.485   6.769  0.00  0.00    +0.000 A 
ATOM     15  N   UNL     1      46.150   4.303   7.698  0.00  0.00    +0.000 NA
ENDBRANCH   8  10
ENDBRANCH   1   4
BRANCH   1  16
ATOM     16  N   UNL     1      47.423   7.013  12.667  0.00  0.00    +0.000 N 
ATOM     17  H   UNL     1      48.234   6.962  12.062  0.00  0.00    +0.000 HD
BRANCH  16  21
ATOM     18  C   UNL     1      47.643   4.471  16.051  0.00  0.00    +0.000 A 
ATOM     19  C   UNL     1      48.354   5.671  16.039  0.00  0.00    +0.000 A 
ATOM     20  C   UNL     1      48.294   6.508  14.921  0.00  0.00    +0.000 A 
ATOM     21  C   UNL     1      47.502   6.194  13.812  0.00  0.00    +0.000 A 
ATOM     22  C   UNL     1      46.843   4.956  13.812  0.00  0.00    +0.000 A 
ATOM     23  C   UNL     1      46.912   4.098  14.919  0.00  0.00    +0.000 A 
BRANCH  18  25
ATOM     24  N   UNL     1      48.790   3.591  18.008  0.00  0.00    +0.000 N 
ATOM     25  C   UNL     1      47.662   3.571  17.232  0.00  0.00    +0.000 C 
ATOM     26  O   UNL     1      46.702   2.876  17.532  0.00  0.00    +0.000 OA
ATOM     27  H   UNL     1      48.754   3.061  18.868  0.00  0.00    +0.000 HD
ATOM     28  H   UNL     1      49.480   4.325  17.938  0.00  0.00    +0.000 HD
ENDBRANCH  18  25
ENDBRANCH  16  21
ENDBRANCH   1  16
TORSDOF 5
ENDMDL
MODEL 5
REMARK VINA RESULT:    -7.076      3.226      6.867
REMARK INTER + INTRA:         -10.067
REMARK INTER:                  -9.132
REMARK INTRA:                  -0.935
REMARK UNBOUND:                -0.922
REMARK  Name = 
REMARK  5 active torsions:
REMARK  status: ('A' for Active; 'I' for Inactive)
REMARK    1  A    between atoms: C_2  and  C_4
REMARK    2  A    between atoms: C_7  and  N_8
REMARK    3  A    between atoms: N_8  and  C_9
REMARK    4  A    between atoms: C_9  and  C_10
REMARK    5  A    between atoms: C_14  and  C_15
REMARK                            x       y       z     vdW  Elec       q    Type
REMARK                         _______ _______ _______ _____ _____    ______ ____
ROOT
ATOM      1  C   UNL     1      43.686   5.959  11.808  0.00  0.00    +0.000 C 
ATOM      2  C   UNL     1      43.251   7.067  10.863  0.00  0.00    +0.000 C 
ATOM      3  C   UNL     1      42.246   6.455  11.775  0.00  0.00    +0.000 C 
ENDROOT
BRANCH   1   4
ATOM      4  C   UNL     1      43.891   4.541  11.287  0.00  0.00    +0.000 A 
ATOM      5  C   UNL     1      43.288   3.438  11.901  0.00  0.00    +0.000 A 
ATOM      6  C   UNL     1      43.468   2.175  11.362  0.00  0.00    +0.000 A 
ATOM      7  N   UNL     1      44.212   1.925  10.266  0.00  0.00    +0.000 NA
ATOM      8  C   UNL     1      44.831   2.979   9.673  0.00  0.00    +0.000 A 
ATOM      9  C   UNL     1      44.683   4.278  10.163  0.00  0.00    +0.000 A 
BRANCH   8  10
ATOM     10  C   UNL     1      45.665   2.695   8.481  0.00  0.00    +0.000 A 
ATOM     11  C   UNL     1      45.908   3.652   7.495  0.00  0.00    +0.000 A 
ATOM     12  C   UNL     1      46.692   3.318   6.393  0.00  0.00    +0.000 A 
ATOM     13  C   UNL     1      47.220   2.038   6.293  0.00  0.00    +0.000 A 
ATOM     14  C   UNL     1      46.942   1.141   7.307  0.00  0.00    +0.000 A 
ATOM     15  N   UNL     1      46.191   1.438   8.388  0.00  0.00    +0.000 NA
ENDBRANCH   8  10
ENDBRANCH   1   4
BRANCH   1  16
ATOM     16  N   UNL     1      44.539   6.297  12.960  0.00  0.00    +0.000 N 
ATOM     17  H   UNL     1      44.093   6.543  13.837  0.00  0.00    +0.000 HD
BRANCH  16  21
ATOM     18  C   UNL     1      48.600   7.460  12.626  0.00  0.00    +0.000 A 
ATOM     19  C   UNL     1      47.592   8.365  12.297  0.00  0.00    +0.000 A 
ATOM     20  C   UNL     1      46.251   7.983  12.395  0.00  0.00    +0.000 A 
ATOM     21  C   UNL     1      45.881   6.715  12.855  0.00  0.00    +0.000 A 
ATOM     22  C   UNL     1      46.906   5.796  13.121  0.00  0.00    +0.000 A 
ATOM     23  C   UNL     1      48.254   6.160  13.008  0.00  0.00    +0.000 A 
BRANCH  18  25
ATOM     24  N   UNL     1      50.740   7.407  11.470  0.00  0.00    +0.000 N 
ATOM     25  C   UNL     1      50.034   7.841  12.559  0.00  0.00    +0.000 C 
ATOM     26  O   UNL     1      50.556   8.547  13.410  0.00  0.00    +0.000 OA
ATOM     27  H   UNL     1      51.683   7.761  11.375  0.00  0.00    +0.000 HD
ATOM     28  H   UNL     1      50.288   7.050  10.640  0.00  0.00    +0.000 HD
ENDBRANCH  18  25
ENDBRANCH  16  21
ENDBRANCH   1  16
TORSDOF 5
ENDMDL
MODEL 6
REMARK VINA RESULT:    -6.793      3.070      7.514
REMARK INTER + INTRA:          -9.701
REMARK INTER:                  -9.278
REMARK INTRA:                  -0.423
REMARK UNBOUND:                -0.922
REMARK  Name = 
REMARK  5 active torsions:
REMARK  status: ('A' for Active; 'I' for Inactive)
REMARK    1  A    between atoms: C_2  and  C_4
REMARK    2  A    between atoms: C_7  and  N_8
REMARK    3  A    between atoms: N_8  and  C_9
REMARK    4  A    between atoms: C_9  and  C_10
REMARK    5  A    between atoms: C_14  and  C_15
REMARK                            x       y       z     vdW  Elec       q    Type
REMARK                         _______ _______ _______ _____ _____    ______ ____
ROOT
ATOM      1  C   UNL     1      48.600   7.763  12.806  0.00  0.00    +0.000 C 
ATOM      2  C   UNL     1      49.789   7.357  11.950  0.00  0.00    +0.000 C 
ATOM      3  C   UNL     1      49.370   8.785  11.980  0.00  0.00    +0.000 C 
ENDROOT
BRANCH   1   4
ATOM      4  C   UNL     1      47.179   7.487  12.327  0.00  0.00    +0.000 A 
ATOM      5  C   UNL     1      46.120   8.347  12.635  0.00  0.00    +0.000 A 
ATOM      6  C   UNL     1      44.856   8.077  12.137  0.00  0.00    +0.000 A 
ATOM      7  N   UNL     1      44.563   7.009  11.367  0.00  0.00    +0.000 NA
ATOM      8  C   UNL     1      45.572   6.145  11.084  0.00  0.00    +0.000 A 
ATOM      9  C   UNL     1      46.870   6.365  11.549  0.00  0.00    +0.000 A 
BRANCH   8  10
ATOM     10  C   UNL     1      45.241   4.961  10.255  0.00  0.00    +0.000 A 
ATOM     11  C   UNL     1      45.633   4.850   8.921  0.00  0.00    +0.000 A 
ATOM     12  C   UNL     1      45.280   3.716   8.194  0.00  0.00    +0.000 A 
ATOM     13  C   UNL     1      44.543   2.713   8.808  0.00  0.00    +0.000 A 
ATOM     14  C   UNL     1      44.190   2.886  10.133  0.00  0.00    +0.000 A 
ATOM     15  N   UNL     1      44.523   3.971  10.864  0.00  0.00    +0.000 NA
ENDBRANCH   8  10
ENDBRANCH   1   4
BRANCH   1  16
ATOM     16  N   UNL     1      48.742   7.764  14.272  0.00  0.00    +0.000 N 
ATOM     17  H   UNL     1      49.354   8.451  14.698  0.00  0.00    +0.000 HD
BRANCH  16  21
ATOM     18  C   UNL     1      47.868   4.501  16.830  0.00  0.00    +0.000 A 
ATOM     19  C   UNL     1      47.318   4.543  15.549  0.00  0.00    +0.000 A 
ATOM     20  C   UNL     1      47.594   5.622  14.705  0.00  0.00    +0.000 A 
ATOM     21  C   UNL     1      48.447   6.659  15.096  0.00  0.00    +0.000 A 
ATOM     22  C   UNL     1      48.942   6.635  16.408  0.00  0.00    +0.000 A 
ATOM     23  C   UNL     1      48.656   5.568  17.271  0.00  0.00    +0.000 A 
BRANCH  18  25
ATOM     24  N   UNL     1      48.431   3.248  18.838  0.00  0.00    +0.000 N 
ATOM     25  C   UNL     1      47.618   3.356  17.743  0.00  0.00    +0.000 C 
ATOM     26  O   UNL     1      46.700   2.570  17.557  0.00  0.00    +0.000 OA
ATOM     27  H   UNL     1      48.187   2.534  19.512  0.00  0.00    +0.000 HD
ATOM     28  H   UNL     1      49.017   4.008  19.153  0.00  0.00    +0.000 HD
ENDBRANCH  18  25
ENDBRANCH  16  21
ENDBRANCH   1  16
TORSDOF 5
ENDMDL
MODEL 7
REMARK VINA RESULT:    -6.632      2.796      4.495
REMARK INTER + INTRA:          -9.492
REMARK INTER:                  -8.883
REMARK INTRA:                  -0.610
REMARK UNBOUND:                -0.922
REMARK  Name = 
REMARK  5 active torsions:
REMARK  status: ('A' for Active; 'I' for Inactive)
REMARK    1  A    between atoms: C_2  and  C_4
REMARK    2  A    between atoms: C_7  and  N_8
REMARK    3  A    between atoms: N_8  and  C_9
REMARK    4  A    between atoms: C_9  and  C_10
REMARK    5  A    between atoms: C_14  and  C_15
REMARK                            x       y       z     vdW  Elec       q    Type
REMARK                         _______ _______ _______ _____ _____    ______ ____
ROOT
ATOM      1  C   UNL     1      47.799   8.086  12.631  0.00  0.00    +0.000 C 
ATOM      2  C   UNL     1      48.612   9.044  11.773  0.00  0.00    +0.000 C 
ATOM      3  C   UNL     1      48.835   7.579  11.635  0.00  0.00    +0.000 C 
ENDROOT
BRANCH   1   4
ATOM      4  C   UNL     1      48.158   7.875  14.097  0.00  0.00    +0.000 A 
ATOM      5  C   UNL     1      48.398   8.951  14.957  0.00  0.00    +0.000 A 
ATOM      6  C   UNL     1      48.675   8.709  16.292  0.00  0.00    +0.000 A 
ATOM      7  N   UNL     1      48.743   7.475  16.833  0.00  0.00    +0.000 NA
ATOM      8  C   UNL     1      48.544   6.415  16.007  0.00  0.00    +0.000 A 
ATOM      9  C   UNL     1      48.253   6.594  14.653  0.00  0.00    +0.000 A 
BRANCH   8  10
ATOM     10  C   UNL     1      48.641   5.061  16.603  0.00  0.00    +0.000 A 
ATOM     11  C   UNL     1      47.532   4.228  16.747  0.00  0.00    +0.000 A 
ATOM     12  C   UNL     1      47.689   2.970  17.324  0.00  0.00    +0.000 A 
ATOM     13  C   UNL     1      48.948   2.565  17.748  0.00  0.00    +0.000 A 
ATOM     14  C   UNL     1      50.004   3.440  17.572  0.00  0.00    +0.000 A 
ATOM     15  N   UNL     1      49.882   4.661  17.011  0.00  0.00    +0.000 NA
ENDBRANCH   8  10
ENDBRANCH   1   4
BRANCH   1  16
ATOM     16  N   UNL     1      46.367   7.905  12.338  0.00  0.00    +0.000 N 
ATOM     17  H   UNL     1      45.710   8.591  12.691  0.00  0.00    +0.000 HD
BRANCH  16  21
ATOM     18  C   UNL     1      44.548   4.209  11.343  0.00  0.00    +0.000 A 
ATOM     19  C   UNL     1      45.134   4.984  10.342  0.00  0.00    +0.000 A 
ATOM     20  C   UNL     1      45.725   6.209  10.663  0.00  0.00    +0.000 A 
ATOM     21  C   UNL     1      45.783   6.673  11.981  0.00  0.00    +0.000 A 
ATOM     22  C   UNL     1      45.135   5.914  12.966  0.00  0.00    +0.000 A 
ATOM     23  C   UNL     1      44.521   4.694  12.654  0.00  0.00    +0.000 A 
BRANCH  18  25
ATOM     24  N   UNL     1      44.501   2.159  10.034  0.00  0.00    +0.000 N 
ATOM     25  C   UNL     1      43.935   2.891  11.043  0.00  0.00    +0.000 C 
ATOM     26  O   UNL     1      42.997   2.451  11.692  0.00  0.00    +0.000 OA
ATOM     27  H   UNL     1      44.150   1.219   9.908  0.00  0.00    +0.000 HD
ATOM     28  H   UNL     1      45.415   2.373   9.659  0.00  0.00    +0.000 HD
ENDBRANCH  18  25
ENDBRANCH  16  21
ENDBRANCH   1  16
TORSDOF 5
ENDMDL
