MODEL 1
REMARK VINA RESULT:    -8.520      0.000      0.000
REMARK INTER + INTRA:         -11.816
REMARK INTER:                 -11.010
REMARK INTRA:                  -0.805
REMARK UNBOUND:                -0.805
REMARK  Name = 
REMARK  5 active torsions:
REMARK  status: ('A' for Active; 'I' for Inactive)
REMARK    1  A    between atoms: C_2  and  C_4
REMARK    2  A    between atoms: N_8  and  C_9
REMARK    3  A    between atoms: C_9  and  C_10
REMARK    4  A    between atoms: C_13  and  O_14
REMARK    5  A    between atoms: O_14  and  C_15
REMARK                            x       y       z     vdW  Elec       q    Type
REMARK                         _______ _______ _______ _____ _____    ______ ____
ROOT
ATOM      1  C   UNL     1      43.982   4.790  11.345  0.00  0.00    +0.000 C 
ATOM      2  C   UNL     1      42.641   5.058  12.027  0.00  0.00    +0.000 C 
ATOM      3  C   UNL     1      43.180   6.046  11.049  0.00  0.00    +0.000 C 
ENDROOT
BRANCH   1   8
ATOM      4  C   UNL     1      46.592   2.718   7.376  0.00  0.00    +0.000 A 
ATOM      5  C   UNL     1      46.387   4.056   7.653  0.00  0.00    +0.000 A 
ATOM      6  C   UNL     1      45.543   4.390   8.711  0.00  0.00    +0.000 A 
ATOM      7  C   UNL     1      44.931   3.384   9.445  0.00  0.00    +0.000 A 
ATOM      8  N   UNL     1      43.990   3.626  10.449  0.00  0.00    +0.000 N 
ATOM      9  N   UNL     1      45.166   2.087   9.134  0.00  0.00    +0.000 NA
ATOM     10  N   UNL     1      46.004   1.742   8.099  0.00  0.00    +0.000 NA
ATOM     11  H   UNL     1      43.750   2.729  10.863  0.00  0.00    +0.000 HD
BRANCH   4  13
ATOM     12  N   UNL     1      47.351   3.014   5.083  0.00  0.00    +0.000 N 
ATOM     13  C   UNL     1      47.464   2.298   6.249  0.00  0.00    +0.000 C 
ATOM     14  O   UNL     1      48.250   1.363   6.344  0.00  0.00    +0.000 OA
ATOM     15  H   UNL     1      47.933   2.768   4.296  0.00  0.00    +0.000 HD
ATOM     16  H   UNL     1      46.711   3.798   5.012  0.00  0.00    +0.000 HD
ENDBRANCH   4  13
ENDBRANCH   1   8
BRANCH   1  17
ATOM     17  C   UNL     1      45.214   4.908  12.246  0.00  0.00    +0.000 A 
ATOM     18  C   UNL     1      45.782   6.152  12.570  0.00  0.00    +0.000 A 
ATOM     19  C   UNL     1      46.809   6.271  13.515  0.00  0.00    +0.000 A 
ATOM     20  C   UNL     1      47.287   5.140  14.168  0.00  0.00    +0.000 A 
ATOM     21  C   UNL     1      46.821   3.885  13.779  0.00  0.00    +0.000 A 
ATOM     22  C   UNL     1      45.794   3.773  12.835  0.00  0.00    +0.000 A 
BRANCH  20  23
ATOM     23  O   UNL     1      48.230   5.132  15.149  0.00  0.00    +0.000 OA
BRANCH  23  24
ATOM     24  C   UNL     1      47.898   4.546  16.404  0.00  0.00    +0.000 C 
ATOM     25  F   UNL     1      46.573   4.402  16.622  0.00  0.00    +0.000 F 
ATOM     26  F   UNL     1      48.459   3.317  16.468  0.00  0.00    +0.000 F 
ATOM     27  F   UNL     1      48.421   5.297  17.397  0.00  0.00    +0.000 F 
ENDBRANCH  23  24
ENDBRANCH  20  23
ENDBRANCH   1  17
TORSDOF 5
ENDMDL
MODEL 2
REMARK VINA RESULT:    -8.462      1.499      1.948
REMARK INTER + INTRA:         -11.741
REMARK INTER:                 -10.752
REMARK INTRA:                  -0.989
REMARK UNBOUND:                -0.805
REMARK  Name = 
REMARK  5 active torsions:
REMARK  status: ('A' for Active; 'I' for Inactive)
REMARK    1  A    between atoms: C_2  and  C_4
REMARK    2  A    between atoms: N_8  and  C_9
REMARK    3  A    between atoms: C_9  and  C_10
REMARK    4  A    between atoms: C_13  and  O_14
REMARK    5  A    between atoms: O_14  and  C_15
REMARK                            x       y       z     vdW  Elec       q    Type
REMARK                         _______ _______ _______ _____ _____    ______ ____
ROOT
ATOM      1  C   UNL     1      43.858   4.970  11.436  0.00  0.00    +0.000 C 
ATOM      2  C   UNL     1      42.605   5.119  12.299  0.00  0.00    +0.000 C 
ATOM      3  C   UNL     1      42.822   6.044  11.151  0.00  0.00    +0.000 C 
ENDROOT
BRANCH   1   8
ATOM      4  C   UNL     1      46.429   2.704   7.549  0.00  0.00    +0.000 A 
ATOM      5  C   UNL     1      46.110   4.040   7.692  0.00  0.00    +0.000 A 
ATOM      6  C   UNL     1      45.298   4.415   8.762  0.00  0.00    +0.000 A 
ATOM      7  C   UNL     1      44.831   3.448   9.640  0.00  0.00    +0.000 A 
ATOM      8  N   UNL     1      43.929   3.716  10.674  0.00  0.00    +0.000 N 
ATOM      9  N   UNL     1      45.174   2.151   9.457  0.00  0.00    +0.000 NA
ATOM     10  N   UNL     1      45.982   1.767   8.412  0.00  0.00    +0.000 NA
ATOM     11  H   UNL     1      43.803   2.854  11.198  0.00  0.00    +0.000 HD
BRANCH   4  13
ATOM     12  N   UNL     1      47.363   3.074   5.333  0.00  0.00    +0.000 N 
ATOM     13  C   UNL     1      47.273   2.238   6.418  0.00  0.00    +0.000 C 
ATOM     14  O   UNL     1      47.865   1.166   6.442  0.00  0.00    +0.000 OA
ATOM     15  H   UNL     1      47.935   2.801   4.547  0.00  0.00    +0.000 HD
ATOM     16  H   UNL     1      46.886   3.969   5.322  0.00  0.00    +0.000 HD
ENDBRANCH   4  13
ENDBRANCH   1   8
BRANCH   1  17
ATOM     17  C   UNL     1      45.171   5.384  12.105  0.00  0.00    +0.000 A 
ATOM     18  C   UNL     1      45.806   4.575  13.064  0.00  0.00    +0.000 A 
ATOM     19  C   UNL     1      47.080   4.880  13.558  0.00  0.00    +0.000 A 
ATOM     20  C   UNL     1      47.757   6.003  13.094  0.00  0.00    +0.000 A 
ATOM     21  C   UNL     1      47.101   6.880  12.232  0.00  0.00    +0.000 A 
ATOM     22  C   UNL     1      45.829   6.571  11.741  0.00  0.00    +0.000 A 
BRANCH  20  23
ATOM     23  O   UNL     1      49.020   6.367  13.445  0.00  0.00    +0.000 OA
BRANCH  23  24
ATOM     24  C   UNL     1      49.209   7.063  14.673  0.00  0.00    +0.000 C 
ATOM     25  F   UNL     1      48.519   8.219  14.772  0.00  0.00    +0.000 F 
ATOM     26  F   UNL     1      48.813   6.261  15.688  0.00  0.00    +0.000 F 
ATOM     27  F   UNL     1      50.524   7.328  14.836  0.00  0.00    +0.000 F 
ENDBRANCH  23  24
ENDBRANCH  20  23
ENDBRANCH   1  17
TORSDOF 5
ENDMDL
MODEL 3
REMARK VINA RESULT:    -7.687      4.605      7.466
REMARK INTER + INTRA:         -10.740
REMARK INTER:                  -9.891
REMARK INTRA:                  -0.849
REMARK UNBOUND:                -0.805
REMARK  Name = 
REMARK  5 active torsions:
REMARK  status: ('A' for Active; 'I' for Inactive)
REMARK    1  A    between atoms: C_2  and  C_4
REMARK    2  A    between atoms: N_8  and  C_9
REMARK    3  A    between atoms: C_9  and  C_10
REMARK    4  A    between atoms: C_13  and  O_14
REMARK    5  A    between atoms: O_14  and  C_15
REMARK                            x       y       z     vdW  Elec       q    Type
REMARK                         _______ _______ _______ _____ _____    ______ ____
ROOT
ATOM      1  C   UNL     1      44.204   4.818  11.554  0.00  0.00    +0.000 C 
ATOM      2  C   UNL     1      42.678   4.740  11.600  0.00  0.00    +0.000 C 
ATOM      3  C   UNL     1      43.487   3.839  12.469  0.00  0.00    +0.000 C 
ENDROOT
BRANCH   1   8
ATOM      4  C   UNL     1      48.220   6.756  14.195  0.00  0.00    +0.000 A 
ATOM      5  C   UNL     1      47.588   5.542  14.379  0.00  0.00    +0.000 A 
ATOM      6  C   UNL     1      46.440   5.274  13.633  0.00  0.00    +0.000 A 
ATOM      7  C   UNL     1      45.963   6.225  12.743  0.00  0.00    +0.000 A 
ATOM      8  N   UNL     1      44.765   6.087  12.037  0.00  0.00    +0.000 N 
ATOM      9  N   UNL     1      46.620   7.400  12.599  0.00  0.00    +0.000 NA
ATOM     10  N   UNL     1      47.759   7.675  13.320  0.00  0.00    +0.000 NA
ATOM     11  H   UNL     1      44.684   6.888  11.416  0.00  0.00    +0.000 HD
BRANCH   4  13
ATOM     12  N   UNL     1      49.867   8.409  14.882  0.00  0.00    +0.000 N 
ATOM     13  C   UNL     1      49.435   7.109  14.973  0.00  0.00    +0.000 C 
ATOM     14  O   UNL     1      50.027   6.292  15.669  0.00  0.00    +0.000 OA
ATOM     15  H   UNL     1      50.683   8.694  15.404  0.00  0.00    +0.000 HD
ATOM     16  H   UNL     1      49.366   9.088  14.320  0.00  0.00    +0.000 HD
ENDBRANCH   4  13
ENDBRANCH   1   8
BRANCH   1  17
ATOM     17  C   UNL     1      44.853   4.279  10.277  0.00  0.00    +0.000 A 
ATOM     18  C   UNL     1      44.729   2.934   9.890  0.00  0.00    +0.000 A 
ATOM     19  C   UNL     1      45.190   2.478   8.648  0.00  0.00    +0.000 A 
ATOM     20  C   UNL     1      45.780   3.367   7.756  0.00  0.00    +0.000 A 
ATOM     21  C   UNL     1      46.017   4.678   8.165  0.00  0.00    +0.000 A 
ATOM     22  C   UNL     1      45.555   5.128   9.405  0.00  0.00    +0.000 A 
BRANCH  20  23
ATOM     23  O   UNL     1      46.204   3.063   6.499  0.00  0.00    +0.000 OA
BRANCH  23  24
ATOM     24  C   UNL     1      47.280   2.142   6.351  0.00  0.00    +0.000 C 
ATOM     25  F   UNL     1      46.931   0.846   6.496  0.00  0.00    +0.000 F 
ATOM     26  F   UNL     1      47.805   2.289   5.113  0.00  0.00    +0.000 F 
ATOM     27  F   UNL     1      48.243   2.435   7.253  0.00  0.00    +0.000 F 
ENDBRANCH  23  24
ENDBRANCH  20  23
ENDBRANCH   1  17
TORSDOF 5
ENDMDL
MODEL 4
REMARK VINA RESULT:    -6.039      5.326      8.490
REMARK INTER + INTRA:          -8.609
REMARK INTER:                  -7.655
REMARK INTRA:                  -0.953
REMARK UNBOUND:                -0.805
REMARK  Name = 
REMARK  5 active torsions:
REMARK  status: ('A' for Active; 'I' for Inactive)
REMARK    1  A    between atoms: C_2  and  C_4
REMARK    2  A    between atoms: N_8  and  C_9
REMARK    3  A    between atoms: C_9  and  C_10
REMARK    4  A    between atoms: C_13  and  O_14
REMARK    5  A    between atoms: O_14  and  C_15
REMARK                            x       y       z     vdW  Elec       q    Type
REMARK                         _______ _______ _______ _____ _____    ______ ____
ROOT
ATOM      1  C   UNL     1      48.451   7.368  12.991  0.00  0.00    +0.000 C 
ATOM      2  C   UNL     1      48.909   7.644  11.559  0.00  0.00    +0.000 C 
ATOM      3  C   UNL     1      48.296   8.741  12.359  0.00  0.00    +0.000 C 
ENDROOT
BRANCH   1   8
ATOM      4  C   UNL     1      49.566   7.243  18.050  0.00  0.00    +0.000 A 
ATOM      5  C   UNL     1      48.739   8.126  17.384  0.00  0.00    +0.000 A 
ATOM      6  C   UNL     1      48.680   8.054  15.992  0.00  0.00    +0.000 A 
ATOM      7  C   UNL     1      49.450   7.117  15.320  0.00  0.00    +0.000 A 
ATOM      8  N   UNL     1      49.536   7.045  13.927  0.00  0.00    +0.000 N 
ATOM      9  N   UNL     1      50.245   6.273  16.020  0.00  0.00    +0.000 NA
ATOM     10  N   UNL     1      50.306   6.324  17.394  0.00  0.00    +0.000 NA
ATOM     11  H   UNL     1      50.112   6.239  13.699  0.00  0.00    +0.000 HD
BRANCH   4  13
ATOM     12  N   UNL     1      48.585   7.707  20.228  0.00  0.00    +0.000 N 
ATOM     13  C   UNL     1      49.688   7.282  19.530  0.00  0.00    +0.000 C 
ATOM     14  O   UNL     1      50.715   6.950  20.111  0.00  0.00    +0.000 OA
ATOM     15  H   UNL     1      48.622   7.738  21.236  0.00  0.00    +0.000 HD
ATOM     16  H   UNL     1      47.731   7.965  19.746  0.00  0.00    +0.000 HD
ENDBRANCH   4  13
ENDBRANCH   1   8
BRANCH   1  17
ATOM     17  C   UNL     1      47.209   6.485  13.126  0.00  0.00    +0.000 A 
ATOM     18  C   UNL     1      45.918   6.969  12.855  0.00  0.00    +0.000 A 
ATOM     19  C   UNL     1      44.803   6.123  12.829  0.00  0.00    +0.000 A 
ATOM     20  C   UNL     1      44.956   4.761  13.064  0.00  0.00    +0.000 A 
ATOM     21  C   UNL     1      46.206   4.278  13.449  0.00  0.00    +0.000 A 
ATOM     22  C   UNL     1      47.317   5.128  13.473  0.00  0.00    +0.000 A 
BRANCH  20  23
ATOM     23  O   UNL     1      43.967   3.829  13.000  0.00  0.00    +0.000 OA
BRANCH  23  24
ATOM     24  C   UNL     1      43.528   3.393  11.718  0.00  0.00    +0.000 C 
ATOM     25  F   UNL     1      42.992   2.154  11.701  0.00  0.00    +0.000 F 
ATOM     26  F   UNL     1      42.585   4.253  11.269  0.00  0.00    +0.000 F 
ATOM     27  F   UNL     1      44.569   3.426  10.857  0.00  0.00    +0.000 F 
ENDBRANCH  23  24
ENDBRANCH  20  23
ENDBRANCH   1  17
TORSDOF 5
ENDMDL
MODEL 5
REMARK VINA RESULT:    -6.022      5.166      7.516
REMARK INTER + INTRA:          -8.588
REMARK INTER:                  -8.486
REMARK INTRA:                  -0.102
REMARK UNBOUND:                -0.805
REMARK  Name = 
REMARK  5 active torsions:
REMARK  status: ('A' for Active; 'I' for Inactive)
REMARK    1  A    between atoms: C_2  and  C_4
REMARK    2  A    between atoms: N_8  and  C_9
REMARK    3  A    between atoms: C_9  and  C_10
REMARK    4  A    between atoms: C_13  and  O_14
REMARK    5  A    between atoms: O_14  and  C_15
REMARK                            x       y       z     vdW  Elec       q    Type
REMARK                         _______ _______ _______ _____ _____    ______ ____
ROOT
ATOM      1  C   UNL     1      48.712   8.102  12.669  0.00  0.00    +0.000 C 
ATOM      2  C   UNL     1      49.886   7.659  11.796  0.00  0.00    +0.000 C 
ATOM      3  C   UNL     1      49.560   9.109  11.910  0.00  0.00    +0.000 C 
ENDROOT
BRANCH   1   8
ATOM      4  C   UNL     1      47.985   4.446  16.270  0.00  0.00    +0.000 A 
ATOM      5  C   UNL     1      47.218   4.701  15.150  0.00  0.00    +0.000 A 
ATOM      6  C   UNL     1      47.525   5.821  14.379  0.00  0.00    +0.000 A 
ATOM      7  C   UNL     1      48.576   6.645  14.754  0.00  0.00    +0.000 A 
ATOM      8  N   UNL     1      48.886   7.843  14.105  0.00  0.00    +0.000 N 
ATOM      9  N   UNL     1      49.299   6.351  15.860  0.00  0.00    +0.000 NA
ATOM     10  N   UNL     1      49.014   5.244  16.626  0.00  0.00    +0.000 NA
ATOM     11  H   UNL     1      49.728   8.214  14.537  0.00  0.00    +0.000 HD
BRANCH   4  13
ATOM     12  N   UNL     1      48.779   2.586  17.622  0.00  0.00    +0.000 N 
ATOM     13  C   UNL     1      47.695   3.281  17.144  0.00  0.00    +0.000 C 
ATOM     14  O   UNL     1      46.552   2.949  17.434  0.00  0.00    +0.000 OA
ATOM     15  H   UNL     1      48.626   1.794  18.229  0.00  0.00    +0.000 HD
ATOM     16  H   UNL     1      49.724   2.873  17.395  0.00  0.00    +0.000 HD
ENDBRANCH   4  13
ENDBRANCH   1   8
BRANCH   1  17
ATOM     17  C   UNL     1      47.323   7.763  12.125  0.00  0.00    +0.000 A 
ATOM     18  C   UNL     1      47.088   6.619  11.343  0.00  0.00    +0.000 A 
ATOM     19  C   UNL     1      45.794   6.228  10.977  0.00  0.00    +0.000 A 
ATOM     20  C   UNL     1      44.697   6.973  11.397  0.00  0.00    +0.000 A 
ATOM     21  C   UNL     1      44.913   8.173  12.073  0.00  0.00    +0.000 A 
ATOM     22  C   UNL     1      46.207   8.558  12.436  0.00  0.00    +0.000 A 
BRANCH  20  23
ATOM     23  O   UNL     1      43.393   6.662  11.165  0.00  0.00    +0.000 OA
BRANCH  23  24
ATOM     24  C   UNL     1      42.851   5.502  11.789  0.00  0.00    +0.000 C 
ATOM     25  F   UNL     1      43.192   4.338  11.197  0.00  0.00    +0.000 F 
ATOM     26  F   UNL     1      43.291   5.456  13.068  0.00  0.00    +0.000 F 
ATOM     27  F   UNL     1      41.504   5.598  11.812  0.00  0.00    +0.000 F 
ENDBRANCH  23  24
ENDBRANCH  20  23
ENDBRANCH   1  17
TORSDOF 5
ENDMDL
MODEL 6
REMARK VINA RESULT:    -5.982      5.539      8.578
REMARK INTER + INTRA:          -8.536
REMARK INTER:                  -7.491
REMARK INTRA:                  -1.044
REMARK UNBOUND:                -0.805
REMARK  Name = 
REMARK  5 active torsions:
REMARK  status: ('A' for Active; 'I' for Inactive)
REMARK    1  A    between atoms: C_2  and  C_4
REMARK    2  A    between atoms: N_8  and  C_9
REMARK    3  A    between atoms: C_9  and  C_10
REMARK    4  A    between atoms: C_13  and  O_14
REMARK    5  A    between atoms: O_14  and  C_15
REMARK                            x       y       z     vdW  Elec       q    Type
REMARK                         _______ _______ _______ _____ _____    ______ ____
ROOT
ATOM      1  C   UNL     1      48.979   7.657  12.753  0.00  0.00    +0.000 C 
ATOM      2  C   UNL     1      49.692   7.829  11.412  0.00  0.00    +0.000 C 
ATOM      3  C   UNL     1      49.195   9.031  12.139  0.00  0.00    +0.000 C 
ENDROOT
BRANCH   1   8
ATOM      4  C   UNL     1      49.188   7.197  17.911  0.00  0.00    +0.000 A 
ATOM      5  C   UNL     1      48.636   8.224  17.171  0.00  0.00    +0.000 A 
ATOM      6  C   UNL     1      48.803   8.206  15.786  0.00  0.00    +0.000 A 
ATOM      7  C   UNL     1      49.517   7.174  15.195  0.00  0.00    +0.000 A 
ATOM      8  N   UNL     1      49.824   7.131  13.833  0.00  0.00    +0.000 N 
ATOM      9  N   UNL     1      50.038   6.189  15.965  0.00  0.00    +0.000 NA
ATOM     10  N   UNL     1      49.873   6.188  17.331  0.00  0.00    +0.000 NA
ATOM     11  H   UNL     1      50.295   6.247  13.655  0.00  0.00    +0.000 HD
BRANCH   4  13
ATOM     12  N   UNL     1      50.171   7.549  20.109  0.00  0.00    +0.000 N 
ATOM     13  C   UNL     1      49.063   7.170  19.391  0.00  0.00    +0.000 C 
ATOM     14  O   UNL     1      48.029   6.832  19.954  0.00  0.00    +0.000 OA
ATOM     15  H   UNL     1      50.124   7.556  21.117  0.00  0.00    +0.000 HD
ATOM     16  H   UNL     1      51.020   7.845  19.640  0.00  0.00    +0.000 HD
ENDBRANCH   4  13
ENDBRANCH   1   8
BRANCH   1  17
ATOM     17  C   UNL     1      47.581   7.040  12.680  0.00  0.00    +0.000 A 
ATOM     18  C   UNL     1      47.363   5.665  12.875  0.00  0.00    +0.000 A 
ATOM     19  C   UNL     1      46.072   5.128  12.963  0.00  0.00    +0.000 A 
ATOM     20  C   UNL     1      44.963   5.961  12.867  0.00  0.00    +0.000 A 
ATOM     21  C   UNL     1      45.153   7.307  12.557  0.00  0.00    +0.000 A 
ATOM     22  C   UNL     1      46.444   7.838  12.472  0.00  0.00    +0.000 A 
BRANCH  20  23
ATOM     23  O   UNL     1      43.666   5.572  13.002  0.00  0.00    +0.000 OA
BRANCH  23  24
ATOM     24  C   UNL     1      42.989   5.059  11.859  0.00  0.00    +0.000 C 
ATOM     25  F   UNL     1      43.616   5.291  10.686  0.00  0.00    +0.000 F 
ATOM     26  F   UNL     1      42.863   3.719  11.999  0.00  0.00    +0.000 F 
ATOM     27  F   UNL     1      41.749   5.592  11.801  0.00  0.00    +0.000 F 
ENDBRANCH  23  24
ENDBRANCH  20  23
ENDBRANCH   1  17
TORSDOF 5
ENDMDL
MODEL 7
REMARK VINA RESULT:    -5.587      4.095      5.802
REMARK INTER + INTRA:          -8.025
REMARK INTER:                  -6.816
REMARK INTRA:                  -1.209
REMARK UNBOUND:                -0.805
REMARK  Name = 
REMARK  5 active torsions:
REMARK  status: ('A' for Active; 'I' for Inactive)
REMARK    1  A    between atoms: C_2  and  C_4
REMARK    2  A    between atoms: N_8  and  C_9
REMARK    3  A    between atoms: C_9  and  C_10
REMARK    4  A    between atoms: C_13  and  O_14
REMARK    5  A    between atoms: O_14  and  C_15
REMARK                            x       y       z     vdW  Elec       q    Type
REMARK                         _______ _______ _______ _____ _____    ______ ____
ROOT
ATOM      1  C   UNL     1      48.907   8.262  12.566  0.00  0.00    +0.000 C 
ATOM      2  C   UNL     1      49.825   9.242  11.835  0.00  0.00    +0.000 C 
ATOM      3  C   UNL     1      50.060   7.777  11.702  0.00  0.00    +0.000 C 
ENDROOT
BRANCH   1   8
ATOM      4  C   UNL     1      44.610   5.365  12.545  0.00  0.00    +0.000 A 
ATOM      5  C   UNL     1      45.923   4.939  12.497  0.00  0.00    +0.000 A 
ATOM      6  C   UNL     1      46.927   5.900  12.385  0.00  0.00    +0.000 A 
ATOM      7  C   UNL     1      46.586   7.243  12.318  0.00  0.00    +0.000 A 
ATOM      8  N   UNL     1      47.515   8.264  12.098  0.00  0.00    +0.000 N 
ATOM      9  N   UNL     1      45.284   7.610  12.371  0.00  0.00    +0.000 NA
ATOM     10  N   UNL     1      44.283   6.674  12.491  0.00  0.00    +0.000 NA
ATOM     11  H   UNL     1      47.015   9.148  12.156  0.00  0.00    +0.000 HD
BRANCH   4  13
ATOM     12  N   UNL     1      42.531   4.456  11.667  0.00  0.00    +0.000 N 
ATOM     13  C   UNL     1      43.494   4.390  12.643  0.00  0.00    +0.000 C 
ATOM     14  O   UNL     1      43.428   3.560  13.543  0.00  0.00    +0.000 OA
ATOM     15  H   UNL     1      41.761   3.804  11.690  0.00  0.00    +0.000 HD
ATOM     16  H   UNL     1      42.597   5.133  10.914  0.00  0.00    +0.000 HD
ENDBRANCH   4  13
ENDBRANCH   1   8
BRANCH   1  17
ATOM     17  C   UNL     1      49.069   8.218  14.087  0.00  0.00    +0.000 A 
ATOM     18  C   UNL     1      48.341   9.067  14.938  0.00  0.00    +0.000 A 
ATOM     19  C   UNL     1      48.373   8.921  16.330  0.00  0.00    +0.000 A 
ATOM     20  C   UNL     1      49.132   7.907  16.906  0.00  0.00    +0.000 A 
ATOM     21  C   UNL     1      49.952   7.128  16.090  0.00  0.00    +0.000 A 
ATOM     22  C   UNL     1      49.914   7.279  14.700  0.00  0.00    +0.000 A 
BRANCH  20  23
ATOM     23  O   UNL     1      49.192   7.620  18.235  0.00  0.00    +0.000 OA
BRANCH  23  24
ATOM     24  C   UNL     1      48.052   7.034  18.855  0.00  0.00    +0.000 C 
ATOM     25  F   UNL     1      47.032   7.891  19.074  0.00  0.00    +0.000 F 
ATOM     26  F   UNL     1      47.590   6.043  18.058  0.00  0.00    +0.000 F 
ATOM     27  F   UNL     1      48.420   6.487  20.034  0.00  0.00    +0.000 F 
ENDBRANCH  23  24
ENDBRANCH  20  23
ENDBRANCH   1  17
TORSDOF 5
ENDMDL
