MODEL 1
REMARK VINA RESULT:    -8.124      0.000      0.000
REMARK INTER + INTRA:         -13.170
REMARK INTER:                 -11.923
REMARK INTRA:                  -1.247
REMARK UNBOUND:                -1.247
REMARK  Name = 
REMARK  9 active torsions:
REMARK  status: ('A' for Active; 'I' for Inactive)
REMARK    1  A    between atoms: C_1  and  O_2
REMARK    2  A    between atoms: O_2  and  C_3
REMARK    3  A    between atoms: C_10  and  C_11
REMARK    4  A    between atoms: N_13  and  C_14
REMARK    5  A    between atoms: C_14  and  C_15
REMARK    6  A    between atoms: C_18  and  C_19
REMARK    7  A    between atoms: C_19  and  O_20
REMARK    8  A    between atoms: O_20  and  C_21
REMARK    9  A    between atoms: C_21  and  C_22
REMARK                            x       y       z     vdW  Elec       q    Type
REMARK                         _______ _______ _______ _____ _____    ______ ____
ROOT
ATOM      1  C   UNL     1      47.896   7.104  13.223  0.00  0.00    +0.000 C 
ENDROOT
BRANCH   1   2
ATOM      2  C   UNL     1      46.823   6.191  12.687  0.00  0.00    +0.000 A 
ATOM      3  C   UNL     1      46.410   5.065  13.413  0.00  0.00    +0.000 A 
ATOM      4  C   UNL     1      45.419   4.219  12.909  0.00  0.00    +0.000 A 
ATOM      5  C   UNL     1      44.824   4.479  11.666  0.00  0.00    +0.000 A 
ATOM      6  C   UNL     1      45.260   5.582  10.923  0.00  0.00    +0.000 A 
ATOM      7  C   UNL     1      46.253   6.426  11.427  0.00  0.00    +0.000 A 
BRANCH   5   8
ATOM      8  C   UNL     1      43.701   3.608  11.161  0.00  0.00    +0.000 C 
BRANCH   8   9
ATOM      9  O   UNL     1      43.847   3.328   9.768  0.00  0.00    +0.000 OA
BRANCH   9  10
ATOM     10  C   UNL     1      44.482   2.066   9.528  0.00  0.00    +0.000 C 
BRANCH  10  11
ATOM     11  C   UNL     1      45.549   2.223   8.472  0.00  0.00    +0.000 A 
ATOM     12  C   UNL     1      45.733   3.455   7.846  0.00  0.00    +0.000 A 
ATOM     13  C   UNL     1      46.737   3.582   6.892  0.00  0.00    +0.000 A 
ATOM     14  C   UNL     1      47.530   2.483   6.591  0.00  0.00    +0.000 A 
ATOM     15  C   UNL     1      47.288   1.296   7.263  0.00  0.00    +0.000 A 
ATOM     16  N   UNL     1      46.324   1.143   8.197  0.00  0.00    +0.000 NA
ENDBRANCH  10  11
ENDBRANCH   9  10
ENDBRANCH   8   9
ENDBRANCH   5   8
ENDBRANCH   1   2
BRANCH   1  19
ATOM     17  C   UNL     1      48.987   6.976  15.434  0.00  0.00    +0.000 C 
ATOM     18  O   UNL     1      50.092   6.790  14.929  0.00  0.00    +0.000 OA
ATOM     19  N   UNL     1      47.870   7.129  14.664  0.00  0.00    +0.000 N 
ATOM     20  H   UNL     1      46.966   7.221  15.103  0.00  0.00    +0.000 HD
BRANCH  17  28
ATOM     21  C   UNL     1      48.866   4.584  17.902  0.00  0.00    +0.000 A 
ATOM     22  N   UNL     1      48.770   3.868  19.038  0.00  0.00    +0.000 NA
ATOM     23  C   UNL     1      48.561   4.531  20.179  0.00  0.00    +0.000 A 
ATOM     24  N   UNL     1      48.435   5.846  20.332  0.00  0.00    +0.000 NA
ATOM     25  C   UNL     1      48.543   6.522  19.175  0.00  0.00    +0.000 A 
ATOM     26  S   UNL     1      48.412   8.215  19.177  0.00  0.00    +0.000 S 
ATOM     27  C   UNL     1      48.631   8.284  17.493  0.00  0.00    +0.000 A 
ATOM     28  C   UNL     1      48.810   7.041  16.897  0.00  0.00    +0.000 A 
ATOM     29  C   UNL     1      48.761   5.987  17.910  0.00  0.00    +0.000 A 
BRANCH  21  31
ATOM     30  C   UNL     1      48.077   3.060  16.300  0.00  0.00    +0.000 C 
ATOM     31  O   UNL     1      49.133   3.912  16.730  0.00  0.00    +0.000 OA
ENDBRANCH  21  31
ENDBRANCH  17  28
ENDBRANCH   1  19
TORSDOF 8
ENDMDL
MODEL 2
REMARK VINA RESULT:    -7.831      1.448      2.444
REMARK INTER + INTRA:         -12.740
REMARK INTER:                 -11.505
REMARK INTRA:                  -1.235
REMARK UNBOUND:                -1.247
REMARK  Name = 
REMARK  9 active torsions:
REMARK  status: ('A' for Active; 'I' for Inactive)
REMARK    1  A    between atoms: C_1  and  O_2
REMARK    2  A    between atoms: O_2  and  C_3
REMARK    3  A    between atoms: C_10  and  C_11
REMARK    4  A    between atoms: N_13  and  C_14
REMARK    5  A    between atoms: C_14  and  C_15
REMARK    6  A    between atoms: C_18  and  C_19
REMARK    7  A    between atoms: C_19  and  O_20
REMARK    8  A    between atoms: O_20  and  C_21
REMARK    9  A    between atoms: C_21  and  C_22
REMARK                            x       y       z     vdW  Elec       q    Type
REMARK                         _______ _______ _______ _____ _____    ______ ____
ROOT
ATOM      1  C   UNL     1      48.043   7.019  13.703  0.00  0.00    +0.000 C 
ENDROOT
BRANCH   1   2
ATOM      2  C   UNL     1      46.933   6.322  12.958  0.00  0.00    +0.000 A 
ATOM      3  C   UNL     1      46.155   5.339  13.586  0.00  0.00    +0.000 A 
ATOM      4  C   UNL     1      45.132   4.691  12.890  0.00  0.00    +0.000 A 
ATOM      5  C   UNL     1      44.869   5.009  11.550  0.00  0.00    +0.000 A 
ATOM      6  C   UNL     1      45.667   5.965  10.910  0.00  0.00    +0.000 A 
ATOM      7  C   UNL     1      46.692   6.610  11.607  0.00  0.00    +0.000 A 
BRANCH   5   8
ATOM      8  C   UNL     1      43.713   4.364  10.825  0.00  0.00    +0.000 C 
BRANCH   8   9
ATOM      9  O   UNL     1      44.105   3.902   9.532  0.00  0.00    +0.000 OA
BRANCH   9  10
ATOM     10  C   UNL     1      44.602   2.557   9.560  0.00  0.00    +0.000 C 
BRANCH  10  11
ATOM     11  C   UNL     1      45.602   2.358   8.447  0.00  0.00    +0.000 A 
ATOM     12  C   UNL     1      45.929   3.421   7.607  0.00  0.00    +0.000 A 
ATOM     13  C   UNL     1      46.869   3.220   6.602  0.00  0.00    +0.000 A 
ATOM     14  C   UNL     1      47.458   1.971   6.464  0.00  0.00    +0.000 A 
ATOM     15  C   UNL     1      47.083   0.969   7.344  0.00  0.00    +0.000 A 
ATOM     16  N   UNL     1      46.177   1.134   8.331  0.00  0.00    +0.000 NA
ENDBRANCH  10  11
ENDBRANCH   9  10
ENDBRANCH   8   9
ENDBRANCH   5   8
ENDBRANCH   1   2
BRANCH   1  19
ATOM     17  C   UNL     1      48.997   6.522  15.925  0.00  0.00    +0.000 C 
ATOM     18  O   UNL     1      50.135   6.445  15.470  0.00  0.00    +0.000 OA
ATOM     19  N   UNL     1      47.926   6.791  15.122  0.00  0.00    +0.000 N 
ATOM     20  H   UNL     1      46.994   6.791  15.509  0.00  0.00    +0.000 HD
BRANCH  17  28
ATOM     21  C   UNL     1      47.814   8.593  18.403  0.00  0.00    +0.000 A 
ATOM     22  N   UNL     1      47.394   9.179  19.540  0.00  0.00    +0.000 NA
ATOM     23  C   UNL     1      47.386   8.445  20.656  0.00  0.00    +0.000 A 
ATOM     24  N   UNL     1      47.752   7.173  20.783  0.00  0.00    +0.000 NA
ATOM     25  C   UNL     1      48.158   6.625  19.625  0.00  0.00    +0.000 A 
ATOM     26  S   UNL     1      48.660   5.003  19.593  0.00  0.00    +0.000 S 
ATOM     27  C   UNL     1      48.989   5.085  17.928  0.00  0.00    +0.000 A 
ATOM     28  C   UNL     1      48.727   6.327  17.362  0.00  0.00    +0.000 A 
ATOM     29  C   UNL     1      48.224   7.247  18.382  0.00  0.00    +0.000 A 
BRANCH  21  31
ATOM     30  C   UNL     1      48.933  10.125  17.021  0.00  0.00    +0.000 C 
ATOM     31  O   UNL     1      47.775   9.327  17.239  0.00  0.00    +0.000 OA
ENDBRANCH  21  31
ENDBRANCH  17  28
ENDBRANCH   1  19
TORSDOF 8
ENDMDL
MODEL 3
REMARK VINA RESULT:    -7.593      1.683      1.914
REMARK INTER + INTRA:         -12.392
REMARK INTER:                 -11.081
REMARK INTRA:                  -1.311
REMARK UNBOUND:                -1.247
REMARK  Name = 
REMARK  9 active torsions:
REMARK  status: ('A' for Active; 'I' for Inactive)
REMARK    1  A    between atoms: C_1  and  O_2
REMARK    2  A    between atoms: O_2  and  C_3
REMARK    3  A    between atoms: C_10  and  C_11
REMARK    4  A    between atoms: N_13  and  C_14
REMARK    5  A    between atoms: C_14  and  C_15
REMARK    6  A    between atoms: C_18  and  C_19
REMARK    7  A    between atoms: C_19  and  O_20
REMARK    8  A    between atoms: O_20  and  C_21
REMARK    9  A    between atoms: C_21  and  C_22
REMARK                            x       y       z     vdW  Elec       q    Type
REMARK                         _______ _______ _______ _____ _____    ______ ____
ROOT
ATOM      1  C   UNL     1      47.503   7.643  13.226  0.00  0.00    +0.000 C 
ENDROOT
BRANCH   1   2
ATOM      2  C   UNL     1      46.577   6.575  12.703  0.00  0.00    +0.000 A 
ATOM      3  C   UNL     1      46.215   5.484  13.508  0.00  0.00    +0.000 A 
ATOM      4  C   UNL     1      45.362   4.493  13.017  0.00  0.00    +0.000 A 
ATOM      5  C   UNL     1      44.857   4.569  11.711  0.00  0.00    +0.000 A 
ATOM      6  C   UNL     1      45.245   5.637  10.895  0.00  0.00    +0.000 A 
ATOM      7  C   UNL     1      46.102   6.627  11.385  0.00  0.00    +0.000 A 
BRANCH   5   8
ATOM      8  C   UNL     1      43.874   3.538  11.211  0.00  0.00    +0.000 C 
BRANCH   8   9
ATOM      9  O   UNL     1      44.039   3.298   9.814  0.00  0.00    +0.000 OA
BRANCH   9  10
ATOM     10  C   UNL     1      44.649   2.030   9.546  0.00  0.00    +0.000 C 
BRANCH  10  11
ATOM     11  C   UNL     1      45.668   2.175   8.441  0.00  0.00    +0.000 A 
ATOM     12  C   UNL     1      45.851   3.410   7.820  0.00  0.00    +0.000 A 
ATOM     13  C   UNL     1      46.809   3.525   6.819  0.00  0.00    +0.000 A 
ATOM     14  C   UNL     1      47.560   2.411   6.468  0.00  0.00    +0.000 A 
ATOM     15  C   UNL     1      47.322   1.222   7.137  0.00  0.00    +0.000 A 
ATOM     16  N   UNL     1      46.402   1.080   8.115  0.00  0.00    +0.000 NA
ENDBRANCH  10  11
ENDBRANCH   9  10
ENDBRANCH   8   9
ENDBRANCH   5   8
ENDBRANCH   1   2
BRANCH   1  19
ATOM     17  C   UNL     1      49.278   7.755  14.938  0.00  0.00    +0.000 C 
ATOM     18  O   UNL     1      49.048   8.941  15.165  0.00  0.00    +0.000 OA
ATOM     19  N   UNL     1      48.570   7.060  14.000  0.00  0.00    +0.000 N 
ATOM     20  H   UNL     1      48.818   6.104  13.790  0.00  0.00    +0.000 HD
BRANCH  17  28
ATOM     21  C   UNL     1      49.230   5.048  17.057  0.00  0.00    +0.000 A 
ATOM     22  N   UNL     1      49.490   4.035  17.907  0.00  0.00    +0.000 NA
ATOM     23  C   UNL     1      50.758   3.839  18.277  0.00  0.00    +0.000 A 
ATOM     24  N   UNL     1      51.823   4.539  17.897  0.00  0.00    +0.000 NA
ATOM     25  C   UNL     1      51.521   5.536  17.046  0.00  0.00    +0.000 A 
ATOM     26  S   UNL     1      52.756   6.536  16.451  0.00  0.00    +0.000 S 
ATOM     27  C   UNL     1      51.649   7.450  15.542  0.00  0.00    +0.000 A 
ATOM     28  C   UNL     1      50.331   7.022  15.665  0.00  0.00    +0.000 A 
ATOM     29  C   UNL     1      50.260   5.871  16.564  0.00  0.00    +0.000 A 
BRANCH  21  31
ATOM     30  C   UNL     1      47.150   4.035  16.664  0.00  0.00    +0.000 C 
ATOM     31  O   UNL     1      47.933   5.223  16.631  0.00  0.00    +0.000 OA
ENDBRANCH  21  31
ENDBRANCH  17  28
ENDBRANCH   1  19
TORSDOF 8
ENDMDL
MODEL 4
REMARK VINA RESULT:    -7.193      2.146      3.821
REMARK INTER + INTRA:         -11.804
REMARK INTER:                 -10.453
REMARK INTRA:                  -1.351
REMARK UNBOUND:                -1.247
REMARK  Name = 
REMARK  9 active torsions:
REMARK  status: ('A' for Active; 'I' for Inactive)
REMARK    1  A    between atoms: C_1  and  O_2
REMARK    2  A    between atoms: O_2  and  C_3
REMARK    3  A    between atoms: C_10  and  C_11
REMARK    4  A    between atoms: N_13  and  C_14
REMARK    5  A    between atoms: C_14  and  C_15
REMARK    6  A    between atoms: C_18  and  C_19
REMARK    7  A    between atoms: C_19  and  O_20
REMARK    8  A    between atoms: O_20  and  C_21
REMARK    9  A    between atoms: C_21  and  C_22
REMARK                            x       y       z     vdW  Elec       q    Type
REMARK                         _______ _______ _______ _____ _____    ______ ____
ROOT
ATOM      1  C   UNL     1      47.433   4.754  14.953  0.00  0.00    +0.000 C 
ENDROOT
BRANCH   1   2
ATOM      2  C   UNL     1      46.432   4.640  13.831  0.00  0.00    +0.000 A 
ATOM      3  C   UNL     1      46.185   3.405  13.214  0.00  0.00    +0.000 A 
ATOM      4  C   UNL     1      45.262   3.305  12.170  0.00  0.00    +0.000 A 
ATOM      5  C   UNL     1      44.569   4.437  11.720  0.00  0.00    +0.000 A 
ATOM      6  C   UNL     1      44.839   5.677  12.311  0.00  0.00    +0.000 A 
ATOM      7  C   UNL     1      45.766   5.777  13.352  0.00  0.00    +0.000 A 
BRANCH   5   8
ATOM      8  C   UNL     1      43.516   4.312  10.647  0.00  0.00    +0.000 C 
BRANCH   8   9
ATOM      9  O   UNL     1      43.914   3.389   9.634  0.00  0.00    +0.000 OA
BRANCH   9  10
ATOM     10  C   UNL     1      44.578   4.033   8.539  0.00  0.00    +0.000 C 
BRANCH  10  11
ATOM     11  C   UNL     1      45.599   3.097   7.938  0.00  0.00    +0.000 A 
ATOM     12  C   UNL     1      46.447   3.549   6.927  0.00  0.00    +0.000 A 
ATOM     13  C   UNL     1      47.395   2.676   6.403  0.00  0.00    +0.000 A 
ATOM     14  C   UNL     1      47.473   1.383   6.901  0.00  0.00    +0.000 A 
ATOM     15  C   UNL     1      46.600   1.014   7.910  0.00  0.00    +0.000 A 
ATOM     16  N   UNL     1      45.672   1.840   8.442  0.00  0.00    +0.000 NA
ENDBRANCH  10  11
ENDBRANCH   9  10
ENDBRANCH   8   9
ENDBRANCH   5   8
ENDBRANCH   1   2
BRANCH   1  19
ATOM     17  C   UNL     1      48.927   6.520  15.815  0.00  0.00    +0.000 C 
ATOM     18  O   UNL     1      49.741   5.695  16.224  0.00  0.00    +0.000 OA
ATOM     19  N   UNL     1      47.775   6.134  15.192  0.00  0.00    +0.000 N 
ATOM     20  H   UNL     1      47.095   6.827  14.918  0.00  0.00    +0.000 HD
BRANCH  17  28
ATOM     21  C   UNL     1      48.661   9.198  13.674  0.00  0.00    +0.000 A 
ATOM     22  N   UNL     1      48.651  10.395  13.057  0.00  0.00    +0.000 NA
ATOM     23  C   UNL     1      49.009  11.467  13.768  0.00  0.00    +0.000 A 
ATOM     24  N   UNL     1      49.383  11.497  15.044  0.00  0.00    +0.000 NA
ATOM     25  C   UNL     1      49.374  10.283  15.622  0.00  0.00    +0.000 A 
ATOM     26  S   UNL     1      49.820  10.127  17.253  0.00  0.00    +0.000 S 
ATOM     27  C   UNL     1      49.574   8.446  17.212  0.00  0.00    +0.000 A 
ATOM     28  C   UNL     1      49.151   7.969  15.976  0.00  0.00    +0.000 A 
ATOM     29  C   UNL     1      49.027   9.075  15.027  0.00  0.00    +0.000 A 
BRANCH  21  31
ATOM     30  C   UNL     1      49.234   7.559  12.094  0.00  0.00    +0.000 C 
ATOM     31  O   UNL     1      48.242   8.096  12.963  0.00  0.00    +0.000 OA
ENDBRANCH  21  31
ENDBRANCH  17  28
ENDBRANCH   1  19
TORSDOF 8
ENDMDL
MODEL 5
REMARK VINA RESULT:    -7.120      2.620      3.371
REMARK INTER + INTRA:         -11.697
REMARK INTER:                 -10.719
REMARK INTRA:                  -0.978
REMARK UNBOUND:                -1.247
REMARK  Name = 
REMARK  9 active torsions:
REMARK  status: ('A' for Active; 'I' for Inactive)
REMARK    1  A    between atoms: C_1  and  O_2
REMARK    2  A    between atoms: O_2  and  C_3
REMARK    3  A    between atoms: C_10  and  C_11
REMARK    4  A    between atoms: N_13  and  C_14
REMARK    5  A    between atoms: C_14  and  C_15
REMARK    6  A    between atoms: C_18  and  C_19
REMARK    7  A    between atoms: C_19  and  O_20
REMARK    8  A    between atoms: O_20  and  C_21
REMARK    9  A    between atoms: C_21  and  C_22
REMARK                            x       y       z     vdW  Elec       q    Type
REMARK                         _______ _______ _______ _____ _____    ______ ____
ROOT
ATOM      1  C   UNL     1      49.061   7.043  15.715  0.00  0.00    +0.000 C 
ENDROOT
BRANCH   1   2
ATOM      2  C   UNL     1      48.114   6.328  14.786  0.00  0.00    +0.000 A 
ATOM      3  C   UNL     1      47.840   6.839  13.509  0.00  0.00    +0.000 A 
ATOM      4  C   UNL     1      46.956   6.177  12.653  0.00  0.00    +0.000 A 
ATOM      5  C   UNL     1      46.325   4.993  13.058  0.00  0.00    +0.000 A 
ATOM      6  C   UNL     1      46.569   4.499  14.345  0.00  0.00    +0.000 A 
ATOM      7  C   UNL     1      47.450   5.164  15.202  0.00  0.00    +0.000 A 
BRANCH   5   8
ATOM      8  C   UNL     1      45.432   4.239  12.103  0.00  0.00    +0.000 C 
BRANCH   8   9
ATOM      9  O   UNL     1      44.811   5.120  11.167  0.00  0.00    +0.000 OA
BRANCH   9  10
ATOM     10  C   UNL     1      44.004   4.421  10.211  0.00  0.00    +0.000 C 
BRANCH  10  11
ATOM     11  C   UNL     1      44.889   3.663   9.251  0.00  0.00    +0.000 A 
ATOM     12  C   UNL     1      45.678   4.358   8.335  0.00  0.00    +0.000 A 
ATOM     13  C   UNL     1      46.501   3.640   7.475  0.00  0.00    +0.000 A 
ATOM     14  C   UNL     1      46.519   2.254   7.552  0.00  0.00    +0.000 A 
ATOM     15  C   UNL     1      45.711   1.640   8.495  0.00  0.00    +0.000 A 
ATOM     16  N   UNL     1      44.904   2.310   9.346  0.00  0.00    +0.000 NA
ENDBRANCH  10  11
ENDBRANCH   9  10
ENDBRANCH   8   9
ENDBRANCH   5   8
ENDBRANCH   1   2
BRANCH   1  19
ATOM     17  C   UNL     1      50.303   5.952  17.549  0.00  0.00    +0.000 C 
ATOM     18  O   UNL     1      49.675   6.572  18.404  0.00  0.00    +0.000 OA
ATOM     19  N   UNL     1      50.063   6.136  16.217  0.00  0.00    +0.000 N 
ATOM     20  H   UNL     1      50.632   5.660  15.534  0.00  0.00    +0.000 HD
BRANCH  17  28
ATOM     21  C   UNL     1      50.574   2.542  17.201  0.00  0.00    +0.000 A 
ATOM     22  N   UNL     1      50.924   1.241  17.201  0.00  0.00    +0.000 NA
ATOM     23  C   UNL     1      52.097   0.911  17.749  0.00  0.00    +0.000 A 
ATOM     24  N   UNL     1      52.983   1.731  18.307  0.00  0.00    +0.000 NA
ATOM     25  C   UNL     1      52.596   3.019  18.279  0.00  0.00    +0.000 A 
ATOM     26  S   UNL     1      53.604   4.212  18.944  0.00  0.00    +0.000 S 
ATOM     27  C   UNL     1      52.495   5.439  18.554  0.00  0.00    +0.000 A 
ATOM     28  C   UNL     1      51.348   4.979  17.916  0.00  0.00    +0.000 A 
ATOM     29  C   UNL     1      51.415   3.527  17.749  0.00  0.00    +0.000 A 
BRANCH  21  31
ATOM     30  C   UNL     1      48.242   2.716  17.412  0.00  0.00    +0.000 C 
ATOM     31  O   UNL     1      49.391   2.896  16.591  0.00  0.00    +0.000 OA
ENDBRANCH  21  31
ENDBRANCH  17  28
ENDBRANCH   1  19
TORSDOF 8
ENDMDL
MODEL 6
REMARK VINA RESULT:    -7.113      1.596      2.389
REMARK INTER + INTRA:         -11.686
REMARK INTER:                 -10.754
REMARK INTRA:                  -0.932
REMARK UNBOUND:                -1.247
REMARK  Name = 
REMARK  9 active torsions:
REMARK  status: ('A' for Active; 'I' for Inactive)
REMARK    1  A    between atoms: C_1  and  O_2
REMARK    2  A    between atoms: O_2  and  C_3
REMARK    3  A    between atoms: C_10  and  C_11
REMARK    4  A    between atoms: N_13  and  C_14
REMARK    5  A    between atoms: C_14  and  C_15
REMARK    6  A    between atoms: C_18  and  C_19
REMARK    7  A    between atoms: C_19  and  O_20
REMARK    8  A    between atoms: O_20  and  C_21
REMARK    9  A    between atoms: C_21  and  C_22
REMARK                            x       y       z     vdW  Elec       q    Type
REMARK                         _______ _______ _______ _____ _____    ______ ____
ROOT
ATOM      1  C   UNL     1      47.366   4.182  14.866  0.00  0.00    +0.000 C 
ENDROOT
BRANCH   1   2
ATOM      2  C   UNL     1      46.432   4.332  13.693  0.00  0.00    +0.000 A 
ATOM      3  C   UNL     1      45.984   3.208  12.984  0.00  0.00    +0.000 A 
ATOM      4  C   UNL     1      45.123   3.353  11.893  0.00  0.00    +0.000 A 
ATOM      5  C   UNL     1      44.696   4.625  11.486  0.00  0.00    +0.000 A 
ATOM      6  C   UNL     1      45.170   5.751  12.169  0.00  0.00    +0.000 A 
ATOM      7  C   UNL     1      46.034   5.605  13.259  0.00  0.00    +0.000 A 
BRANCH   5   8
ATOM      8  C   UNL     1      43.706   4.773  10.357  0.00  0.00    +0.000 C 
BRANCH   8   9
ATOM      9  O   UNL     1      44.063   3.956   9.243  0.00  0.00    +0.000 OA
BRANCH   9  10
ATOM     10  C   UNL     1      45.268   4.397   8.605  0.00  0.00    +0.000 C 
BRANCH  10  11
ATOM     11  C   UNL     1      45.962   3.225   7.954  0.00  0.00    +0.000 A 
ATOM     12  C   UNL     1      46.749   3.425   6.821  0.00  0.00    +0.000 A 
ATOM     13  C   UNL     1      47.396   2.334   6.250  0.00  0.00    +0.000 A 
ATOM     14  C   UNL     1      47.245   1.079   6.824  0.00  0.00    +0.000 A 
ATOM     15  C   UNL     1      46.452   0.966   7.954  0.00  0.00    +0.000 A 
ATOM     16  N   UNL     1      45.814   2.007   8.533  0.00  0.00    +0.000 NA
ENDBRANCH  10  11
ENDBRANCH   9  10
ENDBRANCH   8   9
ENDBRANCH   5   8
ENDBRANCH   1   2
BRANCH   1  19
ATOM     17  C   UNL     1      48.552   5.691  16.419  0.00  0.00    +0.000 C 
ATOM     18  O   UNL     1      49.405   4.841  16.666  0.00  0.00    +0.000 OA
ATOM     19  N   UNL     1      47.523   5.437  15.557  0.00  0.00    +0.000 N 
ATOM     20  H   UNL     1      46.803   6.129  15.417  0.00  0.00    +0.000 HD
BRANCH  17  28
ATOM     21  C   UNL     1      47.839   6.841  19.580  0.00  0.00    +0.000 A 
ATOM     22  N   UNL     1      47.619   7.545  20.708  0.00  0.00    +0.000 NA
ATOM     23  C   UNL     1      47.817   8.865  20.668  0.00  0.00    +0.000 A 
ATOM     24  N   UNL     1      48.218   9.587  19.626  0.00  0.00    +0.000 NA
ATOM     25  C   UNL     1      48.431   8.845  18.525  0.00  0.00    +0.000 A 
ATOM     26  S   UNL     1      48.951   9.597  17.094  0.00  0.00    +0.000 S 
ATOM     27  C   UNL     1      48.972   8.115  16.263  0.00  0.00    +0.000 A 
ATOM     28  C   UNL     1      48.593   7.027  17.041  0.00  0.00    +0.000 A 
ATOM     29  C   UNL     1      48.273   7.469  18.399  0.00  0.00    +0.000 A 
BRANCH  21  31
ATOM     30  C   UNL     1      48.758   4.795  20.276  0.00  0.00    +0.000 C 
ATOM     31  O   UNL     1      47.686   5.473  19.627  0.00  0.00    +0.000 OA
ENDBRANCH  21  31
ENDBRANCH  17  28
ENDBRANCH   1  19
TORSDOF 8
ENDMDL
MODEL 7
REMARK VINA RESULT:    -7.107      1.850      2.673
REMARK INTER + INTRA:         -11.678
REMARK INTER:                 -10.497
REMARK INTRA:                  -1.181
REMARK UNBOUND:                -1.247
REMARK  Name = 
REMARK  9 active torsions:
REMARK  status: ('A' for Active; 'I' for Inactive)
REMARK    1  A    between atoms: C_1  and  O_2
REMARK    2  A    between atoms: O_2  and  C_3
REMARK    3  A    between atoms: C_10  and  C_11
REMARK    4  A    between atoms: N_13  and  C_14
REMARK    5  A    between atoms: C_14  and  C_15
REMARK    6  A    between atoms: C_18  and  C_19
REMARK    7  A    between atoms: C_19  and  O_20
REMARK    8  A    between atoms: O_20  and  C_21
REMARK    9  A    between atoms: C_21  and  C_22
REMARK                            x       y       z     vdW  Elec       q    Type
REMARK                         _______ _______ _______ _____ _____    ______ ____
ROOT
ATOM      1  C   UNL     1      47.506   3.388  15.149  0.00  0.00    +0.000 C 
ENDROOT
BRANCH   1   2
ATOM      2  C   UNL     1      46.890   4.014  13.924  0.00  0.00    +0.000 A 
ATOM      3  C   UNL     1      46.026   3.279  13.100  0.00  0.00    +0.000 A 
ATOM      4  C   UNL     1      45.462   3.862  11.962  0.00  0.00    +0.000 A 
ATOM      5  C   UNL     1      45.755   5.190  11.622  0.00  0.00    +0.000 A 
ATOM      6  C   UNL     1      46.646   5.914  12.422  0.00  0.00    +0.000 A 
ATOM      7  C   UNL     1      47.212   5.330  13.559  0.00  0.00    +0.000 A 
BRANCH   5   8
ATOM      8  C   UNL     1      45.085   5.840  10.437  0.00  0.00    +0.000 C 
BRANCH   8   9
ATOM      9  O   UNL     1      45.625   5.360   9.206  0.00  0.00    +0.000 OA
BRANCH   9  10
ATOM     10  C   UNL     1      44.821   4.327   8.622  0.00  0.00    +0.000 C 
BRANCH  10  11
ATOM     11  C   UNL     1      45.707   3.295   7.969  0.00  0.00    +0.000 A 
ATOM     12  C   UNL     1      45.769   2.002   8.488  0.00  0.00    +0.000 A 
ATOM     13  C   UNL     1      46.576   1.061   7.858  0.00  0.00    +0.000 A 
ATOM     14  C   UNL     1      47.294   1.431   6.730  0.00  0.00    +0.000 A 
ATOM     15  C   UNL     1      47.173   2.733   6.273  0.00  0.00    +0.000 A 
ATOM     16  N   UNL     1      46.395   3.668   6.861  0.00  0.00    +0.000 NA
ENDBRANCH  10  11
ENDBRANCH   9  10
ENDBRANCH   8   9
ENDBRANCH   5   8
ENDBRANCH   1   2
BRANCH   1  19
ATOM     17  C   UNL     1      47.475   4.406  17.398  0.00  0.00    +0.000 C 
ATOM     18  O   UNL     1      46.718   3.540  17.829  0.00  0.00    +0.000 OA
ATOM     19  N   UNL     1      47.895   4.400  16.098  0.00  0.00    +0.000 N 
ATOM     20  H   UNL     1      48.469   5.155  15.752  0.00  0.00    +0.000 HD
BRANCH  17  28
ATOM     21  C   UNL     1      50.605   5.690  18.012  0.00  0.00    +0.000 A 
ATOM     22  N   UNL     1      51.695   6.360  18.435  0.00  0.00    +0.000 NA
ATOM     23  C   UNL     1      51.519   7.332  19.334  0.00  0.00    +0.000 A 
ATOM     24  N   UNL     1      50.371   7.730  19.875  0.00  0.00    +0.000 NA
ATOM     25  C   UNL     1      49.311   7.040  19.421  0.00  0.00    +0.000 A 
ATOM     26  S   UNL     1      47.758   7.411  19.997  0.00  0.00    +0.000 S 
ATOM     27  C   UNL     1      47.055   6.201  19.033  0.00  0.00    +0.000 A 
ATOM     28  C   UNL     1      47.969   5.497  18.258  0.00  0.00    +0.000 A 
ATOM     29  C   UNL     1      49.321   6.006  18.490  0.00  0.00    +0.000 A 
BRANCH  21  31
ATOM     30  C   UNL     1      51.131   3.446  17.565  0.00  0.00    +0.000 C 
ATOM     31  O   UNL     1      50.771   4.722  17.046  0.00  0.00    +0.000 OA
ENDBRANCH  21  31
ENDBRANCH  17  28
ENDBRANCH   1  19
TORSDOF 8
ENDMDL
MODEL 8
REMARK VINA RESULT:    -6.967      1.596      3.010
REMARK INTER + INTRA:         -11.473
REMARK INTER:                 -10.323
REMARK INTRA:                  -1.150
REMARK UNBOUND:                -1.247
REMARK  Name = 
REMARK  9 active torsions:
REMARK  status: ('A' for Active; 'I' for Inactive)
REMARK    1  A    between atoms: C_1  and  O_2
REMARK    2  A    between atoms: O_2  and  C_3
REMARK    3  A    between atoms: C_10  and  C_11
REMARK    4  A    between atoms: N_13  and  C_14
REMARK    5  A    between atoms: C_14  and  C_15
REMARK    6  A    between atoms: C_18  and  C_19
REMARK    7  A    between atoms: C_19  and  O_20
REMARK    8  A    between atoms: O_20  and  C_21
REMARK    9  A    between atoms: C_21  and  C_22
REMARK                            x       y       z     vdW  Elec       q    Type
REMARK                         _______ _______ _______ _____ _____    ______ ____
ROOT
ATOM      1  C   UNL     1      47.522   3.801  15.210  0.00  0.00    +0.000 C 
ENDROOT
BRANCH   1   2
ATOM      2  C   UNL     1      46.770   4.220  13.972  0.00  0.00    +0.000 A 
ATOM      3  C   UNL     1      46.732   5.564  13.576  0.00  0.00    +0.000 A 
ATOM      4  C   UNL     1      46.029   5.948  12.432  0.00  0.00    +0.000 A 
ATOM      5  C   UNL     1      45.345   4.996  11.662  0.00  0.00    +0.000 A 
ATOM      6  C   UNL     1      45.351   3.659  12.075  0.00  0.00    +0.000 A 
ATOM      7  C   UNL     1      46.052   3.276  13.222  0.00  0.00    +0.000 A 
BRANCH   5   8
ATOM      8  C   UNL     1      44.652   5.402  10.385  0.00  0.00    +0.000 C 
BRANCH   8   9
ATOM      9  O   UNL     1      45.403   5.005   9.238  0.00  0.00    +0.000 OA
BRANCH   9  10
ATOM     10  C   UNL     1      44.712   4.036   8.440  0.00  0.00    +0.000 C 
BRANCH  10  11
ATOM     11  C   UNL     1      45.700   3.057   7.853  0.00  0.00    +0.000 A 
ATOM     12  C   UNL     1      46.522   3.448   6.797  0.00  0.00    +0.000 A 
ATOM     13  C   UNL     1      47.440   2.536   6.285  0.00  0.00    +0.000 A 
ATOM     14  C   UNL     1      47.515   1.266   6.840  0.00  0.00    +0.000 A 
ATOM     15  C   UNL     1      46.668   0.959   7.892  0.00  0.00    +0.000 A 
ATOM     16  N   UNL     1      45.770   1.823   8.412  0.00  0.00    +0.000 NA
ENDBRANCH  10  11
ENDBRANCH   9  10
ENDBRANCH   8   9
ENDBRANCH   5   8
ENDBRANCH   1   2
BRANCH   1  19
ATOM     17  C   UNL     1      48.631   5.108  16.987  0.00  0.00    +0.000 C 
ATOM     18  O   UNL     1      49.627   4.389  16.956  0.00  0.00    +0.000 OA
ATOM     19  N   UNL     1      47.562   4.876  16.169  0.00  0.00    +0.000 N 
ATOM     20  H   UNL     1      46.732   5.444  16.255  0.00  0.00    +0.000 HD
BRANCH  17  28
ATOM     21  C   UNL     1      48.584   8.512  16.511  0.00  0.00    +0.000 A 
ATOM     22  N   UNL     1      48.558   9.856  16.606  0.00  0.00    +0.000 NA
ATOM     23  C   UNL     1      48.485  10.394  17.827  0.00  0.00    +0.000 A 
ATOM     24  N   UNL     1      48.430   9.748  18.988  0.00  0.00    +0.000 NA
ATOM     25  C   UNL     1      48.453   8.411  18.846  0.00  0.00    +0.000 A 
ATOM     26  S   UNL     1      48.387   7.419  20.223  0.00  0.00    +0.000 S 
ATOM     27  C   UNL     1      48.464   6.011  19.275  0.00  0.00    +0.000 A 
ATOM     28  C   UNL     1      48.537   6.255  17.908  0.00  0.00    +0.000 A 
ATOM     29  C   UNL     1      48.526   7.696  17.655  0.00  0.00    +0.000 A 
BRANCH  21  31
ATOM     30  C   UNL     1      49.917   7.775  14.724  0.00  0.00    +0.000 C 
ATOM     31  O   UNL     1      48.607   7.950  15.254  0.00  0.00    +0.000 OA
ENDBRANCH  21  31
ENDBRANCH  17  28
ENDBRANCH   1  19
TORSDOF 8
ENDMDL
MODEL 9
REMARK VINA RESULT:    -6.737      4.689      9.414
REMARK INTER + INTRA:         -11.135
REMARK INTER:                 -10.267
REMARK INTRA:                  -0.868
REMARK UNBOUND:                -1.247
REMARK  Name = 
REMARK  9 active torsions:
REMARK  status: ('A' for Active; 'I' for Inactive)
REMARK    1  A    between atoms: C_1  and  O_2
REMARK    2  A    between atoms: O_2  and  C_3
REMARK    3  A    between atoms: C_10  and  C_11
REMARK    4  A    between atoms: N_13  and  C_14
REMARK    5  A    between atoms: C_14  and  C_15
REMARK    6  A    between atoms: C_18  and  C_19
REMARK    7  A    between atoms: C_19  and  O_20
REMARK    8  A    between atoms: O_20  and  C_21
REMARK    9  A    between atoms: C_21  and  C_22
REMARK                            x       y       z     vdW  Elec       q    Type
REMARK                         _______ _______ _______ _____ _____    ______ ____
ROOT
ATOM      1  C   UNL     1      47.250   3.322  16.856  0.00  0.00    +0.000 C 
ENDROOT
BRANCH   1   2
ATOM      2  C   UNL     1      48.725   3.271  17.164  0.00  0.00    +0.000 A 
ATOM      3  C   UNL     1      49.414   4.425  17.565  0.00  0.00    +0.000 A 
ATOM      4  C   UNL     1      50.782   4.375  17.843  0.00  0.00    +0.000 A 
ATOM      5  C   UNL     1      51.490   3.171  17.723  0.00  0.00    +0.000 A 
ATOM      6  C   UNL     1      50.812   2.026  17.290  0.00  0.00    +0.000 A 
ATOM      7  C   UNL     1      49.444   2.078  17.008  0.00  0.00    +0.000 A 
BRANCH   5   8
ATOM      8  C   UNL     1      52.949   3.103  18.099  0.00  0.00    +0.000 C 
BRANCH   8   9
ATOM      9  O   UNL     1      53.279   1.839  18.675  0.00  0.00    +0.000 OA
BRANCH   9  10
ATOM     10  C   UNL     1      54.597   1.404  18.319  0.00  0.00    +0.000 C 
BRANCH  10  11
ATOM     11  C   UNL     1      54.623  -0.101  18.196  0.00  0.00    +0.000 A 
ATOM     12  C   UNL     1      55.057  -0.695  17.012  0.00  0.00    +0.000 A 
ATOM     13  C   UNL     1      55.093  -2.083  16.929  0.00  0.00    +0.000 A 
ATOM     14  C   UNL     1      54.701  -2.838  18.026  0.00  0.00    +0.000 A 
ATOM     15  C   UNL     1      54.290  -2.171  19.168  0.00  0.00    +0.000 A 
ATOM     16  N   UNL     1      54.247  -0.826  19.280  0.00  0.00    +0.000 NA
ENDBRANCH  10  11
ENDBRANCH   9  10
ENDBRANCH   8   9
ENDBRANCH   5   8
ENDBRANCH   1   2
BRANCH   1  19
ATOM     17  C   UNL     1      46.998   4.225  14.572  0.00  0.00    +0.000 C 
ATOM     18  O   UNL     1      47.302   3.148  14.064  0.00  0.00    +0.000 OA
ATOM     19  N   UNL     1      46.959   4.386  15.928  0.00  0.00    +0.000 N 
ATOM     20  H   UNL     1      46.765   5.295  16.321  0.00  0.00    +0.000 HD
BRANCH  17  28
ATOM     21  C   UNL     1      44.313   5.004  12.572  0.00  0.00    +0.000 A 
ATOM     22  N   UNL     1      43.408   5.545  11.733  0.00  0.00    +0.000 NA
ATOM     23  C   UNL     1      43.676   6.746  11.214  0.00  0.00    +0.000 A 
ATOM     24  N   UNL     1      44.755   7.493  11.433  0.00  0.00    +0.000 NA
ATOM     25  C   UNL     1      45.628   6.920  12.280  0.00  0.00    +0.000 A 
ATOM     26  S   UNL     1      47.065   7.730  12.681  0.00  0.00    +0.000 S 
ATOM     27  C   UNL     1      47.563   6.455  13.688  0.00  0.00    +0.000 A 
ATOM     28  C   UNL     1      46.661   5.398  13.746  0.00  0.00    +0.000 A 
ATOM     29  C   UNL     1      45.499   5.683  12.903  0.00  0.00    +0.000 A 
BRANCH  21  31
ATOM     30  C   UNL     1      43.580   2.801  12.225  0.00  0.00    +0.000 C 
ATOM     31  O   UNL     1      44.019   3.790  13.151  0.00  0.00    +0.000 OA
ENDBRANCH  21  31
ENDBRANCH  17  28
ENDBRANCH   1  19
TORSDOF 8
ENDMDL
