MODEL 1
REMARK VINA RESULT:    -9.301      0.000      0.000
REMARK INTER + INTRA:         -14.601
REMARK INTER:                 -13.108
REMARK INTRA:                  -1.493
REMARK UNBOUND:                -1.493
REMARK  Name = 
REMARK  7 active torsions:
REMARK  status: ('A' for Active; 'I' for Inactive)
REMARK    1  A    between atoms: C_2  and  C_4
REMARK    2  A    between atoms: C_7  and  N_8
REMARK    3  A    between atoms: N_8  and  C_9
REMARK    4  A    between atoms: C_9  and  C_10
REMARK    5  A    between atoms: C_10  and  C_13
REMARK    6  A    between atoms: C_17  and  C_18
REMARK    7  A    between atoms: C_22  and  C_23
REMARK                            x       y       z     vdW  Elec       q    Type
REMARK                         _______ _______ _______ _____ _____    ______ ____
ROOT
ATOM      1  C   UNL     1      43.337   5.480  12.252  0.00  0.00    +0.000 C 
ATOM      2  F   UNL     1      42.914   6.685  11.769  0.00  0.00    +0.000 F 
ATOM      3  F   UNL     1      42.512   5.206  13.310  0.00  0.00    +0.000 F 
ENDROOT
BRANCH   1   4
ATOM      4  C   UNL     1      44.798   5.522  12.658  0.00  0.00    +0.000 A 
ATOM      5  C   UNL     1      45.396   4.424  13.298  0.00  0.00    +0.000 A 
ATOM      6  C   UNL     1      46.751   4.452  13.619  0.00  0.00    +0.000 A 
ATOM      7  C   UNL     1      47.528   5.563  13.278  0.00  0.00    +0.000 A 
ATOM      8  C   UNL     1      46.973   6.670  12.613  0.00  0.00    +0.000 A 
ATOM      9  C   UNL     1      45.591   6.633  12.343  0.00  0.00    +0.000 A 
BRANCH   8  10
ATOM     10  C   UNL     1      47.809   7.819  12.194  0.00  0.00    +0.000 A 
ATOM     11  C   UNL     1      47.321   9.136  12.235  0.00  0.00    +0.000 A 
ATOM     12  C   UNL     1      48.110  10.221  11.845  0.00  0.00    +0.000 A 
ATOM     13  C   UNL     1      49.422  10.016  11.434  0.00  0.00    +0.000 A 
ATOM     14  C   UNL     1      49.955   8.724  11.394  0.00  0.00    +0.000 A 
ATOM     15  C   UNL     1      49.130   7.638  11.741  0.00  0.00    +0.000 A 
BRANCH  14  16
ATOM     16  C   UNL     1      51.399   8.484  11.035  0.00  0.00    +0.000 C 
ATOM     17  F   UNL     1      51.957   9.496  10.314  0.00  0.00    +0.000 F 
ATOM     18  F   UNL     1      52.184   8.339  12.140  0.00  0.00    +0.000 F 
ATOM     19  F   UNL     1      51.581   7.353  10.298  0.00  0.00    +0.000 F 
ENDBRANCH  14  16
ENDBRANCH   8  10
ENDBRANCH   1   4
BRANCH   1  20
ATOM     20  C   UNL     1      43.113   4.392  11.168  0.00  0.00    +0.000 C 
BRANCH  20  21
ATOM     21  N   UNL     1      43.652   4.757   9.845  0.00  0.00    +0.000 N 
ATOM     22  H   UNL     1      42.962   5.150   9.203  0.00  0.00    +0.000 HD
BRANCH  21  26
ATOM     23  C   UNL     1      46.397   2.227   7.877  0.00  0.00    +0.000 A 
ATOM     24  C   UNL     1      46.408   3.597   7.606  0.00  0.00    +0.000 A 
ATOM     25  C   UNL     1      45.511   4.447   8.262  0.00  0.00    +0.000 A 
ATOM     26  C   UNL     1      44.611   3.964   9.220  0.00  0.00    +0.000 A 
ATOM     27  C   UNL     1      44.596   2.582   9.458  0.00  0.00    +0.000 A 
ATOM     28  C   UNL     1      45.474   1.717   8.791  0.00  0.00    +0.000 A 
BRANCH  23  30
ATOM     29  N   UNL     1      48.364   1.843   6.496  0.00  0.00    +0.000 N 
ATOM     30  C   UNL     1      47.323   1.291   7.191  0.00  0.00    +0.000 C 
ATOM     31  O   UNL     1      47.193   0.076   7.272  0.00  0.00    +0.000 OA
ATOM     32  H   UNL     1      49.049   1.194   6.133  0.00  0.00    +0.000 HD
ATOM     33  H   UNL     1      48.650   2.802   6.632  0.00  0.00    +0.000 HD
ENDBRANCH  23  30
ENDBRANCH  21  26
ENDBRANCH  20  21
ENDBRANCH   1  20
TORSDOF 7
ENDMDL
MODEL 2
REMARK VINA RESULT:    -9.256      3.509      4.577
REMARK INTER + INTRA:         -14.537
REMARK INTER:                 -13.181
REMARK INTRA:                  -1.356
REMARK UNBOUND:                -1.493
REMARK  Name = 
REMARK  7 active torsions:
REMARK  status: ('A' for Active; 'I' for Inactive)
REMARK    1  A    between atoms: C_2  and  C_4
REMARK    2  A    between atoms: C_7  and  N_8
REMARK    3  A    between atoms: N_8  and  C_9
REMARK    4  A    between atoms: C_9  and  C_10
REMARK    5  A    between atoms: C_10  and  C_13
REMARK    6  A    between atoms: C_17  and  C_18
REMARK    7  A    between atoms: C_22  and  C_23
REMARK                            x       y       z     vdW  Elec       q    Type
REMARK                         _______ _______ _______ _____ _____    ______ ____
ROOT
ATOM      1  C   UNL     1      43.278   4.791  12.382  0.00  0.00    +0.000 C 
ATOM      2  F   UNL     1      42.302   5.615  11.901  0.00  0.00    +0.000 F 
ATOM      3  F   UNL     1      42.827   4.374  13.606  0.00  0.00    +0.000 F 
ENDROOT
BRANCH   1   4
ATOM      4  C   UNL     1      44.616   5.501  12.472  0.00  0.00    +0.000 A 
ATOM      5  C   UNL     1      44.952   6.514  11.559  0.00  0.00    +0.000 A 
ATOM      6  C   UNL     1      46.160   7.196  11.682  0.00  0.00    +0.000 A 
ATOM      7  C   UNL     1      47.029   6.896  12.734  0.00  0.00    +0.000 A 
ATOM      8  C   UNL     1      46.717   5.908  13.684  0.00  0.00    +0.000 A 
ATOM      9  C   UNL     1      45.510   5.203  13.508  0.00  0.00    +0.000 A 
BRANCH   8  10
ATOM     10  C   UNL     1      47.608   5.635  14.835  0.00  0.00    +0.000 A 
ATOM     11  C   UNL     1      48.592   6.554  15.237  0.00  0.00    +0.000 A 
ATOM     12  C   UNL     1      49.430   6.300  16.326  0.00  0.00    +0.000 A 
ATOM     13  C   UNL     1      49.280   5.130  17.061  0.00  0.00    +0.000 A 
ATOM     14  C   UNL     1      48.304   4.195  16.708  0.00  0.00    +0.000 A 
ATOM     15  C   UNL     1      47.503   4.442  15.578  0.00  0.00    +0.000 A 
BRANCH  14  16
ATOM     16  C   UNL     1      48.065   2.960  17.539  0.00  0.00    +0.000 C 
ATOM     17  F   UNL     1      46.760   2.570  17.572  0.00  0.00    +0.000 F 
ATOM     18  F   UNL     1      48.762   1.886  17.073  0.00  0.00    +0.000 F 
ATOM     19  F   UNL     1      48.444   3.113  18.838  0.00  0.00    +0.000 F 
ENDBRANCH  14  16
ENDBRANCH   8  10
ENDBRANCH   1   4
BRANCH   1  20
ATOM     20  C   UNL     1      43.393   3.548  11.459  0.00  0.00    +0.000 C 
BRANCH  20  21
ATOM     21  N   UNL     1      43.459   3.882  10.024  0.00  0.00    +0.000 N 
ATOM     22  H   UNL     1      42.565   3.821   9.536  0.00  0.00    +0.000 HD
BRANCH  21  26
ATOM     23  C   UNL     1      46.631   2.563   7.574  0.00  0.00    +0.000 A 
ATOM     24  C   UNL     1      46.301   3.919   7.600  0.00  0.00    +0.000 A 
ATOM     25  C   UNL     1      45.259   4.370   8.418  0.00  0.00    +0.000 A 
ATOM     26  C   UNL     1      44.549   3.495   9.248  0.00  0.00    +0.000 A 
ATOM     27  C   UNL     1      44.877   2.132   9.188  0.00  0.00    +0.000 A 
ATOM     28  C   UNL     1      45.902   1.665   8.355  0.00  0.00    +0.000 A 
BRANCH  23  30
ATOM     29  N   UNL     1      48.128   2.843   5.675  0.00  0.00    +0.000 N 
ATOM     30  C   UNL     1      47.719   2.043   6.708  0.00  0.00    +0.000 C 
ATOM     31  O   UNL     1      48.262   0.968   6.925  0.00  0.00    +0.000 OA
ATOM     32  H   UNL     1      48.944   2.530   5.168  0.00  0.00    +0.000 HD
ATOM     33  H   UNL     1      47.897   3.825   5.635  0.00  0.00    +0.000 HD
ENDBRANCH  23  30
ENDBRANCH  21  26
ENDBRANCH  20  21
ENDBRANCH   1  20
TORSDOF 7
ENDMDL
MODEL 3
REMARK VINA RESULT:    -8.882      3.209      4.654
REMARK INTER + INTRA:         -14.010
REMARK INTER:                 -12.581
REMARK INTRA:                  -1.429
REMARK UNBOUND:                -1.493
REMARK  Name = 
REMARK  7 active torsions:
REMARK  status: ('A' for Active; 'I' for Inactive)
REMARK    1  A    between atoms: C_2  and  C_4
REMARK    2  A    between atoms: C_7  and  N_8
REMARK    3  A    between atoms: N_8  and  C_9
REMARK    4  A    between atoms: C_9  and  C_10
REMARK    5  A    between atoms: C_10  and  C_13
REMARK    6  A    between atoms: C_17  and  C_18
REMARK    7  A    between atoms: C_22  and  C_23
REMARK                            x       y       z     vdW  Elec       q    Type
REMARK                         _______ _______ _______ _____ _____    ______ ____
ROOT
ATOM      1  C   UNL     1      44.006   4.911  12.381  0.00  0.00    +0.000 C 
ATOM      2  F   UNL     1      43.067   5.389  13.250  0.00  0.00    +0.000 F 
ATOM      3  F   UNL     1      43.814   3.555  12.353  0.00  0.00    +0.000 F 
ENDROOT
BRANCH   1   4
ATOM      4  C   UNL     1      45.411   5.285  12.814  0.00  0.00    +0.000 A 
ATOM      5  C   UNL     1      46.169   6.204  12.071  0.00  0.00    +0.000 A 
ATOM      6  C   UNL     1      47.438   6.580  12.505  0.00  0.00    +0.000 A 
ATOM      7  C   UNL     1      47.948   6.067  13.700  0.00  0.00    +0.000 A 
ATOM      8  C   UNL     1      47.210   5.166  14.487  0.00  0.00    +0.000 A 
ATOM      9  C   UNL     1      45.950   4.768  13.999  0.00  0.00    +0.000 A 
BRANCH   8  10
ATOM     10  C   UNL     1      47.725   4.673  15.785  0.00  0.00    +0.000 A 
ATOM     11  C   UNL     1      47.448   3.372  16.238  0.00  0.00    +0.000 A 
ATOM     12  C   UNL     1      47.936   2.902  17.460  0.00  0.00    +0.000 A 
ATOM     13  C   UNL     1      48.743   3.717  18.246  0.00  0.00    +0.000 A 
ATOM     14  C   UNL     1      49.058   5.013  17.827  0.00  0.00    +0.000 A 
ATOM     15  C   UNL     1      48.516   5.487  16.618  0.00  0.00    +0.000 A 
BRANCH  14  16
ATOM     16  C   UNL     1      50.000   5.884  18.618  0.00  0.00    +0.000 C 
ATOM     17  F   UNL     1      49.630   7.195  18.653  0.00  0.00    +0.000 F 
ATOM     18  F   UNL     1      50.091   5.490  19.920  0.00  0.00    +0.000 F 
ATOM     19  F   UNL     1      51.273   5.866  18.135  0.00  0.00    +0.000 F 
ENDBRANCH  14  16
ENDBRANCH   8  10
ENDBRANCH   1   4
BRANCH   1  20
ATOM     20  C   UNL     1      43.715   5.471  10.963  0.00  0.00    +0.000 C 
BRANCH  20  21
ATOM     21  N   UNL     1      43.452   4.425   9.957  0.00  0.00    +0.000 N 
ATOM     22  H   UNL     1      42.700   3.782  10.206  0.00  0.00    +0.000 HD
BRANCH  21  26
ATOM     23  C   UNL     1      46.471   2.471   7.748  0.00  0.00    +0.000 A 
ATOM     24  C   UNL     1      46.353   3.860   7.673  0.00  0.00    +0.000 A 
ATOM     25  C   UNL     1      45.364   4.521   8.410  0.00  0.00    +0.000 A 
ATOM     26  C   UNL     1      44.497   3.823   9.260  0.00  0.00    +0.000 A 
ATOM     27  C   UNL     1      44.612   2.425   9.302  0.00  0.00    +0.000 A 
ATOM     28  C   UNL     1      45.583   1.752   8.550  0.00  0.00    +0.000 A 
BRANCH  23  30
ATOM     29  N   UNL     1      48.524   2.468   6.443  0.00  0.00    +0.000 N 
ATOM     30  C   UNL     1      47.497   1.733   6.969  0.00  0.00    +0.000 C 
ATOM     31  O   UNL     1      47.457   0.517   6.834  0.00  0.00    +0.000 OA
ATOM     32  H   UNL     1      49.274   1.940   6.016  0.00  0.00    +0.000 HD
ATOM     33  H   UNL     1      48.730   3.405   6.758  0.00  0.00    +0.000 HD
ENDBRANCH  23  30
ENDBRANCH  21  26
ENDBRANCH  20  21
ENDBRANCH   1  20
TORSDOF 7
ENDMDL
MODEL 4
REMARK VINA RESULT:    -8.757      3.351      4.616
REMARK INTER + INTRA:         -13.834
REMARK INTER:                 -12.398
REMARK INTRA:                  -1.436
REMARK UNBOUND:                -1.493
REMARK  Name = 
REMARK  7 active torsions:
REMARK  status: ('A' for Active; 'I' for Inactive)
REMARK    1  A    between atoms: C_2  and  C_4
REMARK    2  A    between atoms: C_7  and  N_8
REMARK    3  A    between atoms: N_8  and  C_9
REMARK    4  A    between atoms: C_9  and  C_10
REMARK    5  A    between atoms: C_10  and  C_13
REMARK    6  A    between atoms: C_17  and  C_18
REMARK    7  A    between atoms: C_22  and  C_23
REMARK                            x       y       z     vdW  Elec       q    Type
REMARK                         _______ _______ _______ _____ _____    ______ ____
ROOT
ATOM      1  C   UNL     1      44.745   5.279  12.326  0.00  0.00    +0.000 C 
ATOM      2  F   UNL     1      43.922   5.632  13.356  0.00  0.00    +0.000 F 
ATOM      3  F   UNL     1      44.785   3.910  12.348  0.00  0.00    +0.000 F 
ENDROOT
BRANCH   1   4
ATOM      4  C   UNL     1      46.123   5.897  12.474  0.00  0.00    +0.000 A 
ATOM      5  C   UNL     1      46.677   6.670  11.440  0.00  0.00    +0.000 A 
ATOM      6  C   UNL     1      47.920   7.276  11.606  0.00  0.00    +0.000 A 
ATOM      7  C   UNL     1      48.606   7.143  12.816  0.00  0.00    +0.000 A 
ATOM      8  C   UNL     1      48.074   6.401  13.884  0.00  0.00    +0.000 A 
ATOM      9  C   UNL     1      46.837   5.761  13.671  0.00  0.00    +0.000 A 
BRANCH   8  10
ATOM     10  C   UNL     1      48.772   6.313  15.188  0.00  0.00    +0.000 A 
ATOM     11  C   UNL     1      49.952   7.033  15.439  0.00  0.00    +0.000 A 
ATOM     12  C   UNL     1      50.609   6.956  16.669  0.00  0.00    +0.000 A 
ATOM     13  C   UNL     1      50.081   6.178  17.693  0.00  0.00    +0.000 A 
ATOM     14  C   UNL     1      48.900   5.457  17.493  0.00  0.00    +0.000 A 
ATOM     15  C   UNL     1      48.279   5.506  16.231  0.00  0.00    +0.000 A 
BRANCH  14  16
ATOM     16  C   UNL     1      48.261   4.675  18.613  0.00  0.00    +0.000 C 
ATOM     17  F   UNL     1      47.626   3.545  18.194  0.00  0.00    +0.000 F 
ATOM     18  F   UNL     1      49.175   4.266  19.538  0.00  0.00    +0.000 F 
ATOM     19  F   UNL     1      47.332   5.396  19.300  0.00  0.00    +0.000 F 
ENDBRANCH  14  16
ENDBRANCH   8  10
ENDBRANCH   1   4
BRANCH   1  20
ATOM     20  C   UNL     1      44.100   5.724  10.986  0.00  0.00    +0.000 C 
BRANCH  20  21
ATOM     21  N   UNL     1      43.729   4.599  10.107  0.00  0.00    +0.000 N 
ATOM     22  H   UNL     1      43.016   3.980  10.494  0.00  0.00    +0.000 HD
BRANCH  21  26
ATOM     23  C   UNL     1      46.480   2.487   7.702  0.00  0.00    +0.000 A 
ATOM     24  C   UNL     1      46.470   3.882   7.672  0.00  0.00    +0.000 A 
ATOM     25  C   UNL     1      45.571   4.594   8.475  0.00  0.00    +0.000 A 
ATOM     26  C   UNL     1      44.690   3.939   9.344  0.00  0.00    +0.000 A 
ATOM     27  C   UNL     1      44.695   2.537   9.340  0.00  0.00    +0.000 A 
ATOM     28  C   UNL     1      45.574   1.813   8.524  0.00  0.00    +0.000 A 
BRANCH  23  30
ATOM     29  N   UNL     1      48.506   2.346   6.363  0.00  0.00    +0.000 N 
ATOM     30  C   UNL     1      47.407   1.696   6.854  0.00  0.00    +0.000 C 
ATOM     31  O   UNL     1      47.228   0.506   6.634  0.00  0.00    +0.000 OA
ATOM     32  H   UNL     1      49.187   1.769   5.886  0.00  0.00    +0.000 HD
ATOM     33  H   UNL     1      48.820   3.229   6.739  0.00  0.00    +0.000 HD
ENDBRANCH  23  30
ENDBRANCH  21  26
ENDBRANCH  20  21
ENDBRANCH   1  20
TORSDOF 7
ENDMDL
MODEL 5
REMARK VINA RESULT:    -7.864      4.088      7.857
REMARK INTER + INTRA:         -12.576
REMARK INTER:                 -11.004
REMARK INTRA:                  -1.572
REMARK UNBOUND:                -1.493
REMARK  Name = 
REMARK  7 active torsions:
REMARK  status: ('A' for Active; 'I' for Inactive)
REMARK    1  A    between atoms: C_2  and  C_4
REMARK    2  A    between atoms: C_7  and  N_8
REMARK    3  A    between atoms: N_8  and  C_9
REMARK    4  A    between atoms: C_9  and  C_10
REMARK    5  A    between atoms: C_10  and  C_13
REMARK    6  A    between atoms: C_17  and  C_18
REMARK    7  A    between atoms: C_22  and  C_23
REMARK                            x       y       z     vdW  Elec       q    Type
REMARK                         _______ _______ _______ _____ _____    ______ ____
ROOT
ATOM      1  C   UNL     1      49.135   8.163  11.962  0.00  0.00    +0.000 C 
ATOM      2  F   UNL     1      49.541   9.463  12.046  0.00  0.00    +0.000 F 
ATOM      3  F   UNL     1      49.652   7.699  10.781  0.00  0.00    +0.000 F 
ENDROOT
BRANCH   1   4
ATOM      4  C   UNL     1      47.623   8.045  12.014  0.00  0.00    +0.000 A 
ATOM      5  C   UNL     1      46.819   9.191  12.126  0.00  0.00    +0.000 A 
ATOM      6  C   UNL     1      45.430   9.077  12.121  0.00  0.00    +0.000 A 
ATOM      7  C   UNL     1      44.833   7.823  11.973  0.00  0.00    +0.000 A 
ATOM      8  C   UNL     1      45.602   6.655  11.831  0.00  0.00    +0.000 A 
ATOM      9  C   UNL     1      47.003   6.796  11.887  0.00  0.00    +0.000 A 
BRANCH   8  10
ATOM     10  C   UNL     1      44.969   5.334  11.610  0.00  0.00    +0.000 A 
ATOM     11  C   UNL     1      44.031   4.808  12.514  0.00  0.00    +0.000 A 
ATOM     12  C   UNL     1      43.429   3.565  12.305  0.00  0.00    +0.000 A 
ATOM     13  C   UNL     1      43.729   2.831  11.164  0.00  0.00    +0.000 A 
ATOM     14  C   UNL     1      44.643   3.322  10.229  0.00  0.00    +0.000 A 
ATOM     15  C   UNL     1      45.279   4.552  10.480  0.00  0.00    +0.000 A 
BRANCH  14  16
ATOM     16  C   UNL     1      44.920   2.585   8.943  0.00  0.00    +0.000 C 
ATOM     17  F   UNL     1      44.468   1.300   8.942  0.00  0.00    +0.000 F 
ATOM     18  F   UNL     1      44.330   3.186   7.871  0.00  0.00    +0.000 F 
ATOM     19  F   UNL     1      46.248   2.516   8.646  0.00  0.00    +0.000 F 
ENDBRANCH  14  16
ENDBRANCH   8  10
ENDBRANCH   1   4
BRANCH   1  20
ATOM     20  C   UNL     1      49.776   7.355  13.122  0.00  0.00    +0.000 C 
BRANCH  20  21
ATOM     21  N   UNL     1      49.239   7.702  14.451  0.00  0.00    +0.000 N 
ATOM     22  H   UNL     1      49.714   8.482  14.906  0.00  0.00    +0.000 HD
BRANCH  21  26
ATOM     23  C   UNL     1      48.010   4.549  16.973  0.00  0.00    +0.000 A 
ATOM     24  C   UNL     1      48.960   5.464  17.429  0.00  0.00    +0.000 A 
ATOM     25  C   UNL     1      49.366   6.522  16.607  0.00  0.00    +0.000 A 
ATOM     26  C   UNL     1      48.816   6.711  15.334  0.00  0.00    +0.000 A 
ATOM     27  C   UNL     1      47.883   5.766  14.881  0.00  0.00    +0.000 A 
ATOM     28  C   UNL     1      47.486   4.690  15.686  0.00  0.00    +0.000 A 
BRANCH  23  30
ATOM     29  N   UNL     1      48.304   3.130  18.927  0.00  0.00    +0.000 N 
ATOM     30  C   UNL     1      47.565   3.406  17.809  0.00  0.00    +0.000 C 
ATOM     31  O   UNL     1      46.560   2.761  17.541  0.00  0.00    +0.000 OA
ATOM     32  H   UNL     1      47.924   2.427  19.547  0.00  0.00    +0.000 HD
ATOM     33  H   UNL     1      48.958   3.793  19.314  0.00  0.00    +0.000 HD
ENDBRANCH  23  30
ENDBRANCH  21  26
ENDBRANCH  20  21
ENDBRANCH   1  20
TORSDOF 7
ENDMDL
MODEL 6
REMARK VINA RESULT:    -7.239      4.003      6.433
REMARK INTER + INTRA:         -11.695
REMARK INTER:                  -9.892
REMARK INTRA:                  -1.803
REMARK UNBOUND:                -1.493
REMARK  Name = 
REMARK  7 active torsions:
REMARK  status: ('A' for Active; 'I' for Inactive)
REMARK    1  A    between atoms: C_2  and  C_4
REMARK    2  A    between atoms: C_7  and  N_8
REMARK    3  A    between atoms: N_8  and  C_9
REMARK    4  A    between atoms: C_9  and  C_10
REMARK    5  A    between atoms: C_10  and  C_13
REMARK    6  A    between atoms: C_17  and  C_18
REMARK    7  A    between atoms: C_22  and  C_23
REMARK                            x       y       z     vdW  Elec       q    Type
REMARK                         _______ _______ _______ _____ _____    ______ ____
ROOT
ATOM      1  C   UNL     1      48.073   8.622  12.317  0.00  0.00    +0.000 C 
ATOM      2  F   UNL     1      48.367   7.374  11.848  0.00  0.00    +0.000 F 
ATOM      3  F   UNL     1      48.697   9.486  11.457  0.00  0.00    +0.000 F 
ENDROOT
BRANCH   1   4
ATOM      4  C   UNL     1      48.533   8.803  13.751  0.00  0.00    +0.000 A 
ATOM      5  C   UNL     1      48.767  10.086  14.272  0.00  0.00    +0.000 A 
ATOM      6  C   UNL     1      49.139  10.245  15.605  0.00  0.00    +0.000 A 
ATOM      7  C   UNL     1      49.251   9.129  16.437  0.00  0.00    +0.000 A 
ATOM      8  C   UNL     1      49.000   7.830  15.961  0.00  0.00    +0.000 A 
ATOM      9  C   UNL     1      48.670   7.696  14.598  0.00  0.00    +0.000 A 
BRANCH   8  10
ATOM     10  C   UNL     1      49.056   6.654  16.859  0.00  0.00    +0.000 A 
ATOM     11  C   UNL     1      49.521   6.760  18.181  0.00  0.00    +0.000 A 
ATOM     12  C   UNL     1      49.570   5.653  19.032  0.00  0.00    +0.000 A 
ATOM     13  C   UNL     1      49.122   4.414  18.587  0.00  0.00    +0.000 A 
ATOM     14  C   UNL     1      48.636   4.265  17.286  0.00  0.00    +0.000 A 
ATOM     15  C   UNL     1      48.641   5.379  16.426  0.00  0.00    +0.000 A 
BRANCH  14  16
ATOM     16  C   UNL     1      48.065   2.954  16.808  0.00  0.00    +0.000 C 
ATOM     17  F   UNL     1      48.978   1.943  16.773  0.00  0.00    +0.000 F 
ATOM     18  F   UNL     1      47.055   2.513  17.610  0.00  0.00    +0.000 F 
ATOM     19  F   UNL     1      47.539   3.029  15.555  0.00  0.00    +0.000 F 
ENDBRANCH  14  16
ENDBRANCH   8  10
ENDBRANCH   1   4
BRANCH   1  20
ATOM     20  C   UNL     1      46.542   8.855  12.211  0.00  0.00    +0.000 C 
BRANCH  20  21
ATOM     21  N   UNL     1      45.752   8.017  13.133  0.00  0.00    +0.000 N 
ATOM     22  H   UNL     1      46.054   8.062  14.107  0.00  0.00    +0.000 HD
BRANCH  21  26
ATOM     23  C   UNL     1      44.446   4.249  11.754  0.00  0.00    +0.000 A 
ATOM     24  C   UNL     1      45.315   4.319  12.844  0.00  0.00    +0.000 A 
ATOM     25  C   UNL     1      45.745   5.563  13.319  0.00  0.00    +0.000 A 
ATOM     26  C   UNL     1      45.297   6.759  12.745  0.00  0.00    +0.000 A 
ATOM     27  C   UNL     1      44.446   6.668  11.633  0.00  0.00    +0.000 A 
ATOM     28  C   UNL     1      44.028   5.428  11.135  0.00  0.00    +0.000 A 
BRANCH  23  30
ATOM     29  N   UNL     1      44.722   2.391  10.206  0.00  0.00    +0.000 N 
ATOM     30  C   UNL     1      43.979   2.948  11.212  0.00  0.00    +0.000 C 
ATOM     31  O   UNL     1      43.000   2.371  11.666  0.00  0.00    +0.000 OA
ATOM     32  H   UNL     1      44.461   1.454   9.928  0.00  0.00    +0.000 HD
ATOM     33  H   UNL     1      45.662   2.697  10.002  0.00  0.00    +0.000 HD
ENDBRANCH  23  30
ENDBRANCH  21  26
ENDBRANCH  20  21
ENDBRANCH   1  20
TORSDOF 7
ENDMDL
MODEL 7
REMARK VINA RESULT:    -6.384      4.575      6.608
REMARK INTER + INTRA:         -10.490
REMARK INTER:                  -8.384
REMARK INTRA:                  -2.106
REMARK UNBOUND:                -1.493
REMARK  Name = 
REMARK  7 active torsions:
REMARK  status: ('A' for Active; 'I' for Inactive)
REMARK    1  A    between atoms: C_2  and  C_4
REMARK    2  A    between atoms: C_7  and  N_8
REMARK    3  A    between atoms: N_8  and  C_9
REMARK    4  A    between atoms: C_9  and  C_10
REMARK    5  A    between atoms: C_10  and  C_13
REMARK    6  A    between atoms: C_17  and  C_18
REMARK    7  A    between atoms: C_22  and  C_23
REMARK                            x       y       z     vdW  Elec       q    Type
REMARK                         _______ _______ _______ _____ _____    ______ ____
ROOT
ATOM      1  C   UNL     1      45.627   4.479  12.701  0.00  0.00    +0.000 C 
ATOM      2  F   UNL     1      45.514   3.802  11.521  0.00  0.00    +0.000 F 
ATOM      3  F   UNL     1      44.388   4.401  13.281  0.00  0.00    +0.000 F 
ENDROOT
BRANCH   1   4
ATOM      4  C   UNL     1      46.071   5.913  12.482  0.00  0.00    +0.000 A 
ATOM      5  C   UNL     1      45.130   6.922  12.215  0.00  0.00    +0.000 A 
ATOM      6  C   UNL     1      45.542   8.244  12.067  0.00  0.00    +0.000 A 
ATOM      7  C   UNL     1      46.891   8.576  12.215  0.00  0.00    +0.000 A 
ATOM      8  C   UNL     1      47.860   7.601  12.509  0.00  0.00    +0.000 A 
ATOM      9  C   UNL     1      47.420   6.266  12.607  0.00  0.00    +0.000 A 
BRANCH   8  10
ATOM     10  C   UNL     1      49.279   7.963  12.729  0.00  0.00    +0.000 A 
ATOM     11  C   UNL     1      50.039   8.597  11.732  0.00  0.00    +0.000 A 
ATOM     12  C   UNL     1      51.376   8.944  11.939  0.00  0.00    +0.000 A 
ATOM     13  C   UNL     1      51.978   8.692  13.166  0.00  0.00    +0.000 A 
ATOM     14  C   UNL     1      51.256   8.077  14.193  0.00  0.00    +0.000 A 
ATOM     15  C   UNL     1      49.925   7.688  13.950  0.00  0.00    +0.000 A 
BRANCH  14  16
ATOM     16  C   UNL     1      51.858   7.871  15.560  0.00  0.00    +0.000 C 
ATOM     17  F   UNL     1      52.138   6.568  15.840  0.00  0.00    +0.000 F 
ATOM     18  F   UNL     1      53.035   8.543  15.707  0.00  0.00    +0.000 F 
ATOM     19  F   UNL     1      51.052   8.308  16.566  0.00  0.00    +0.000 F 
ENDBRANCH  14  16
ENDBRANCH   8  10
ENDBRANCH   1   4
BRANCH   1  20
ATOM     20  C   UNL     1      46.638   3.739  13.617  0.00  0.00    +0.000 C 
BRANCH  20  21
ATOM     21  N   UNL     1      46.466   4.039  15.051  0.00  0.00    +0.000 N 
ATOM     22  H   UNL     1      45.769   4.757  15.250  0.00  0.00    +0.000 HD
BRANCH  21  26
ATOM     23  C   UNL     1      49.681   4.274  17.775  0.00  0.00    +0.000 A 
ATOM     24  C   UNL     1      49.041   3.051  17.570  0.00  0.00    +0.000 A 
ATOM     25  C   UNL     1      47.982   2.957  16.660  0.00  0.00    +0.000 A 
ATOM     26  C   UNL     1      47.559   4.063  15.913  0.00  0.00    +0.000 A 
ATOM     27  C   UNL     1      48.196   5.291  16.152  0.00  0.00    +0.000 A 
ATOM     28  C   UNL     1      49.241   5.401  17.077  0.00  0.00    +0.000 A 
BRANCH  23  30
ATOM     29  N   UNL     1      51.802   3.491  18.672  0.00  0.00    +0.000 N 
ATOM     30  C   UNL     1      50.797   4.417  18.742  0.00  0.00    +0.000 C 
ATOM     31  O   UNL     1      50.847   5.342  19.542  0.00  0.00    +0.000 OA
ATOM     32  H   UNL     1      52.609   3.666  19.256  0.00  0.00    +0.000 HD
ATOM     33  H   UNL     1      51.925   2.893  17.868  0.00  0.00    +0.000 HD
ENDBRANCH  23  30
ENDBRANCH  21  26
ENDBRANCH  20  21
ENDBRANCH   1  20
TORSDOF 7
ENDMDL
MODEL 8
REMARK VINA RESULT:    -6.362      3.969      7.316
REMARK INTER + INTRA:         -10.459
REMARK INTER:                  -9.168
REMARK INTRA:                  -1.290
REMARK UNBOUND:                -1.493
REMARK  Name = 
REMARK  7 active torsions:
REMARK  status: ('A' for Active; 'I' for Inactive)
REMARK    1  A    between atoms: C_2  and  C_4
REMARK    2  A    between atoms: C_7  and  N_8
REMARK    3  A    between atoms: N_8  and  C_9
REMARK    4  A    between atoms: C_9  and  C_10
REMARK    5  A    between atoms: C_10  and  C_13
REMARK    6  A    between atoms: C_17  and  C_18
REMARK    7  A    between atoms: C_22  and  C_23
REMARK                            x       y       z     vdW  Elec       q    Type
REMARK                         _______ _______ _______ _____ _____    ______ ____
ROOT
ATOM      1  C   UNL     1      47.809   8.606  13.759  0.00  0.00    +0.000 C 
ATOM      2  F   UNL     1      48.571   7.473  13.809  0.00  0.00    +0.000 F 
ATOM      3  F   UNL     1      47.499   8.890  15.062  0.00  0.00    +0.000 F 
ENDROOT
BRANCH   1   4
ATOM      4  C   UNL     1      46.573   8.410  12.902  0.00  0.00    +0.000 A 
ATOM      5  C   UNL     1      45.778   9.506  12.530  0.00  0.00    +0.000 A 
ATOM      6  C   UNL     1      44.674   9.324  11.700  0.00  0.00    +0.000 A 
ATOM      7  C   UNL     1      44.372   8.051  11.210  0.00  0.00    +0.000 A 
ATOM      8  C   UNL     1      45.158   6.932  11.537  0.00  0.00    +0.000 A 
ATOM      9  C   UNL     1      46.240   7.140  12.415  0.00  0.00    +0.000 A 
BRANCH   8  10
ATOM     10  C   UNL     1      44.875   5.595  10.965  0.00  0.00    +0.000 A 
ATOM     11  C   UNL     1      43.922   4.737  11.540  0.00  0.00    +0.000 A 
ATOM     12  C   UNL     1      43.650   3.478  11.000  0.00  0.00    +0.000 A 
ATOM     13  C   UNL     1      44.306   3.059   9.848  0.00  0.00    +0.000 A 
ATOM     14  C   UNL     1      45.249   3.886   9.232  0.00  0.00    +0.000 A 
ATOM     15  C   UNL     1      45.548   5.130   9.819  0.00  0.00    +0.000 A 
BRANCH  14  16
ATOM     16  C   UNL     1      45.909   3.492   7.936  0.00  0.00    +0.000 C 
ATOM     17  F   UNL     1      46.557   2.295   7.996  0.00  0.00    +0.000 F 
ATOM     18  F   UNL     1      45.009   3.375   6.918  0.00  0.00    +0.000 F 
ATOM     19  F   UNL     1      46.833   4.399   7.513  0.00  0.00    +0.000 F 
ENDBRANCH  14  16
ENDBRANCH   8  10
ENDBRANCH   1   4
BRANCH   1  20
ATOM     20  C   UNL     1      48.670   9.770  13.200  0.00  0.00    +0.000 C 
BRANCH  20  21
ATOM     21  N   UNL     1      48.999   9.628  11.769  0.00  0.00    +0.000 N 
ATOM     22  H   UNL     1      48.235   9.272  11.195  0.00  0.00    +0.000 HD
BRANCH  21  26
ATOM     23  C   UNL     1      52.716   8.198  10.372  0.00  0.00    +0.000 A 
ATOM     24  C   UNL     1      52.551   9.563  10.614  0.00  0.00    +0.000 A 
ATOM     25  C   UNL     1      51.327  10.048  11.089  0.00  0.00    +0.000 A 
ATOM     26  C   UNL     1      50.257   9.188  11.365  0.00  0.00    +0.000 A 
ATOM     27  C   UNL     1      50.432   7.823  11.090  0.00  0.00    +0.000 A 
ATOM     28  C   UNL     1      51.645   7.330  10.592  0.00  0.00    +0.000 A 
BRANCH  23  30
ATOM     29  N   UNL     1      53.953   7.027   8.635  0.00  0.00    +0.000 N 
ATOM     30  C   UNL     1      53.993   7.648   9.853  0.00  0.00    +0.000 C 
ATOM     31  O   UNL     1      55.048   7.776  10.462  0.00  0.00    +0.000 OA
ATOM     32  H   UNL     1      54.847   6.762   8.242  0.00  0.00    +0.000 HD
ATOM     33  H   UNL     1      53.177   7.143   8.000  0.00  0.00    +0.000 HD
ENDBRANCH  23  30
ENDBRANCH  21  26
ENDBRANCH  20  21
ENDBRANCH   1  20
TORSDOF 7
ENDMDL
MODEL 9
REMARK VINA RESULT:    -6.321      4.321      6.481
REMARK INTER + INTRA:         -10.401
REMARK INTER:                  -8.720
REMARK INTRA:                  -1.681
REMARK UNBOUND:                -1.493
REMARK  Name = 
REMARK  7 active torsions:
REMARK  status: ('A' for Active; 'I' for Inactive)
REMARK    1  A    between atoms: C_2  and  C_4
REMARK    2  A    between atoms: C_7  and  N_8
REMARK    3  A    between atoms: N_8  and  C_9
REMARK    4  A    between atoms: C_9  and  C_10
REMARK    5  A    between atoms: C_10  and  C_13
REMARK    6  A    between atoms: C_17  and  C_18
REMARK    7  A    between atoms: C_22  and  C_23
REMARK                            x       y       z     vdW  Elec       q    Type
REMARK                         _______ _______ _______ _____ _____    ______ ____
ROOT
ATOM      1  C   UNL     1      45.671   4.647  12.940  0.00  0.00    +0.000 C 
ATOM      2  F   UNL     1      45.499   3.948  11.780  0.00  0.00    +0.000 F 
ATOM      3  F   UNL     1      44.450   4.620  13.561  0.00  0.00    +0.000 F 
ENDROOT
BRANCH   1   4
ATOM      4  C   UNL     1      46.150   6.062  12.674  0.00  0.00    +0.000 A 
ATOM      5  C   UNL     1      45.233   7.121  12.569  0.00  0.00    +0.000 A 
ATOM      6  C   UNL     1      45.686   8.424  12.377  0.00  0.00    +0.000 A 
ATOM      7  C   UNL     1      47.057   8.686  12.318  0.00  0.00    +0.000 A 
ATOM      8  C   UNL     1      48.007   7.658  12.445  0.00  0.00    +0.000 A 
ATOM      9  C   UNL     1      47.519   6.345  12.593  0.00  0.00    +0.000 A 
BRANCH   8  10
ATOM     10  C   UNL     1      49.460   7.944  12.448  0.00  0.00    +0.000 A 
ATOM     11  C   UNL     1      50.132   8.325  13.622  0.00  0.00    +0.000 A 
ATOM     12  C   UNL     1      51.503   8.591  13.628  0.00  0.00    +0.000 A 
ATOM     13  C   UNL     1      52.244   8.450  12.460  0.00  0.00    +0.000 A 
ATOM     14  C   UNL     1      51.621   8.058  11.272  0.00  0.00    +0.000 A 
ATOM     15  C   UNL     1      50.230   7.844  11.272  0.00  0.00    +0.000 A 
BRANCH  14  16
ATOM     16  C   UNL     1      52.416   7.815  10.014  0.00  0.00    +0.000 C 
ATOM     17  F   UNL     1      51.818   6.947   9.151  0.00  0.00    +0.000 F 
ATOM     18  F   UNL     1      52.616   8.963   9.306  0.00  0.00    +0.000 F 
ATOM     19  F   UNL     1      53.655   7.308  10.259  0.00  0.00    +0.000 F 
ENDBRANCH  14  16
ENDBRANCH   8  10
ENDBRANCH   1   4
BRANCH   1  20
ATOM     20  C   UNL     1      46.689   3.896  13.839  0.00  0.00    +0.000 C 
BRANCH  20  21
ATOM     21  N   UNL     1      46.600   4.262  15.265  0.00  0.00    +0.000 N 
ATOM     22  H   UNL     1      45.895   4.969  15.475  0.00  0.00    +0.000 HD
BRANCH  21  26
ATOM     23  C   UNL     1      49.980   4.735  17.748  0.00  0.00    +0.000 A 
ATOM     24  C   UNL     1      49.336   3.498  17.691  0.00  0.00    +0.000 A 
ATOM     25  C   UNL     1      48.222   3.325  16.862  0.00  0.00    +0.000 A 
ATOM     26  C   UNL     1      47.746   4.362  16.051  0.00  0.00    +0.000 A 
ATOM     27  C   UNL     1      48.389   5.606  16.142  0.00  0.00    +0.000 A 
ATOM     28  C   UNL     1      49.490   5.797  16.986  0.00  0.00    +0.000 A 
BRANCH  23  30
ATOM     29  N   UNL     1      51.136   4.363  19.857  0.00  0.00    +0.000 N 
ATOM     30  C   UNL     1      51.154   4.962  18.627  0.00  0.00    +0.000 C 
ATOM     31  O   UNL     1      52.120   5.619  18.261  0.00  0.00    +0.000 OA
ATOM     32  H   UNL     1      51.989   4.429  20.396  0.00  0.00    +0.000 HD
ATOM     33  H   UNL     1      50.498   3.612  20.077  0.00  0.00    +0.000 HD
ENDBRANCH  23  30
ENDBRANCH  21  26
ENDBRANCH  20  21
ENDBRANCH   1  20
TORSDOF 7
ENDMDL
