MODEL 1
REMARK VINA RESULT:    -8.596      0.000      0.000
REMARK INTER + INTRA:         -11.334
REMARK INTER:                 -10.605
REMARK INTRA:                  -0.728
REMARK UNBOUND:                -0.728
REMARK  Name = 
REMARK  4 active torsions:
REMARK  status: ('A' for Active; 'I' for Inactive)
REMARK    1  A    between atoms: C_2  and  C_4
REMARK    2  A    between atoms: C_7  and  N_8
REMARK    3  A    between atoms: N_8  and  C_9
REMARK    4  A    between atoms: C_9  and  C_10
REMARK                            x       y       z     vdW  Elec       q    Type
REMARK                         _______ _______ _______ _____ _____    ______ ____
ROOT
ATOM      1  N   UNL     1      43.930   3.763  10.634  0.00  0.00    +0.000 N 
ATOM      2  H   UNL     1      43.846   2.927  11.211  0.00  0.00    +0.000 HD
ENDROOT
BRANCH   1   6
ATOM      3  C   UNL     1      46.564   2.722   7.500  0.00  0.00    +0.000 A 
ATOM      4  C   UNL     1      46.233   4.071   7.697  0.00  0.00    +0.000 A 
ATOM      5  C   UNL     1      45.339   4.441   8.710  0.00  0.00    +0.000 A 
ATOM      6  C   UNL     1      44.790   3.478   9.555  0.00  0.00    +0.000 A 
ATOM      7  C   UNL     1      45.143   2.134   9.362  0.00  0.00    +0.000 A 
ATOM      8  C   UNL     1      45.996   1.748   8.329  0.00  0.00    +0.000 A 
BRANCH   3  10
ATOM      9  N   UNL     1      47.346   3.010   5.215  0.00  0.00    +0.000 N 
ATOM     10  C   UNL     1      47.450   2.298   6.386  0.00  0.00    +0.000 C 
ATOM     11  O   UNL     1      48.247   1.382   6.503  0.00  0.00    +0.000 OA
ATOM     12  H   UNL     1      47.986   2.759   4.475  0.00  0.00    +0.000 HD
ATOM     13  H   UNL     1      46.883   3.904   5.166  0.00  0.00    +0.000 HD
ENDBRANCH   3  10
ENDBRANCH   1   6
BRANCH   1  14
ATOM     14  C   UNL     1      43.919   5.021  11.409  0.00  0.00    +0.000 C 
ATOM     15  C   UNL     1      42.630   5.213  12.196  0.00  0.00    +0.000 C 
ATOM     16  C   UNL     1      42.979   6.173  11.107  0.00  0.00    +0.000 C 
BRANCH  14  17
ATOM     17  C   UNL     1      45.252   5.343  12.069  0.00  0.00    +0.000 A 
ATOM     18  C   UNL     1      46.028   6.427  11.630  0.00  0.00    +0.000 A 
ATOM     19  C   UNL     1      47.166   6.836  12.327  0.00  0.00    +0.000 A 
ATOM     20  C   UNL     1      47.566   6.150  13.477  0.00  0.00    +0.000 A 
ATOM     21 CL   UNL     1      48.942   6.747  14.333  0.00  0.00    +0.000 Cl
ATOM     22  C   UNL     1      46.839   5.037  13.908  0.00  0.00    +0.000 A 
ATOM     23 CL   UNL     1      47.252   4.147  15.329  0.00  0.00    +0.000 Cl
ATOM     24  C   UNL     1      45.701   4.640  13.203  0.00  0.00    +0.000 A 
ENDBRANCH  14  17
ENDBRANCH   1  14
TORSDOF 4
ENDMDL
MODEL 2
REMARK VINA RESULT:    -7.951      1.680      2.273
REMARK INTER + INTRA:         -10.539
REMARK INTER:                 -10.523
REMARK INTRA:                  -0.016
REMARK UNBOUND:                -0.728
REMARK  Name = 
REMARK  4 active torsions:
REMARK  status: ('A' for Active; 'I' for Inactive)
REMARK    1  A    between atoms: C_2  and  C_4
REMARK    2  A    between atoms: C_7  and  N_8
REMARK    3  A    between atoms: N_8  and  C_9
REMARK    4  A    between atoms: C_9  and  C_10
REMARK                            x       y       z     vdW  Elec       q    Type
REMARK                         _______ _______ _______ _____ _____    ______ ____
ROOT
ATOM      1  N   UNL     1      43.811   5.068   9.751  0.00  0.00    +0.000 N 
ATOM      2  H   UNL     1      42.876   5.002   9.351  0.00  0.00    +0.000 HD
ENDROOT
BRANCH   1   6
ATOM      3  C   UNL     1      46.217   2.070   7.999  0.00  0.00    +0.000 A 
ATOM      4  C   UNL     1      45.205   1.698   8.896  0.00  0.00    +0.000 A 
ATOM      5  C   UNL     1      44.412   2.674   9.514  0.00  0.00    +0.000 A 
ATOM      6  C   UNL     1      44.597   4.024   9.223  0.00  0.00    +0.000 A 
ATOM      7  C   UNL     1      45.599   4.384   8.309  0.00  0.00    +0.000 A 
ATOM      8  C   UNL     1      46.425   3.425   7.722  0.00  0.00    +0.000 A 
BRANCH   3  10
ATOM      9  N   UNL     1      46.847  -0.257   7.674  0.00  0.00    +0.000 N 
ATOM     10  C   UNL     1      47.120   1.060   7.390  0.00  0.00    +0.000 C 
ATOM     11  O   UNL     1      48.043   1.373   6.656  0.00  0.00    +0.000 OA
ATOM     12  H   UNL     1      47.425  -0.947   7.216  0.00  0.00    +0.000 HD
ATOM     13  H   UNL     1      45.968  -0.553   8.068  0.00  0.00    +0.000 HD
ENDBRANCH   3  10
ENDBRANCH   1   6
BRANCH   1  14
ATOM     14  C   UNL     1      43.824   5.520  11.158  0.00  0.00    +0.000 C 
ATOM     15  C   UNL     1      43.594   4.380  12.141  0.00  0.00    +0.000 C 
ATOM     16  C   UNL     1      42.598   5.488  12.051  0.00  0.00    +0.000 C 
BRANCH  14  17
ATOM     17  C   UNL     1      44.897   6.557  11.456  0.00  0.00    +0.000 A 
ATOM     18  C   UNL     1      44.578   7.923  11.515  0.00  0.00    +0.000 A 
ATOM     19  C   UNL     1      45.509   8.868  11.948  0.00  0.00    +0.000 A 
ATOM     20  C   UNL     1      46.796   8.466  12.316  0.00  0.00    +0.000 A 
ATOM     21 CL   UNL     1      47.879   9.674  12.909  0.00  0.00    +0.000 Cl
ATOM     22  C   UNL     1      47.154   7.118  12.221  0.00  0.00    +0.000 A 
ATOM     23 CL   UNL     1      48.714   6.534  12.675  0.00  0.00    +0.000 Cl
ATOM     24  C   UNL     1      46.212   6.182  11.788  0.00  0.00    +0.000 A 
ENDBRANCH  14  17
ENDBRANCH   1  14
TORSDOF 4
ENDMDL
MODEL 3
REMARK VINA RESULT:    -7.451      4.299      6.768
REMARK INTER + INTRA:          -9.921
REMARK INTER:                  -9.477
REMARK INTRA:                  -0.445
REMARK UNBOUND:                -0.728
REMARK  Name = 
REMARK  4 active torsions:
REMARK  status: ('A' for Active; 'I' for Inactive)
REMARK    1  A    between atoms: C_2  and  C_4
REMARK    2  A    between atoms: C_7  and  N_8
REMARK    3  A    between atoms: N_8  and  C_9
REMARK    4  A    between atoms: C_9  and  C_10
REMARK                            x       y       z     vdW  Elec       q    Type
REMARK                         _______ _______ _______ _____ _____    ______ ____
ROOT
ATOM      1  N   UNL     1      44.614   5.598  10.611  0.00  0.00    +0.000 N 
ATOM      2  H   UNL     1      44.520   6.051   9.703  0.00  0.00    +0.000 HD
ENDROOT
BRANCH   1   6
ATOM      3  C   UNL     1      46.893   8.215  13.019  0.00  0.00    +0.000 A 
ATOM      4  C   UNL     1      47.452   6.993  12.617  0.00  0.00    +0.000 A 
ATOM      5  C   UNL     1      46.707   6.094  11.842  0.00  0.00    +0.000 A 
ATOM      6  C   UNL     1      45.413   6.413  11.436  0.00  0.00    +0.000 A 
ATOM      7  C   UNL     1      44.871   7.647  11.828  0.00  0.00    +0.000 A 
ATOM      8  C   UNL     1      45.585   8.530  12.636  0.00  0.00    +0.000 A 
BRANCH   3  10
ATOM      9  N   UNL     1      47.501   8.953  15.256  0.00  0.00    +0.000 N 
ATOM     10  C   UNL     1      47.635   9.151  13.903  0.00  0.00    +0.000 C 
ATOM     11  O   UNL     1      48.345  10.038  13.458  0.00  0.00    +0.000 OA
ATOM     12  H   UNL     1      48.048   9.553  15.857  0.00  0.00    +0.000 HD
ATOM     13  H   UNL     1      47.126   8.101  15.642  0.00  0.00    +0.000 HD
ENDBRANCH   3  10
ENDBRANCH   1   6
BRANCH   1  14
ATOM     14  C   UNL     1      44.691   4.124  10.534  0.00  0.00    +0.000 C 
ATOM     15  C   UNL     1      43.430   3.445  11.050  0.00  0.00    +0.000 C 
ATOM     16  C   UNL     1      44.725   3.231  11.759  0.00  0.00    +0.000 C 
BRANCH  14  17
ATOM     17  C   UNL     1      45.346   3.613   9.259  0.00  0.00    +0.000 A 
ATOM     18  C   UNL     1      45.863   4.508   8.309  0.00  0.00    +0.000 A 
ATOM     19  C   UNL     1      46.611   4.059   7.219  0.00  0.00    +0.000 A 
ATOM     20  C   UNL     1      46.843   2.692   7.046  0.00  0.00    +0.000 A 
ATOM     21 CL   UNL     1      47.833   2.205   5.717  0.00  0.00    +0.000 Cl
ATOM     22  C   UNL     1      46.299   1.776   7.950  0.00  0.00    +0.000 A 
ATOM     23 CL   UNL     1      46.554   0.073   7.821  0.00  0.00    +0.000 Cl
ATOM     24  C   UNL     1      45.554   2.239   9.037  0.00  0.00    +0.000 A 
ENDBRANCH  14  17
ENDBRANCH   1  14
TORSDOF 4
ENDMDL
MODEL 4
REMARK VINA RESULT:    -6.552      4.235      6.672
REMARK INTER + INTRA:          -8.813
REMARK INTER:                  -8.605
REMARK INTRA:                  -0.208
REMARK UNBOUND:                -0.728
REMARK  Name = 
REMARK  4 active torsions:
REMARK  status: ('A' for Active; 'I' for Inactive)
REMARK    1  A    between atoms: C_2  and  C_4
REMARK    2  A    between atoms: C_7  and  N_8
REMARK    3  A    between atoms: N_8  and  C_9
REMARK    4  A    between atoms: C_9  and  C_10
REMARK                            x       y       z     vdW  Elec       q    Type
REMARK                         _______ _______ _______ _____ _____    ______ ____
ROOT
ATOM      1  N   UNL     1      45.549   5.284  11.232  0.00  0.00    +0.000 N 
ATOM      2  H   UNL     1      46.155   5.793  10.590  0.00  0.00    +0.000 HD
ENDROOT
BRANCH   1   6
ATOM      3  C   UNL     1      47.413   4.726  14.982  0.00  0.00    +0.000 A 
ATOM      4  C   UNL     1      47.433   5.998  14.389  0.00  0.00    +0.000 A 
ATOM      5  C   UNL     1      46.848   6.203  13.133  0.00  0.00    +0.000 A 
ATOM      6  C   UNL     1      46.213   5.157  12.468  0.00  0.00    +0.000 A 
ATOM      7  C   UNL     1      46.180   3.893  13.079  0.00  0.00    +0.000 A 
ATOM      8  C   UNL     1      46.798   3.665  14.308  0.00  0.00    +0.000 A 
BRANCH   3  10
ATOM      9  N   UNL     1      48.215   3.150  16.651  0.00  0.00    +0.000 N 
ATOM     10  C   UNL     1      48.091   4.466  16.277  0.00  0.00    +0.000 C 
ATOM     11  O   UNL     1      48.537   5.367  16.968  0.00  0.00    +0.000 OA
ATOM     12  H   UNL     1      48.725   2.969  17.504  0.00  0.00    +0.000 HD
ATOM     13  H   UNL     1      48.077   2.390  16.004  0.00  0.00    +0.000 HD
ENDBRANCH   3  10
ENDBRANCH   1   6
BRANCH   1  14
ATOM     14  C   UNL     1      44.748   4.227  10.580  0.00  0.00    +0.000 C 
ATOM     15  C   UNL     1      43.254   4.517  10.618  0.00  0.00    +0.000 C 
ATOM     16  C   UNL     1      43.792   3.325  11.337  0.00  0.00    +0.000 C 
BRANCH  14  17
ATOM     17  C   UNL     1      45.372   3.691   9.300  0.00  0.00    +0.000 A 
ATOM     18  C   UNL     1      45.897   4.566   8.336  0.00  0.00    +0.000 A 
ATOM     19  C   UNL     1      46.618   4.092   7.239  0.00  0.00    +0.000 A 
ATOM     20  C   UNL     1      46.814   2.718   7.072  0.00  0.00    +0.000 A 
ATOM     21 CL   UNL     1      47.774   2.198   5.733  0.00  0.00    +0.000 Cl
ATOM     22  C   UNL     1      46.261   1.822   7.992  0.00  0.00    +0.000 A 
ATOM     23 CL   UNL     1      46.474   0.113   7.871  0.00  0.00    +0.000 Cl
ATOM     24  C   UNL     1      45.544   2.310   9.086  0.00  0.00    +0.000 A 
ENDBRANCH  14  17
ENDBRANCH   1  14
TORSDOF 4
ENDMDL
MODEL 5
REMARK VINA RESULT:    -6.065      2.703      4.454
REMARK INTER + INTRA:          -8.211
REMARK INTER:                  -7.899
REMARK INTRA:                  -0.313
REMARK UNBOUND:                -0.728
REMARK  Name = 
REMARK  4 active torsions:
REMARK  status: ('A' for Active; 'I' for Inactive)
REMARK    1  A    between atoms: C_2  and  C_4
REMARK    2  A    between atoms: C_7  and  N_8
REMARK    3  A    between atoms: N_8  and  C_9
REMARK    4  A    between atoms: C_9  and  C_10
REMARK                            x       y       z     vdW  Elec       q    Type
REMARK                         _______ _______ _______ _____ _____    ______ ____
ROOT
ATOM      1  N   UNL     1      46.243   6.198  13.541  0.00  0.00    +0.000 N 
ATOM      2  H   UNL     1      45.685   6.004  14.372  0.00  0.00    +0.000 HD
ENDROOT
BRANCH   1   6
ATOM      3  C   UNL     1      44.935   3.767  10.344  0.00  0.00    +0.000 A 
ATOM      4  C   UNL     1      45.062   3.206  11.623  0.00  0.00    +0.000 A 
ATOM      5  C   UNL     1      45.522   3.982  12.695  0.00  0.00    +0.000 A 
ATOM      6  C   UNL     1      45.831   5.328  12.512  0.00  0.00    +0.000 A 
ATOM      7  C   UNL     1      45.680   5.885  11.233  0.00  0.00    +0.000 A 
ATOM      8  C   UNL     1      45.267   5.112  10.149  0.00  0.00    +0.000 A 
BRANCH   3  10
ATOM      9  N   UNL     1      44.216   3.628   8.024  0.00  0.00    +0.000 N 
ATOM     10  C   UNL     1      44.522   2.946   9.177  0.00  0.00    +0.000 C 
ATOM     11  O   UNL     1      44.476   1.728   9.225  0.00  0.00    +0.000 OA
ATOM     12  H   UNL     1      43.988   3.069   7.215  0.00  0.00    +0.000 HD
ATOM     13  H   UNL     1      44.472   4.593   7.885  0.00  0.00    +0.000 HD
ENDBRANCH   3  10
ENDBRANCH   1   6
BRANCH   1  14
ATOM     14  C   UNL     1      47.643   6.565  13.839  0.00  0.00    +0.000 C 
ATOM     15  C   UNL     1      47.943   8.026  13.533  0.00  0.00    +0.000 C 
ATOM     16  C   UNL     1      48.645   6.953  12.768  0.00  0.00    +0.000 C 
BRANCH  14  17
ATOM     17  C   UNL     1      48.176   5.947  15.124  0.00  0.00    +0.000 A 
ATOM     18  C   UNL     1      49.184   6.585  15.863  0.00  0.00    +0.000 A 
ATOM     19  C   UNL     1      49.566   6.121  17.123  0.00  0.00    +0.000 A 
ATOM     20  C   UNL     1      48.955   4.988  17.666  0.00  0.00    +0.000 A 
ATOM     21 CL   UNL     1      49.423   4.505  19.257  0.00  0.00    +0.000 Cl
ATOM     22  C   UNL     1      47.982   4.306  16.930  0.00  0.00    +0.000 A 
ATOM     23 CL   UNL     1      47.163   2.911  17.535  0.00  0.00    +0.000 Cl
ATOM     24  C   UNL     1      47.608   4.782  15.672  0.00  0.00    +0.000 A 
ENDBRANCH  14  17
ENDBRANCH   1  14
TORSDOF 4
ENDMDL
MODEL 6
REMARK VINA RESULT:    -5.966      4.348      7.169
REMARK INTER + INTRA:          -8.090
REMARK INTER:                  -7.510
REMARK INTRA:                  -0.580
REMARK UNBOUND:                -0.728
REMARK  Name = 
REMARK  4 active torsions:
REMARK  status: ('A' for Active; 'I' for Inactive)
REMARK    1  A    between atoms: C_2  and  C_4
REMARK    2  A    between atoms: C_7  and  N_8
REMARK    3  A    between atoms: N_8  and  C_9
REMARK    4  A    between atoms: C_9  and  C_10
REMARK                            x       y       z     vdW  Elec       q    Type
REMARK                         _______ _______ _______ _____ _____    ______ ____
ROOT
ATOM      1  N   UNL     1      47.546   6.518  12.725  0.00  0.00    +0.000 N 
ATOM      2  H   UNL     1      48.122   5.984  12.077  0.00  0.00    +0.000 HD
ENDROOT
BRANCH   1   6
ATOM      3  C   UNL     1      48.051   4.976  16.625  0.00  0.00    +0.000 A 
ATOM      4  C   UNL     1      48.722   6.153  16.262  0.00  0.00    +0.000 A 
ATOM      5  C   UNL     1      48.595   6.670  14.966  0.00  0.00    +0.000 A 
ATOM      6  C   UNL     1      47.778   6.039  14.030  0.00  0.00    +0.000 A 
ATOM      7  C   UNL     1      47.096   4.873  14.409  0.00  0.00    +0.000 A 
ATOM      8  C   UNL     1      47.250   4.324  15.682  0.00  0.00    +0.000 A 
BRANCH   3  10
ATOM      9  N   UNL     1      47.426   4.852  18.973  0.00  0.00    +0.000 N 
ATOM     10  C   UNL     1      48.229   4.367  17.968  0.00  0.00    +0.000 C 
ATOM     11  O   UNL     1      49.029   3.469  18.173  0.00  0.00    +0.000 OA
ATOM     12  H   UNL     1      47.507   4.401  19.873  0.00  0.00    +0.000 HD
ATOM     13  H   UNL     1      46.607   5.409  18.786  0.00  0.00    +0.000 HD
ENDBRANCH   3  10
ENDBRANCH   1   6
BRANCH   1  14
ATOM     14  C   UNL     1      46.226   6.892  12.176  0.00  0.00    +0.000 C 
ATOM     15  C   UNL     1      46.157   8.356  11.764  0.00  0.00    +0.000 C 
ATOM     16  C   UNL     1      45.283   7.860  12.868  0.00  0.00    +0.000 C 
BRANCH  14  17
ATOM     17  C   UNL     1      45.620   5.832  11.268  0.00  0.00    +0.000 A 
ATOM     18  C   UNL     1      46.005   5.735   9.921  0.00  0.00    +0.000 A 
ATOM     19  C   UNL     1      45.587   4.671   9.121  0.00  0.00    +0.000 A 
ATOM     20  C   UNL     1      44.752   3.683   9.650  0.00  0.00    +0.000 A 
ATOM     21 CL   UNL     1      44.327   2.356   8.629  0.00  0.00    +0.000 Cl
ATOM     22  C   UNL     1      44.316   3.781  10.974  0.00  0.00    +0.000 A 
ATOM     23 CL   UNL     1      43.302   2.594  11.712  0.00  0.00    +0.000 Cl
ATOM     24  C   UNL     1      44.743   4.850  11.765  0.00  0.00    +0.000 A 
ENDBRANCH  14  17
ENDBRANCH   1  14
TORSDOF 4
ENDMDL
MODEL 7
REMARK VINA RESULT:    -5.782      3.213      5.024
REMARK INTER + INTRA:          -7.863
REMARK INTER:                  -7.175
REMARK INTRA:                  -0.688
REMARK UNBOUND:                -0.728
REMARK  Name = 
REMARK  4 active torsions:
REMARK  status: ('A' for Active; 'I' for Inactive)
REMARK    1  A    between atoms: C_2  and  C_4
REMARK    2  A    between atoms: C_7  and  N_8
REMARK    3  A    between atoms: N_8  and  C_9
REMARK    4  A    between atoms: C_9  and  C_10
REMARK                            x       y       z     vdW  Elec       q    Type
REMARK                         _______ _______ _______ _____ _____    ______ ____
ROOT
ATOM      1  N   UNL     1      46.576   7.701  12.742  0.00  0.00    +0.000 N 
ATOM      2  H   UNL     1      46.000   8.113  13.474  0.00  0.00    +0.000 HD
ENDROOT
BRANCH   1   6
ATOM      3  C   UNL     1      44.687   4.151  11.447  0.00  0.00    +0.000 A 
ATOM      4  C   UNL     1      45.017   5.135  10.503  0.00  0.00    +0.000 A 
ATOM      5  C   UNL     1      45.617   6.334  10.909  0.00  0.00    +0.000 A 
ATOM      6  C   UNL     1      45.922   6.553  12.251  0.00  0.00    +0.000 A 
ATOM      7  C   UNL     1      45.606   5.554  13.184  0.00  0.00    +0.000 A 
ATOM      8  C   UNL     1      44.968   4.376  12.799  0.00  0.00    +0.000 A 
BRANCH   3  10
ATOM      9  N   UNL     1      44.514   2.210   9.990  0.00  0.00    +0.000 N 
ATOM     10  C   UNL     1      43.983   2.905  11.051  0.00  0.00    +0.000 C 
ATOM     11  O   UNL     1      42.997   2.500  11.645  0.00  0.00    +0.000 OA
ATOM     12  H   UNL     1      44.068   1.335   9.755  0.00  0.00    +0.000 HD
ATOM     13  H   UNL     1      45.443   2.385   9.643  0.00  0.00    +0.000 HD
ENDBRANCH   3  10
ENDBRANCH   1   6
BRANCH   1  14
ATOM     14  C   UNL     1      48.028   7.813  12.995  0.00  0.00    +0.000 C 
ATOM     15  C   UNL     1      48.712   8.796  12.054  0.00  0.00    +0.000 C 
ATOM     16  C   UNL     1      49.081   7.350  12.005  0.00  0.00    +0.000 C 
BRANCH  14  17
ATOM     17  C   UNL     1      48.391   7.818  14.473  0.00  0.00    +0.000 A 
ATOM     18  C   UNL     1      48.151   8.951  15.267  0.00  0.00    +0.000 A 
ATOM     19  C   UNL     1      48.323   8.917  16.651  0.00  0.00    +0.000 A 
ATOM     20  C   UNL     1      48.760   7.744  17.274  0.00  0.00    +0.000 A 
ATOM     21 CL   UNL     1      48.886   7.746  18.997  0.00  0.00    +0.000 Cl
ATOM     22  C   UNL     1      49.052   6.618  16.501  0.00  0.00    +0.000 A 
ATOM     23 CL   UNL     1      49.577   5.124  17.192  0.00  0.00    +0.000 Cl
ATOM     24  C   UNL     1      48.874   6.664  15.117  0.00  0.00    +0.000 A 
ENDBRANCH  14  17
ENDBRANCH   1  14
TORSDOF 4
ENDMDL
MODEL 8
REMARK VINA RESULT:    -5.613      4.103      6.095
REMARK INTER + INTRA:          -7.654
REMARK INTER:                  -7.367
REMARK INTRA:                  -0.287
REMARK UNBOUND:                -0.728
REMARK  Name = 
REMARK  4 active torsions:
REMARK  status: ('A' for Active; 'I' for Inactive)
REMARK    1  A    between atoms: C_2  and  C_4
REMARK    2  A    between atoms: C_7  and  N_8
REMARK    3  A    between atoms: N_8  and  C_9
REMARK    4  A    between atoms: C_9  and  C_10
REMARK                            x       y       z     vdW  Elec       q    Type
REMARK                         _______ _______ _______ _____ _____    ______ ____
ROOT
ATOM      1  N   UNL     1      45.078   5.688  12.586  0.00  0.00    +0.000 N 
ATOM      2  H   UNL     1      44.720   5.754  13.538  0.00  0.00    +0.000 HD
ENDROOT
BRANCH   1   6
ATOM      3  C   UNL     1      48.029   8.667  12.073  0.00  0.00    +0.000 A 
ATOM      4  C   UNL     1      46.680   9.045  12.148  0.00  0.00    +0.000 A 
ATOM      5  C   UNL     1      45.679   8.075  12.288  0.00  0.00    +0.000 A 
ATOM      6  C   UNL     1      46.011   6.725  12.385  0.00  0.00    +0.000 A 
ATOM      7  C   UNL     1      47.364   6.359  12.330  0.00  0.00    +0.000 A 
ATOM      8  C   UNL     1      48.366   7.311  12.144  0.00  0.00    +0.000 A 
BRANCH   3  10
ATOM      9  N   UNL     1      48.805  10.703  10.992  0.00  0.00    +0.000 N 
ATOM     10  C   UNL     1      49.101   9.670  11.848  0.00  0.00    +0.000 C 
ATOM     11  O   UNL     1      50.183   9.600  12.408  0.00  0.00    +0.000 OA
ATOM     12  H   UNL     1      49.513  11.415  10.881  0.00  0.00    +0.000 HD
ATOM     13  H   UNL     1      47.862  10.916  10.710  0.00  0.00    +0.000 HD
ENDBRANCH   3  10
ENDBRANCH   1   6
BRANCH   1  14
ATOM     14  C   UNL     1      44.068   5.245  11.602  0.00  0.00    +0.000 C 
ATOM     15  C   UNL     1      42.884   6.199  11.510  0.00  0.00    +0.000 C 
ATOM     16  C   UNL     1      42.670   4.802  11.991  0.00  0.00    +0.000 C 
BRANCH  14  17
ATOM     17  C   UNL     1      44.669   4.675  10.326  0.00  0.00    +0.000 A 
ATOM     18  C   UNL     1      45.465   5.473   9.488  0.00  0.00    +0.000 A 
ATOM     19  C   UNL     1      46.156   4.926   8.407  0.00  0.00    +0.000 A 
ATOM     20  C   UNL     1      46.050   3.561   8.126  0.00  0.00    +0.000 A 
ATOM     21 CL   UNL     1      46.985   2.932   6.817  0.00  0.00    +0.000 Cl
ATOM     22  C   UNL     1      45.227   2.754   8.916  0.00  0.00    +0.000 A 
ATOM     23 CL   UNL     1      45.056   1.056   8.651  0.00  0.00    +0.000 Cl
ATOM     24  C   UNL     1      44.541   3.313   9.996  0.00  0.00    +0.000 A 
ENDBRANCH  14  17
ENDBRANCH   1  14
TORSDOF 4
ENDMDL
