MODEL 1
REMARK VINA RESULT:    -8.173      0.000      0.000
REMARK INTER + INTRA:         -12.150
REMARK INTER:                 -11.040
REMARK INTRA:                  -1.110
REMARK UNBOUND:                -1.110
REMARK  Name = 
REMARK  6 active torsions:
REMARK  status: ('A' for Active; 'I' for Inactive)
REMARK    1  A    between atoms: C_2  and  C_25
REMARK    2  A    between atoms: N_3  and  C_4
REMARK    3  A    between atoms: C_4  and  C_5
REMARK    4  A    between atoms: C_8  and  C_9
REMARK    5  A    between atoms: C_9  and  N_10
REMARK    6  A    between atoms: C_11  and  C_13
REMARK                            x       y       z     vdW  Elec       q    Type
REMARK                         _______ _______ _______ _____ _____    ______ ____
ROOT
ATOM      1  C   UNL     1      44.832   5.725  10.840  0.00  0.00    +0.000 A 
ATOM      2  C   UNL     1      46.185   5.985  10.588  0.00  0.00    +0.000 A 
ATOM      3  C   UNL     1      46.929   6.797  11.453  0.00  0.00    +0.000 A 
ATOM      4  C   UNL     1      46.339   7.347  12.598  0.00  0.00    +0.000 A 
ATOM      5  C   UNL     1      44.984   7.092  12.845  0.00  0.00    +0.000 A 
ATOM      6  C   UNL     1      44.241   6.278  11.982  0.00  0.00    +0.000 A 
ENDROOT
BRANCH   1   7
ATOM      7  C   UNL     1      44.040   4.831   9.920  0.00  0.00    +0.000 C 
BRANCH   7  10
ATOM      8  O   UNL     1      44.999   2.213   9.679  0.00  0.00    +0.000 OA
ATOM      9  C   UNL     1      45.291   3.029   8.810  0.00  0.00    +0.000 C 
ATOM     10  N   UNL     1      44.862   4.336   8.848  0.00  0.00    +0.000 N 
ATOM     11  H   UNL     1      45.025   4.932   8.052  0.00  0.00    +0.000 HD
BRANCH   9  12
ATOM     12  C   UNL     1      46.102   2.686   7.660  0.00  0.00    +0.000 A 
ATOM     13  C   UNL     1      46.313   3.330   6.452  0.00  0.00    +0.000 A 
ATOM     14  C   UNL     1      47.224   2.560   5.689  0.00  0.00    +0.000 A 
ATOM     15  C   UNL     1      47.556   1.459   6.443  0.00  0.00    +0.000 A 
ATOM     16  N   UNL     1      46.877   1.543   7.629  0.00  0.00    +0.000 N 
ATOM     17  H   UNL     1      46.926   0.876   8.390  0.00  0.00    +0.000 HD
ENDBRANCH   9  12
ENDBRANCH   7  10
ENDBRANCH   1   7
BRANCH   4  18
ATOM     18  C   UNL     1      47.133   8.225  13.533  0.00  0.00    +0.000 C 
BRANCH  18  19
ATOM     19  N   UNL     1      47.560   7.499  14.703  0.00  0.00    +0.000 N 
ATOM     20  C   UNL     1      48.781   6.875  14.744  0.00  0.00    +0.000 C 
ATOM     21  O   UNL     1      49.577   6.943  13.811  0.00  0.00    +0.000 OA
ATOM     22  H   UNL     1      46.843   7.238  15.372  0.00  0.00    +0.000 HD
BRANCH  20  23
ATOM     23  C   UNL     1      49.120   6.170  15.987  0.00  0.00    +0.000 A 
ATOM     24  C   UNL     1      50.204   6.594  16.746  0.00  0.00    +0.000 A 
ATOM     25  S   UNL     1      50.424   5.705  18.184  0.00  0.00    +0.000 S 
ATOM     26  C   UNL     1      49.112   4.685  17.818  0.00  0.00    +0.000 A 
ATOM     27  N   UNL     1      48.766   3.665  18.649  0.00  0.00    +0.000 NA
ATOM     28  C   UNL     1      47.774   2.951  18.231  0.00  0.00    +0.000 A 
ATOM     29  N   UNL     1      47.092   3.169  17.063  0.00  0.00    +0.000 N 
ATOM     30  C   UNL     1      47.387   4.204  16.208  0.00  0.00    +0.000 A 
ATOM     31  O   UNL     1      46.732   4.394  15.188  0.00  0.00    +0.000 OA
ATOM     32  C   UNL     1      48.503   5.030  16.623  0.00  0.00    +0.000 A 
ATOM     33  H   UNL     1      46.319   2.577  16.797  0.00  0.00    +0.000 HD
ENDBRANCH  20  23
ENDBRANCH  18  19
ENDBRANCH   4  18
TORSDOF 6
ENDMDL
MODEL 2
REMARK VINA RESULT:    -7.062      1.769      2.331
REMARK INTER + INTRA:         -10.649
REMARK INTER:                  -9.852
REMARK INTRA:                  -0.797
REMARK UNBOUND:                -1.110
REMARK  Name = 
REMARK  6 active torsions:
REMARK  status: ('A' for Active; 'I' for Inactive)
REMARK    1  A    between atoms: C_2  and  C_25
REMARK    2  A    between atoms: N_3  and  C_4
REMARK    3  A    between atoms: C_4  and  C_5
REMARK    4  A    between atoms: C_8  and  C_9
REMARK    5  A    between atoms: C_9  and  N_10
REMARK    6  A    between atoms: C_11  and  C_13
REMARK                            x       y       z     vdW  Elec       q    Type
REMARK                         _______ _______ _______ _____ _____    ______ ____
ROOT
ATOM      1  C   UNL     1      45.101   5.420  11.095  0.00  0.00    +0.000 A 
ATOM      2  C   UNL     1      45.819   6.582  10.780  0.00  0.00    +0.000 A 
ATOM      3  C   UNL     1      46.674   7.170  11.719  0.00  0.00    +0.000 A 
ATOM      4  C   UNL     1      46.845   6.595  12.985  0.00  0.00    +0.000 A 
ATOM      5  C   UNL     1      46.122   5.437  13.302  0.00  0.00    +0.000 A 
ATOM      6  C   UNL     1      45.268   4.849  12.362  0.00  0.00    +0.000 A 
ENDROOT
BRANCH   1   7
ATOM      7  C   UNL     1      44.199   4.776  10.073  0.00  0.00    +0.000 C 
BRANCH   7  10
ATOM      8  O   UNL     1      45.184   2.175   9.763  0.00  0.00    +0.000 OA
ATOM      9  C   UNL     1      45.403   2.997   8.878  0.00  0.00    +0.000 C 
ATOM     10  N   UNL     1      44.956   4.296   8.947  0.00  0.00    +0.000 N 
ATOM     11  H   UNL     1      45.055   4.896   8.144  0.00  0.00    +0.000 HD
BRANCH   9  12
ATOM     12  C   UNL     1      46.141   2.669   7.676  0.00  0.00    +0.000 A 
ATOM     13  C   UNL     1      46.342   3.365   6.495  0.00  0.00    +0.000 A 
ATOM     14  C   UNL     1      47.168   2.583   5.652  0.00  0.00    +0.000 A 
ATOM     15  C   UNL     1      47.459   1.423   6.330  0.00  0.00    +0.000 A 
ATOM     16  N   UNL     1      46.838   1.483   7.549  0.00  0.00    +0.000 N 
ATOM     17  H   UNL     1      46.876   0.773   8.270  0.00  0.00    +0.000 HD
ENDBRANCH   9  12
ENDBRANCH   7  10
ENDBRANCH   1   7
BRANCH   4  18
ATOM     18  C   UNL     1      47.762   7.223  14.004  0.00  0.00    +0.000 C 
BRANCH  18  19
ATOM     19  N   UNL     1      47.812   6.448  15.218  0.00  0.00    +0.000 N 
ATOM     20  C   UNL     1      49.007   6.160  15.828  0.00  0.00    +0.000 C 
ATOM     21  O   UNL     1      50.076   6.583  15.395  0.00  0.00    +0.000 OA
ATOM     22  H   UNL     1      46.988   5.905  15.454  0.00  0.00    +0.000 HD
BRANCH  20  23
ATOM     23  C   UNL     1      48.943   5.370  17.065  0.00  0.00    +0.000 A 
ATOM     24  C   UNL     1      48.503   4.054  17.020  0.00  0.00    +0.000 A 
ATOM     25  S   UNL     1      48.545   3.266  18.532  0.00  0.00    +0.000 S 
ATOM     26  C   UNL     1      49.100   4.673  19.311  0.00  0.00    +0.000 A 
ATOM     27  N   UNL     1      49.321   4.687  20.653  0.00  0.00    +0.000 NA
ATOM     28  C   UNL     1      49.708   5.829  21.117  0.00  0.00    +0.000 A 
ATOM     29  N   UNL     1      49.899   6.956  20.359  0.00  0.00    +0.000 N 
ATOM     30  C   UNL     1      49.715   6.980  18.998  0.00  0.00    +0.000 A 
ATOM     31  O   UNL     1      49.931   7.994  18.343  0.00  0.00    +0.000 OA
ATOM     32  C   UNL     1      49.268   5.724  18.427  0.00  0.00    +0.000 A 
ATOM     33  H   UNL     1      50.209   7.817  20.783  0.00  0.00    +0.000 HD
ENDBRANCH  20  23
ENDBRANCH  18  19
ENDBRANCH   4  18
TORSDOF 6
ENDMDL
MODEL 3
REMARK VINA RESULT:    -7.001      2.629      2.888
REMARK INTER + INTRA:         -10.567
REMARK INTER:                  -9.607
REMARK INTRA:                  -0.960
REMARK UNBOUND:                -1.110
REMARK  Name = 
REMARK  6 active torsions:
REMARK  status: ('A' for Active; 'I' for Inactive)
REMARK    1  A    between atoms: C_2  and  C_25
REMARK    2  A    between atoms: N_3  and  C_4
REMARK    3  A    between atoms: C_4  and  C_5
REMARK    4  A    between atoms: C_8  and  C_9
REMARK    5  A    between atoms: C_9  and  N_10
REMARK    6  A    between atoms: C_11  and  C_13
REMARK                            x       y       z     vdW  Elec       q    Type
REMARK                         _______ _______ _______ _____ _____    ______ ____
ROOT
ATOM      1  C   UNL     1      45.272   4.887  12.160  0.00  0.00    +0.000 A 
ATOM      2  C   UNL     1      44.902   6.193  11.812  0.00  0.00    +0.000 A 
ATOM      3  C   UNL     1      45.642   7.290  12.268  0.00  0.00    +0.000 A 
ATOM      4  C   UNL     1      46.781   7.102  13.062  0.00  0.00    +0.000 A 
ATOM      5  C   UNL     1      47.147   5.796  13.414  0.00  0.00    +0.000 A 
ATOM      6  C   UNL     1      46.408   4.699  12.957  0.00  0.00    +0.000 A 
ENDROOT
BRANCH   1   7
ATOM      7  C   UNL     1      44.487   3.706  11.648  0.00  0.00    +0.000 C 
BRANCH   7  10
ATOM      8  O   UNL     1      44.231   4.277   8.920  0.00  0.00    +0.000 OA
ATOM      9  C   UNL     1      45.002   3.387   9.265  0.00  0.00    +0.000 C 
ATOM     10  N   UNL     1      45.191   3.041  10.583  0.00  0.00    +0.000 N 
ATOM     11  H   UNL     1      45.923   2.391  10.823  0.00  0.00    +0.000 HD
BRANCH   9  12
ATOM     12  C   UNL     1      45.792   2.630   8.316  0.00  0.00    +0.000 A 
ATOM     13  C   UNL     1      46.477   3.010   7.173  0.00  0.00    +0.000 A 
ATOM     14  C   UNL     1      47.103   1.863   6.627  0.00  0.00    +0.000 A 
ATOM     15  C   UNL     1      46.792   0.803   7.445  0.00  0.00    +0.000 A 
ATOM     16  N   UNL     1      46.004   1.273   8.461  0.00  0.00    +0.000 N 
ATOM     17  H   UNL     1      45.623   0.723   9.221  0.00  0.00    +0.000 HD
ENDBRANCH   9  12
ENDBRANCH   7  10
ENDBRANCH   1   7
BRANCH   4  18
ATOM     18  C   UNL     1      47.583   8.278  13.559  0.00  0.00    +0.000 C 
BRANCH  18  19
ATOM     19  N   UNL     1      47.528   8.386  14.995  0.00  0.00    +0.000 N 
ATOM     20  C   UNL     1      48.278   9.318  15.666  0.00  0.00    +0.000 C 
ATOM     21  O   UNL     1      48.991  10.125  15.076  0.00  0.00    +0.000 OA
ATOM     22  H   UNL     1      47.141   7.597  15.503  0.00  0.00    +0.000 HD
BRANCH  20  23
ATOM     23  C   UNL     1      48.140   9.347  17.128  0.00  0.00    +0.000 A 
ATOM     24  C   UNL     1      47.903  10.554  17.774  0.00  0.00    +0.000 A 
ATOM     25  S   UNL     1      47.714  10.402  19.462  0.00  0.00    +0.000 S 
ATOM     26  C   UNL     1      47.996   8.725  19.398  0.00  0.00    +0.000 A 
ATOM     27  N   UNL     1      48.000   7.973  20.530  0.00  0.00    +0.000 NA
ATOM     28  C   UNL     1      48.261   6.722  20.339  0.00  0.00    +0.000 A 
ATOM     29  N   UNL     1      48.513   6.155  19.117  0.00  0.00    +0.000 N 
ATOM     30  C   UNL     1      48.492   6.870  17.943  0.00  0.00    +0.000 A 
ATOM     31  O   UNL     1      48.684   6.325  16.862  0.00  0.00    +0.000 OA
ATOM     32  C   UNL     1      48.215   8.285  18.103  0.00  0.00    +0.000 A 
ATOM     33  H   UNL     1      48.705   5.168  19.035  0.00  0.00    +0.000 HD
ENDBRANCH  20  23
ENDBRANCH  18  19
ENDBRANCH   4  18
TORSDOF 6
ENDMDL
MODEL 4
REMARK VINA RESULT:    -6.933      4.027      5.118
REMARK INTER + INTRA:         -10.475
REMARK INTER:                  -9.706
REMARK INTRA:                  -0.769
REMARK UNBOUND:                -1.110
REMARK  Name = 
REMARK  6 active torsions:
REMARK  status: ('A' for Active; 'I' for Inactive)
REMARK    1  A    between atoms: C_2  and  C_25
REMARK    2  A    between atoms: N_3  and  C_4
REMARK    3  A    between atoms: C_4  and  C_5
REMARK    4  A    between atoms: C_8  and  C_9
REMARK    5  A    between atoms: C_9  and  N_10
REMARK    6  A    between atoms: C_11  and  C_13
REMARK                            x       y       z     vdW  Elec       q    Type
REMARK                         _______ _______ _______ _____ _____    ______ ____
ROOT
ATOM      1  C   UNL     1      44.309   4.480  11.599  0.00  0.00    +0.000 A 
ATOM      2  C   UNL     1      43.493   5.593  11.356  0.00  0.00    +0.000 A 
ATOM      3  C   UNL     1      43.882   6.870  11.780  0.00  0.00    +0.000 A 
ATOM      4  C   UNL     1      45.104   7.061  12.436  0.00  0.00    +0.000 A 
ATOM      5  C   UNL     1      45.917   5.947  12.684  0.00  0.00    +0.000 A 
ATOM      6  C   UNL     1      45.529   4.671  12.259  0.00  0.00    +0.000 A 
ENDROOT
BRANCH   1   7
ATOM      7  C   UNL     1      43.899   3.111  11.121  0.00  0.00    +0.000 C 
BRANCH   7  10
ATOM      8  O   UNL     1      44.334   4.005   8.505  0.00  0.00    +0.000 OA
ATOM      9  C   UNL     1      45.014   3.075   8.931  0.00  0.00    +0.000 C 
ATOM     10  N   UNL     1      44.868   2.573  10.203  0.00  0.00    +0.000 N 
ATOM     11  H   UNL     1      45.530   1.895  10.545  0.00  0.00    +0.000 HD
BRANCH   9  12
ATOM     12  C   UNL     1      46.039   2.433   8.134  0.00  0.00    +0.000 A 
ATOM     13  C   UNL     1      46.417   1.106   8.010  0.00  0.00    +0.000 A 
ATOM     14  C   UNL     1      47.474   1.030   7.071  0.00  0.00    +0.000 A 
ATOM     15  C   UNL     1      47.724   2.310   6.636  0.00  0.00    +0.000 A 
ATOM     16  N   UNL     1      46.855   3.149   7.280  0.00  0.00    +0.000 N 
ATOM     17  H   UNL     1      46.798   4.153   7.159  0.00  0.00    +0.000 HD
ENDBRANCH   9  12
ENDBRANCH   7  10
ENDBRANCH   1   7
BRANCH   4  18
ATOM     18  C   UNL     1      45.530   8.433  12.897  0.00  0.00    +0.000 C 
BRANCH  18  19
ATOM     19  N   UNL     1      46.678   8.904  12.164  0.00  0.00    +0.000 N 
ATOM     20  C   UNL     1      47.780   9.398  12.814  0.00  0.00    +0.000 C 
ATOM     21  O   UNL     1      47.856   9.421  14.040  0.00  0.00    +0.000 OA
ATOM     22  H   UNL     1      46.545   9.109  11.180  0.00  0.00    +0.000 HD
BRANCH  20  23
ATOM     23  C   UNL     1      48.898   9.843  11.972  0.00  0.00    +0.000 A 
ATOM     24  C   UNL     1      48.928  11.149  11.500  0.00  0.00    +0.000 A 
ATOM     25  S   UNL     1      50.320  11.516  10.586  0.00  0.00    +0.000 S 
ATOM     26  C   UNL     1      50.908   9.927  10.742  0.00  0.00    +0.000 A 
ATOM     27  N   UNL     1      52.078   9.554  10.158  0.00  0.00    +0.000 NA
ATOM     28  C   UNL     1      52.386   8.311  10.329  0.00  0.00    +0.000 A 
ATOM     29  N   UNL     1      51.634   7.410  11.036  0.00  0.00    +0.000 N 
ATOM     30  C   UNL     1      50.461   7.749  11.667  0.00  0.00    +0.000 A 
ATOM     31  O   UNL     1      49.831   6.927  12.324  0.00  0.00    +0.000 OA
ATOM     32  C   UNL     1      50.062   9.132  11.496  0.00  0.00    +0.000 A 
ATOM     33  H   UNL     1      51.935   6.452  11.138  0.00  0.00    +0.000 HD
ENDBRANCH  20  23
ENDBRANCH  18  19
ENDBRANCH   4  18
TORSDOF 6
ENDMDL
MODEL 5
REMARK VINA RESULT:    -6.862      2.121      2.652
REMARK INTER + INTRA:         -10.380
REMARK INTER:                  -9.554
REMARK INTRA:                  -0.825
REMARK UNBOUND:                -1.110
REMARK  Name = 
REMARK  6 active torsions:
REMARK  status: ('A' for Active; 'I' for Inactive)
REMARK    1  A    between atoms: C_2  and  C_25
REMARK    2  A    between atoms: N_3  and  C_4
REMARK    3  A    between atoms: C_4  and  C_5
REMARK    4  A    between atoms: C_8  and  C_9
REMARK    5  A    between atoms: C_9  and  N_10
REMARK    6  A    between atoms: C_11  and  C_13
REMARK                            x       y       z     vdW  Elec       q    Type
REMARK                         _______ _______ _______ _____ _____    ______ ____
ROOT
ATOM      1  C   UNL     1      44.828   4.768  11.739  0.00  0.00    +0.000 A 
ATOM      2  C   UNL     1      44.534   6.060  11.281  0.00  0.00    +0.000 A 
ATOM      3  C   UNL     1      45.200   7.173  11.808  0.00  0.00    +0.000 A 
ATOM      4  C   UNL     1      46.189   7.014  12.787  0.00  0.00    +0.000 A 
ATOM      5  C   UNL     1      46.477   5.723  13.249  0.00  0.00    +0.000 A 
ATOM      6  C   UNL     1      45.813   4.611  12.722  0.00  0.00    +0.000 A 
ENDROOT
BRANCH   1   7
ATOM      7  C   UNL     1      44.126   3.570  11.154  0.00  0.00    +0.000 C 
BRANCH   7  10
ATOM      8  O   UNL     1      44.383   4.149   8.428  0.00  0.00    +0.000 OA
ATOM      9  C   UNL     1      45.043   3.227   8.898  0.00  0.00    +0.000 C 
ATOM     10  N   UNL     1      44.980   2.874  10.227  0.00  0.00    +0.000 N 
ATOM     11  H   UNL     1      45.630   2.194  10.588  0.00  0.00    +0.000 HD
BRANCH   9  12
ATOM     12  C   UNL     1      45.957   2.437   8.100  0.00  0.00    +0.000 A 
ATOM     13  C   UNL     1      46.253   1.083   8.101  0.00  0.00    +0.000 A 
ATOM     14  C   UNL     1      47.215   0.837   7.091  0.00  0.00    +0.000 A 
ATOM     15  C   UNL     1      47.490   2.042   6.490  0.00  0.00    +0.000 A 
ATOM     16  N   UNL     1      46.728   3.000   7.101  0.00  0.00    +0.000 N 
ATOM     17  H   UNL     1      46.713   3.986   6.868  0.00  0.00    +0.000 HD
ENDBRANCH   9  12
ENDBRANCH   7  10
ENDBRANCH   1   7
BRANCH   4  18
ATOM     18  C   UNL     1      46.909   8.208  13.361  0.00  0.00    +0.000 C 
BRANCH  18  19
ATOM     19  N   UNL     1      48.260   7.878  13.741  0.00  0.00    +0.000 N 
ATOM     20  C   UNL     1      48.765   8.247  14.961  0.00  0.00    +0.000 C 
ATOM     21  O   UNL     1      48.081   8.833  15.797  0.00  0.00    +0.000 OA
ATOM     22  H   UNL     1      48.897   7.613  12.996  0.00  0.00    +0.000 HD
BRANCH  20  23
ATOM     23  C   UNL     1      50.150   7.852  15.249  0.00  0.00    +0.000 A 
ATOM     24  C   UNL     1      51.200   8.536  14.649  0.00  0.00    +0.000 A 
ATOM     25  S   UNL     1      52.741   7.988  15.135  0.00  0.00    +0.000 S 
ATOM     26  C   UNL     1      52.060   6.781  16.122  0.00  0.00    +0.000 A 
ATOM     27  N   UNL     1      52.849   5.921  16.820  0.00  0.00    +0.000 NA
ATOM     28  C   UNL     1      52.201   5.035  17.500  0.00  0.00    +0.000 A 
ATOM     29  N   UNL     1      50.835   4.935  17.551  0.00  0.00    +0.000 N 
ATOM     30  C   UNL     1      49.998   5.798  16.886  0.00  0.00    +0.000 A 
ATOM     31  O   UNL     1      48.779   5.705  16.983  0.00  0.00    +0.000 OA
ATOM     32  C   UNL     1      50.676   6.807  16.095  0.00  0.00    +0.000 A 
ATOM     33  H   UNL     1      50.389   4.221  18.108  0.00  0.00    +0.000 HD
ENDBRANCH  20  23
ENDBRANCH  18  19
ENDBRANCH   4  18
TORSDOF 6
ENDMDL
MODEL 6
REMARK VINA RESULT:    -6.826      3.012      3.662
REMARK INTER + INTRA:         -10.331
REMARK INTER:                  -9.640
REMARK INTRA:                  -0.691
REMARK UNBOUND:                -1.110
REMARK  Name = 
REMARK  6 active torsions:
REMARK  status: ('A' for Active; 'I' for Inactive)
REMARK    1  A    between atoms: C_2  and  C_25
REMARK    2  A    between atoms: N_3  and  C_4
REMARK    3  A    between atoms: C_4  and  C_5
REMARK    4  A    between atoms: C_8  and  C_9
REMARK    5  A    between atoms: C_9  and  N_10
REMARK    6  A    between atoms: C_11  and  C_13
REMARK                            x       y       z     vdW  Elec       q    Type
REMARK                         _______ _______ _______ _____ _____    ______ ____
ROOT
ATOM      1  C   UNL     1      44.577   4.604  11.668  0.00  0.00    +0.000 A 
ATOM      2  C   UNL     1      44.023   5.814  11.227  0.00  0.00    +0.000 A 
ATOM      3  C   UNL     1      44.488   7.036  11.727  0.00  0.00    +0.000 A 
ATOM      4  C   UNL     1      45.531   7.074  12.662  0.00  0.00    +0.000 A 
ATOM      5  C   UNL     1      46.079   5.864  13.107  0.00  0.00    +0.000 A 
ATOM      6  C   UNL     1      45.616   4.642  12.606  0.00  0.00    +0.000 A 
ENDROOT
BRANCH   1   7
ATOM      7  C   UNL     1      44.091   3.291  11.111  0.00  0.00    +0.000 C 
BRANCH   7  10
ATOM      8  O   UNL     1      44.208   4.054   8.420  0.00  0.00    +0.000 OA
ATOM      9  C   UNL     1      44.997   3.207   8.827  0.00  0.00    +0.000 C 
ATOM     10  N   UNL     1      45.012   2.774  10.132  0.00  0.00    +0.000 N 
ATOM     11  H   UNL     1      45.755   2.170  10.444  0.00  0.00    +0.000 HD
BRANCH   9  12
ATOM     12  C   UNL     1      45.993   2.597   7.970  0.00  0.00    +0.000 A 
ATOM     13  C   UNL     1      46.792   3.117   6.965  0.00  0.00    +0.000 A 
ATOM     14  C   UNL     1      47.610   2.076   6.462  0.00  0.00    +0.000 A 
ATOM     15  C   UNL     1      47.299   0.938   7.168  0.00  0.00    +0.000 A 
ATOM     16  N   UNL     1      46.326   1.260   8.076  0.00  0.00    +0.000 N 
ATOM     17  H   UNL     1      45.900   0.625   8.740  0.00  0.00    +0.000 HD
ENDBRANCH   9  12
ENDBRANCH   7  10
ENDBRANCH   1   7
BRANCH   4  18
ATOM     18  C   UNL     1      46.036   8.386  13.207  0.00  0.00    +0.000 C 
BRANCH  18  19
ATOM     19  N   UNL     1      47.197   8.200  14.039  0.00  0.00    +0.000 N 
ATOM     20  C   UNL     1      48.218   9.116  14.047  0.00  0.00    +0.000 C 
ATOM     21  O   UNL     1      48.170  10.149  13.385  0.00  0.00    +0.000 OA
ATOM     22  H   UNL     1      47.361   7.266  14.401  0.00  0.00    +0.000 HD
BRANCH  20  23
ATOM     23  C   UNL     1      49.351   8.833  14.939  0.00  0.00    +0.000 A 
ATOM     24  C   UNL     1      49.175   8.883  16.315  0.00  0.00    +0.000 A 
ATOM     25  S   UNL     1      50.573   8.473  17.202  0.00  0.00    +0.000 S 
ATOM     26  C   UNL     1      51.481   8.267  15.778  0.00  0.00    +0.000 A 
ATOM     27  N   UNL     1      52.797   7.929  15.831  0.00  0.00    +0.000 NA
ATOM     28  C   UNL     1      53.371   7.840  14.677  0.00  0.00    +0.000 A 
ATOM     29  N   UNL     1      52.747   8.050  13.475  0.00  0.00    +0.000 N 
ATOM     30  C   UNL     1      51.413   8.365  13.372  0.00  0.00    +0.000 A 
ATOM     31  O   UNL     1      50.875   8.510  12.279  0.00  0.00    +0.000 OA
ATOM     32  C   UNL     1      50.723   8.490  14.641  0.00  0.00    +0.000 A 
ATOM     33  H   UNL     1      53.252   7.958  12.607  0.00  0.00    +0.000 HD
ENDBRANCH  20  23
ENDBRANCH  18  19
ENDBRANCH   4  18
TORSDOF 6
ENDMDL
MODEL 7
REMARK VINA RESULT:    -6.813      3.714      8.303
REMARK INTER + INTRA:         -10.313
REMARK INTER:                  -9.319
REMARK INTRA:                  -0.993
REMARK UNBOUND:                -1.110
REMARK  Name = 
REMARK  6 active torsions:
REMARK  status: ('A' for Active; 'I' for Inactive)
REMARK    1  A    between atoms: C_2  and  C_25
REMARK    2  A    between atoms: N_3  and  C_4
REMARK    3  A    between atoms: C_4  and  C_5
REMARK    4  A    between atoms: C_8  and  C_9
REMARK    5  A    between atoms: C_9  and  N_10
REMARK    6  A    between atoms: C_11  and  C_13
REMARK                            x       y       z     vdW  Elec       q    Type
REMARK                         _______ _______ _______ _____ _____    ______ ____
ROOT
ATOM      1  C   UNL     1      49.630   4.657  17.644  0.00  0.00    +0.000 A 
ATOM      2  C   UNL     1      50.498   5.676  17.229  0.00  0.00    +0.000 A 
ATOM      3  C   UNL     1      50.106   6.593  16.246  0.00  0.00    +0.000 A 
ATOM      4  C   UNL     1      48.830   6.521  15.674  0.00  0.00    +0.000 A 
ATOM      5  C   UNL     1      47.965   5.497  16.084  0.00  0.00    +0.000 A 
ATOM      6  C   UNL     1      48.356   4.582  17.068  0.00  0.00    +0.000 A 
ENDROOT
BRANCH   1   7
ATOM      7  C   UNL     1      50.047   3.687  18.719  0.00  0.00    +0.000 C 
BRANCH   7  10
ATOM      8  O   UNL     1      50.494   1.448  17.101  0.00  0.00    +0.000 OA
ATOM      9  C   UNL     1      51.460   2.004  17.616  0.00  0.00    +0.000 C 
ATOM     10  N   UNL     1      51.332   3.110  18.424  0.00  0.00    +0.000 N 
ATOM     11  H   UNL     1      52.159   3.602  18.722  0.00  0.00    +0.000 HD
BRANCH   9  12
ATOM     12  C   UNL     1      52.820   1.553  17.409  0.00  0.00    +0.000 A 
ATOM     13  C   UNL     1      54.035   2.216  17.482  0.00  0.00    +0.000 A 
ATOM     14  C   UNL     1      55.067   1.286  17.204  0.00  0.00    +0.000 A 
ATOM     15  C   UNL     1      54.467   0.072  16.967  0.00  0.00    +0.000 A 
ATOM     16  N   UNL     1      53.114   0.241  17.094  0.00  0.00    +0.000 N 
ATOM     17  H   UNL     1      52.412  -0.481  16.982  0.00  0.00    +0.000 HD
ENDBRANCH   9  12
ENDBRANCH   7  10
ENDBRANCH   1   7
BRANCH   4  18
ATOM     18  C   UNL     1      48.400   7.502  14.612  0.00  0.00    +0.000 C 
BRANCH  18  19
ATOM     19  N   UNL     1      47.149   7.114  14.010  0.00  0.00    +0.000 N 
ATOM     20  C   UNL     1      47.108   6.548  12.762  0.00  0.00    +0.000 C 
ATOM     21  O   UNL     1      48.130   6.306  12.124  0.00  0.00    +0.000 OA
ATOM     22  H   UNL     1      46.303   7.511  14.406  0.00  0.00    +0.000 HD
BRANCH  20  23
ATOM     23  C   UNL     1      45.782   6.183  12.246  0.00  0.00    +0.000 A 
ATOM     24  C   UNL     1      44.961   7.162  11.700  0.00  0.00    +0.000 A 
ATOM     25  S   UNL     1      43.483   6.560  11.099  0.00  0.00    +0.000 S 
ATOM     26  C   UNL     1      43.863   4.978  11.595  0.00  0.00    +0.000 A 
ATOM     27  N   UNL     1      42.989   3.954  11.397  0.00  0.00    +0.000 NA
ATOM     28  C   UNL     1      43.392   2.815  11.853  0.00  0.00    +0.000 A 
ATOM     29  N   UNL     1      44.590   2.604  12.482  0.00  0.00    +0.000 N 
ATOM     30  C   UNL     1      45.516   3.601  12.679  0.00  0.00    +0.000 A 
ATOM     31  O   UNL     1      46.596   3.372  13.212  0.00  0.00    +0.000 OA
ATOM     32  C   UNL     1      45.108   4.906  12.195  0.00  0.00    +0.000 A 
ATOM     33  H   UNL     1      44.848   1.685  12.810  0.00  0.00    +0.000 HD
ENDBRANCH  20  23
ENDBRANCH  18  19
ENDBRANCH   4  18
TORSDOF 6
ENDMDL
MODEL 8
REMARK VINA RESULT:    -6.736      1.989      2.916
REMARK INTER + INTRA:         -10.209
REMARK INTER:                  -9.530
REMARK INTRA:                  -0.679
REMARK UNBOUND:                -1.110
REMARK  Name = 
REMARK  6 active torsions:
REMARK  status: ('A' for Active; 'I' for Inactive)
REMARK    1  A    between atoms: C_2  and  C_25
REMARK    2  A    between atoms: N_3  and  C_4
REMARK    3  A    between atoms: C_4  and  C_5
REMARK    4  A    between atoms: C_8  and  C_9
REMARK    5  A    between atoms: C_9  and  N_10
REMARK    6  A    between atoms: C_11  and  C_13
REMARK                            x       y       z     vdW  Elec       q    Type
REMARK                         _______ _______ _______ _____ _____    ______ ____
ROOT
ATOM      1  C   UNL     1      44.980   4.878  11.635  0.00  0.00    +0.000 A 
ATOM      2  C   UNL     1      45.704   4.569  12.794  0.00  0.00    +0.000 A 
ATOM      3  C   UNL     1      46.440   5.555  13.461  0.00  0.00    +0.000 A 
ATOM      4  C   UNL     1      46.448   6.876  12.994  0.00  0.00    +0.000 A 
ATOM      5  C   UNL     1      45.728   7.183  11.832  0.00  0.00    +0.000 A 
ATOM      6  C   UNL     1      44.991   6.197  11.166  0.00  0.00    +0.000 A 
ENDROOT
BRANCH   1   7
ATOM      7  C   UNL     1      44.169   3.818  10.933  0.00  0.00    +0.000 C 
BRANCH   7  10
ATOM      8  O   UNL     1      44.627   4.400   8.234  0.00  0.00    +0.000 OA
ATOM      9  C   UNL     1      45.162   3.408   8.721  0.00  0.00    +0.000 C 
ATOM     10  N   UNL     1      44.993   3.048  10.038  0.00  0.00    +0.000 N 
ATOM     11  H   UNL     1      45.548   2.299  10.420  0.00  0.00    +0.000 HD
BRANCH   9  12
ATOM     12  C   UNL     1      46.028   2.536   7.956  0.00  0.00    +0.000 A 
ATOM     13  C   UNL     1      46.876   2.780   6.888  0.00  0.00    +0.000 A 
ATOM     14  C   UNL     1      47.507   1.563   6.533  0.00  0.00    +0.000 A 
ATOM     15  C   UNL     1      47.037   0.596   7.389  0.00  0.00    +0.000 A 
ATOM     16  N   UNL     1      46.148   1.190   8.244  0.00  0.00    +0.000 N 
ATOM     17  H   UNL     1      45.642   0.728   8.991  0.00  0.00    +0.000 HD
ENDBRANCH   9  12
ENDBRANCH   7  10
ENDBRANCH   1   7
BRANCH   4  18
ATOM     18  C   UNL     1      47.239   7.945  13.706  0.00  0.00    +0.000 C 
BRANCH  18  19
ATOM     19  N   UNL     1      47.798   7.454  14.940  0.00  0.00    +0.000 N 
ATOM     20  C   UNL     1      49.083   6.978  14.997  0.00  0.00    +0.000 C 
ATOM     21  O   UNL     1      49.825   6.989  14.018  0.00  0.00    +0.000 OA
ATOM     22  H   UNL     1      47.146   7.222  15.682  0.00  0.00    +0.000 HD
BRANCH  20  23
ATOM     23  C   UNL     1      49.556   6.510  16.307  0.00  0.00    +0.000 A 
ATOM     24  C   UNL     1      48.947   5.417  16.909  0.00  0.00    +0.000 A 
ATOM     25  S   UNL     1      49.653   4.972  18.396  0.00  0.00    +0.000 S 
ATOM     26  C   UNL     1      50.763   6.258  18.316  0.00  0.00    +0.000 A 
ATOM     27  N   UNL     1      51.664   6.468  19.314  0.00  0.00    +0.000 NA
ATOM     28  C   UNL     1      52.422   7.498  19.139  0.00  0.00    +0.000 A 
ATOM     29  N   UNL     1      52.366   8.334  18.055  0.00  0.00    +0.000 N 
ATOM     30  C   UNL     1      51.494   8.145  17.010  0.00  0.00    +0.000 A 
ATOM     31  O   UNL     1      51.496   8.889  16.035  0.00  0.00    +0.000 OA
ATOM     32  C   UNL     1      50.609   7.006  17.162  0.00  0.00    +0.000 A 
ATOM     33  H   UNL     1      52.994   9.121  17.975  0.00  0.00    +0.000 HD
ENDBRANCH  20  23
ENDBRANCH  18  19
ENDBRANCH   4  18
TORSDOF 6
ENDMDL
MODEL 9
REMARK VINA RESULT:    -6.569      4.731      7.282
REMARK INTER + INTRA:          -9.983
REMARK INTER:                  -9.115
REMARK INTRA:                  -0.868
REMARK UNBOUND:                -1.110
REMARK  Name = 
REMARK  6 active torsions:
REMARK  status: ('A' for Active; 'I' for Inactive)
REMARK    1  A    between atoms: C_2  and  C_25
REMARK    2  A    between atoms: N_3  and  C_4
REMARK    3  A    between atoms: C_4  and  C_5
REMARK    4  A    between atoms: C_8  and  C_9
REMARK    5  A    between atoms: C_9  and  N_10
REMARK    6  A    between atoms: C_11  and  C_13
REMARK                            x       y       z     vdW  Elec       q    Type
REMARK                         _______ _______ _______ _____ _____    ______ ____
ROOT
ATOM      1  C   UNL     1      50.781   8.657  11.296  0.00  0.00    +0.000 A 
ATOM      2  C   UNL     1      50.265   7.409  11.669  0.00  0.00    +0.000 A 
ATOM      3  C   UNL     1      48.945   7.289  12.121  0.00  0.00    +0.000 A 
ATOM      4  C   UNL     1      48.110   8.411  12.189  0.00  0.00    +0.000 A 
ATOM      5  C   UNL     1      48.629   9.659  11.822  0.00  0.00    +0.000 A 
ATOM      6  C   UNL     1      49.947   9.780  11.368  0.00  0.00    +0.000 A 
ENDROOT
BRANCH   1   7
ATOM      7  C   UNL     1      52.195   8.781  10.787  0.00  0.00    +0.000 C 
BRANCH   7  10
ATOM      8  O   UNL     1      54.203   6.831  10.774  0.00  0.00    +0.000 OA
ATOM      9  C   UNL     1      53.457   6.915   9.802  0.00  0.00    +0.000 C 
ATOM     10  N   UNL     1      52.444   7.842   9.725  0.00  0.00    +0.000 N 
ATOM     11  H   UNL     1      51.785   7.790   8.964  0.00  0.00    +0.000 HD
BRANCH   9  12
ATOM     12  C   UNL     1      53.570   6.036   8.657  0.00  0.00    +0.000 A 
ATOM     13  C   UNL     1      53.066   6.126   7.369  0.00  0.00    +0.000 A 
ATOM     14  C   UNL     1      53.500   4.992   6.640  0.00  0.00    +0.000 A 
ATOM     15  C   UNL     1      54.262   4.229   7.493  0.00  0.00    +0.000 A 
ATOM     16  N   UNL     1      54.301   4.865   8.705  0.00  0.00    +0.000 N 
ATOM     17  H   UNL     1      54.793   4.543   9.529  0.00  0.00    +0.000 HD
ENDBRANCH   9  12
ENDBRANCH   7  10
ENDBRANCH   1   7
BRANCH   4  18
ATOM     18  C   UNL     1      46.688   8.290  12.677  0.00  0.00    +0.000 C 
BRANCH  18  19
ATOM     19  N   UNL     1      46.167   6.963  12.463  0.00  0.00    +0.000 N 
ATOM     20  C   UNL     1      45.054   6.753  11.689  0.00  0.00    +0.000 C 
ATOM     21  O   UNL     1      44.481   7.674  11.112  0.00  0.00    +0.000 OA
ATOM     22  H   UNL     1      46.474   6.238  13.103  0.00  0.00    +0.000 HD
BRANCH  20  23
ATOM     23  C   UNL     1      44.613   5.361  11.531  0.00  0.00    +0.000 A 
ATOM     24  C   UNL     1      43.933   4.731  12.565  0.00  0.00    +0.000 A 
ATOM     25  S   UNL     1      43.445   3.139  12.195  0.00  0.00    +0.000 S 
ATOM     26  C   UNL     1      44.173   3.215  10.660  0.00  0.00    +0.000 A 
ATOM     27  N   UNL     1      44.143   2.147   9.818  0.00  0.00    +0.000 NA
ATOM     28  C   UNL     1      44.763   2.331   8.700  0.00  0.00    +0.000 A 
ATOM     29  N   UNL     1      45.405   3.489   8.345  0.00  0.00    +0.000 N 
ATOM     30  C   UNL     1      45.438   4.602   9.150  0.00  0.00    +0.000 A 
ATOM     31  O   UNL     1      45.988   5.636   8.787  0.00  0.00    +0.000 OA
ATOM     32  C   UNL     1      44.765   4.444  10.425  0.00  0.00    +0.000 A 
ATOM     33  H   UNL     1      45.867   3.570   7.452  0.00  0.00    +0.000 HD
ENDBRANCH  20  23
ENDBRANCH  18  19
ENDBRANCH   4  18
TORSDOF 6
ENDMDL
