MODEL 1
REMARK VINA RESULT:    -8.916      0.000      0.000
REMARK INTER + INTRA:         -12.918
REMARK INTER:                 -12.043
REMARK INTRA:                  -0.874
REMARK UNBOUND:                -0.874
REMARK  Name = 
REMARK  6 active torsions:
REMARK  status: ('A' for Active; 'I' for Inactive)
REMARK    1  A    between atoms: C_2  and  C_3
REMARK    2  A    between atoms: C_5  and  C_6
REMARK    3  A    between atoms: C_6  and  N_7
REMARK    4  A    between atoms: C_8  and  C_10
REMARK    5  A    between atoms: C_22  and  C_23
REMARK    6  A    between atoms: C_23  and  C_24
REMARK                            x       y       z     vdW  Elec       q    Type
REMARK                         _______ _______ _______ _____ _____    ______ ____
ROOT
ATOM      1  C   UNL     1      46.152   7.474  12.403  0.00  0.00    +0.000 C 
ENDROOT
BRANCH   1   4
ATOM      2  C   UNL     1      44.623   4.150  11.332  0.00  0.00    +0.000 A 
ATOM      3  C   UNL     1      45.016   5.231  12.131  0.00  0.00    +0.000 A 
ATOM      4  C   UNL     1      45.730   6.298  11.577  0.00  0.00    +0.000 A 
ATOM      5  C   UNL     1      46.067   6.210  10.235  0.00  0.00    +0.000 A 
ATOM      6  N   UNL     1      45.692   5.190   9.432  0.00  0.00    +0.000 NA
ATOM      7  C   UNL     1      44.960   4.175   9.976  0.00  0.00    +0.000 A 
BRANCH   2   9
ATOM      8  N   UNL     1      43.351   2.222  12.503  0.00  0.00    +0.000 NA
ATOM      9  C   UNL     1      43.919   3.063  11.942  0.00  0.00    +0.000 C 
ENDBRANCH   2   9
BRANCH   7  10
ATOM     10  C   UNL     1      44.457   3.144   8.989  0.00  0.00    +0.000 C 
BRANCH  10  11
ATOM     11  C   UNL     1      45.571   2.597   8.126  0.00  0.00    +0.000 A 
ATOM     12  C   UNL     1      46.037   3.318   7.025  0.00  0.00    +0.000 A 
ATOM     13  C   UNL     1      46.997   2.744   6.198  0.00  0.00    +0.000 A 
ATOM     14  C   UNL     1      47.484   1.480   6.500  0.00  0.00    +0.000 A 
ATOM     15  C   UNL     1      46.994   0.843   7.627  0.00  0.00    +0.000 A 
ATOM     16  N   UNL     1      46.048   1.367   8.438  0.00  0.00    +0.000 NA
ENDBRANCH  10  11
ENDBRANCH   7  10
ENDBRANCH   1   4
BRANCH   1  17
ATOM     17  N   UNL     1      46.726   7.056  13.655  0.00  0.00    +0.000 N 
ATOM     18  C   UNL     1      48.044   6.692  13.771  0.00  0.00    +0.000 C 
ATOM     19  O   UNL     1      48.808   6.716  12.812  0.00  0.00    +0.000 OA
ATOM     20  H   UNL     1      46.083   6.854  14.415  0.00  0.00    +0.000 HD
BRANCH  18  21
ATOM     21  C   UNL     1      48.508   6.330  15.115  0.00  0.00    +0.000 A 
ATOM     22  C   UNL     1      49.475   7.112  15.733  0.00  0.00    +0.000 A 
ATOM     23  S   UNL     1      49.882   6.584  17.301  0.00  0.00    +0.000 S 
ATOM     24  C   UNL     1      48.815   5.265  17.193  0.00  0.00    +0.000 A 
ATOM     25  N   UNL     1      48.700   4.376  18.216  0.00  0.00    +0.000 NA
ATOM     26  C   UNL     1      47.879   3.406  17.992  0.00  0.00    +0.000 A 
ATOM     27  N   UNL     1      47.154   3.247  16.837  0.00  0.00    +0.000 N 
ATOM     28  C   UNL     1      47.195   4.150  15.801  0.00  0.00    +0.000 A 
ATOM     29  O   UNL     1      46.461   4.036  14.824  0.00  0.00    +0.000 OA
ATOM     30  C   UNL     1      48.134   5.241  15.988  0.00  0.00    +0.000 A 
ATOM     31  H   UNL     1      46.512   2.475  16.735  0.00  0.00    +0.000 HD
ENDBRANCH  18  21
ENDBRANCH   1  17
TORSDOF 6
ENDMDL
MODEL 2
REMARK VINA RESULT:    -7.788      2.223      2.897
REMARK INTER + INTRA:         -11.395
REMARK INTER:                 -10.415
REMARK INTRA:                  -0.980
REMARK UNBOUND:                -0.874
REMARK  Name = 
REMARK  6 active torsions:
REMARK  status: ('A' for Active; 'I' for Inactive)
REMARK    1  A    between atoms: C_2  and  C_3
REMARK    2  A    between atoms: C_5  and  C_6
REMARK    3  A    between atoms: C_6  and  N_7
REMARK    4  A    between atoms: C_8  and  C_10
REMARK    5  A    between atoms: C_22  and  C_23
REMARK    6  A    between atoms: C_23  and  C_24
REMARK                            x       y       z     vdW  Elec       q    Type
REMARK                         _______ _______ _______ _____ _____    ______ ____
ROOT
ATOM      1  C   UNL     1      47.956   7.338  13.846  0.00  0.00    +0.000 C 
ENDROOT
BRANCH   1   4
ATOM      2  C   UNL     1      45.286   5.052  12.372  0.00  0.00    +0.000 A 
ATOM      3  C   UNL     1      46.118   5.689  13.300  0.00  0.00    +0.000 A 
ATOM      4  C   UNL     1      47.061   6.631  12.875  0.00  0.00    +0.000 A 
ATOM      5  C   UNL     1      47.163   6.860  11.512  0.00  0.00    +0.000 A 
ATOM      6  N   UNL     1      46.366   6.275  10.591  0.00  0.00    +0.000 NA
ATOM      7  C   UNL     1      45.423   5.388  11.023  0.00  0.00    +0.000 A 
BRANCH   2   9
ATOM      8  N   UNL     1      43.627   3.290  13.294  0.00  0.00    +0.000 NA
ATOM      9  C   UNL     1      44.353   4.072  12.842  0.00  0.00    +0.000 C 
ENDBRANCH   2   9
BRANCH   7  10
ATOM     10  C   UNL     1      44.477   4.884   9.954  0.00  0.00    +0.000 C 
BRANCH  10  11
ATOM     11  C   UNL     1      45.151   3.905   9.020  0.00  0.00    +0.000 A 
ATOM     12  C   UNL     1      45.133   2.535   9.291  0.00  0.00    +0.000 A 
ATOM     13  C   UNL     1      45.842   1.673   8.462  0.00  0.00    +0.000 A 
ATOM     14  C   UNL     1      46.530   2.191   7.372  0.00  0.00    +0.000 A 
ATOM     15  C   UNL     1      46.472   3.556   7.153  0.00  0.00    +0.000 A 
ATOM     16  N   UNL     1      45.808   4.421   7.952  0.00  0.00    +0.000 NA
ENDBRANCH  10  11
ENDBRANCH   7  10
ENDBRANCH   1   4
BRANCH   1  17
ATOM     17  N   UNL     1      47.893   6.737  15.152  0.00  0.00    +0.000 N 
ATOM     18  C   UNL     1      49.021   6.396  15.855  0.00  0.00    +0.000 C 
ATOM     19  O   UNL     1      50.146   6.599  15.412  0.00  0.00    +0.000 OA
ATOM     20  H   UNL     1      46.988   6.396  15.461  0.00  0.00    +0.000 HD
BRANCH  18  21
ATOM     21  C   UNL     1      48.811   5.832  17.194  0.00  0.00    +0.000 A 
ATOM     22  C   UNL     1      49.069   4.484  17.411  0.00  0.00    +0.000 A 
ATOM     23  S   UNL     1      48.811   3.989  19.020  0.00  0.00    +0.000 S 
ATOM     24  C   UNL     1      48.303   5.546  19.476  0.00  0.00    +0.000 A 
ATOM     25  N   UNL     1      47.903   5.804  20.750  0.00  0.00    +0.000 NA
ATOM     26  C   UNL     1      47.513   7.017  20.953  0.00  0.00    +0.000 A 
ATOM     27  N   UNL     1      47.493   8.001  19.996  0.00  0.00    +0.000 N 
ATOM     28  C   UNL     1      47.940   7.802  18.711  0.00  0.00    +0.000 A 
ATOM     29  O   UNL     1      48.004   8.726  17.906  0.00  0.00    +0.000 OA
ATOM     30  C   UNL     1      48.354   6.441  18.421  0.00  0.00    +0.000 A 
ATOM     31  H   UNL     1      47.195   8.938  20.228  0.00  0.00    +0.000 HD
ENDBRANCH  18  21
ENDBRANCH   1  17
TORSDOF 6
ENDMDL
MODEL 3
REMARK VINA RESULT:    -7.691      2.923      7.926
REMARK INTER + INTRA:         -11.263
REMARK INTER:                 -10.100
REMARK INTRA:                  -1.163
REMARK UNBOUND:                -0.874
REMARK  Name = 
REMARK  6 active torsions:
REMARK  status: ('A' for Active; 'I' for Inactive)
REMARK    1  A    between atoms: C_2  and  C_3
REMARK    2  A    between atoms: C_5  and  C_6
REMARK    3  A    between atoms: C_6  and  N_7
REMARK    4  A    between atoms: C_8  and  C_10
REMARK    5  A    between atoms: C_22  and  C_23
REMARK    6  A    between atoms: C_23  and  C_24
REMARK                            x       y       z     vdW  Elec       q    Type
REMARK                         _______ _______ _______ _____ _____    ______ ____
ROOT
ATOM      1  C   UNL     1      48.299   7.101  13.276  0.00  0.00    +0.000 C 
ENDROOT
BRANCH   1   4
ATOM      2  C   UNL     1      48.137   5.007  16.458  0.00  0.00    +0.000 A 
ATOM      3  C   UNL     1      47.811   5.538  15.204  0.00  0.00    +0.000 A 
ATOM      4  C   UNL     1      48.615   6.523  14.622  0.00  0.00    +0.000 A 
ATOM      5  C   UNL     1      49.701   6.974  15.356  0.00  0.00    +0.000 A 
ATOM      6  N   UNL     1      50.053   6.474  16.560  0.00  0.00    +0.000 NA
ATOM      7  C   UNL     1      49.283   5.484  17.098  0.00  0.00    +0.000 A 
BRANCH   2   9
ATOM      8  N   UNL     1      46.625   3.168  17.479  0.00  0.00    +0.000 NA
ATOM      9  C   UNL     1      47.273   4.021  17.034  0.00  0.00    +0.000 C 
ENDBRANCH   2   9
BRANCH   7  10
ATOM     10  C   UNL     1      49.818   4.876  18.377  0.00  0.00    +0.000 C 
BRANCH  10  11
ATOM     11  C   UNL     1      50.857   3.811  18.104  0.00  0.00    +0.000 A 
ATOM     12  C   UNL     1      50.496   2.602  17.506  0.00  0.00    +0.000 A 
ATOM     13  C   UNL     1      51.458   1.608  17.356  0.00  0.00    +0.000 A 
ATOM     14  C   UNL     1      52.757   1.851  17.782  0.00  0.00    +0.000 A 
ATOM     15  C   UNL     1      53.042   3.087  18.336  0.00  0.00    +0.000 A 
ATOM     16  N   UNL     1      52.124   4.064  18.513  0.00  0.00    +0.000 NA
ENDBRANCH  10  11
ENDBRANCH   7  10
ENDBRANCH   1   4
BRANCH   1  17
ATOM     17  N   UNL     1      47.525   6.184  12.480  0.00  0.00    +0.000 N 
ATOM     18  C   UNL     1      46.416   6.582  11.777  0.00  0.00    +0.000 C 
ATOM     19  O   UNL     1      46.032   7.747  11.780  0.00  0.00    +0.000 OA
ATOM     20  H   UNL     1      47.711   5.193  12.604  0.00  0.00    +0.000 HD
BRANCH  18  21
ATOM     21  C   UNL     1      45.748   5.553  10.972  0.00  0.00    +0.000 A 
ATOM     22  C   UNL     1      45.810   5.629   9.587  0.00  0.00    +0.000 A 
ATOM     23  S   UNL     1      45.017   4.346   8.795  0.00  0.00    +0.000 S 
ATOM     24  C   UNL     1      44.523   3.667  10.274  0.00  0.00    +0.000 A 
ATOM     25  N   UNL     1      43.765   2.538  10.304  0.00  0.00    +0.000 NA
ATOM     26  C   UNL     1      43.434   2.147  11.489  0.00  0.00    +0.000 A 
ATOM     27  N   UNL     1      43.799   2.781  12.650  0.00  0.00    +0.000 N 
ATOM     28  C   UNL     1      44.611   3.890  12.671  0.00  0.00    +0.000 A 
ATOM     29  O   UNL     1      45.004   4.375  13.728  0.00  0.00    +0.000 OA
ATOM     30  C   UNL     1      44.980   4.393  11.360  0.00  0.00    +0.000 A 
ATOM     31  H   UNL     1      43.523   2.409  13.547  0.00  0.00    +0.000 HD
ENDBRANCH  18  21
ENDBRANCH   1  17
TORSDOF 6
ENDMDL
MODEL 4
REMARK VINA RESULT:    -7.641      2.992      3.829
REMARK INTER + INTRA:         -11.195
REMARK INTER:                 -10.288
REMARK INTRA:                  -0.907
REMARK UNBOUND:                -0.874
REMARK  Name = 
REMARK  6 active torsions:
REMARK  status: ('A' for Active; 'I' for Inactive)
REMARK    1  A    between atoms: C_2  and  C_3
REMARK    2  A    between atoms: C_5  and  C_6
REMARK    3  A    between atoms: C_6  and  N_7
REMARK    4  A    between atoms: C_8  and  C_10
REMARK    5  A    between atoms: C_22  and  C_23
REMARK    6  A    between atoms: C_23  and  C_24
REMARK                            x       y       z     vdW  Elec       q    Type
REMARK                         _______ _______ _______ _____ _____    ______ ____
ROOT
ATOM      1  C   UNL     1      46.169   6.948  13.051  0.00  0.00    +0.000 C 
ENDROOT
BRANCH   1   4
ATOM      2  C   UNL     1      44.506   4.115  11.118  0.00  0.00    +0.000 A 
ATOM      3  C   UNL     1      44.902   4.943  12.176  0.00  0.00    +0.000 A 
ATOM      4  C   UNL     1      45.739   6.038  11.942  0.00  0.00    +0.000 A 
ATOM      5  C   UNL     1      46.189   6.231  10.645  0.00  0.00    +0.000 A 
ATOM      6  N   UNL     1      45.814   5.462   9.599  0.00  0.00    +0.000 NA
ATOM      7  C   UNL     1      44.965   4.421   9.834  0.00  0.00    +0.000 A 
BRANCH   2   9
ATOM      8  N   UNL     1      43.017   2.079  11.706  0.00  0.00    +0.000 NA
ATOM      9  C   UNL     1      43.672   2.986  11.401  0.00  0.00    +0.000 C 
ENDBRANCH   2   9
BRANCH   7  10
ATOM     10  C   UNL     1      44.478   3.695   8.598  0.00  0.00    +0.000 C 
BRANCH  10  11
ATOM     11  C   UNL     1      45.587   2.915   7.928  0.00  0.00    +0.000 A 
ATOM     12  C   UNL     1      46.249   3.434   6.814  0.00  0.00    +0.000 A 
ATOM     13  C   UNL     1      47.199   2.649   6.166  0.00  0.00    +0.000 A 
ATOM     14  C   UNL     1      47.481   1.381   6.657  0.00  0.00    +0.000 A 
ATOM     15  C   UNL     1      46.803   0.952   7.784  0.00  0.00    +0.000 A 
ATOM     16  N   UNL     1      45.862   1.683   8.423  0.00  0.00    +0.000 NA
ENDBRANCH  10  11
ENDBRANCH   7  10
ENDBRANCH   1   4
BRANCH   1  17
ATOM     17  N   UNL     1      47.481   7.490  12.808  0.00  0.00    +0.000 N 
ATOM     18  C   UNL     1      47.687   8.823  12.558  0.00  0.00    +0.000 C 
ATOM     19  O   UNL     1      46.762   9.629  12.543  0.00  0.00    +0.000 OA
ATOM     20  H   UNL     1      48.230   6.826  12.636  0.00  0.00    +0.000 HD
BRANCH  18  21
ATOM     21  C   UNL     1      49.080   9.245  12.370  0.00  0.00    +0.000 A 
ATOM     22  C   UNL     1      49.378  10.186  11.393  0.00  0.00    +0.000 A 
ATOM     23  S   UNL     1      51.030  10.598  11.322  0.00  0.00    +0.000 S 
ATOM     24  C   UNL     1      51.413   9.501  12.563  0.00  0.00    +0.000 A 
ATOM     25  N   UNL     1      52.698   9.338  12.977  0.00  0.00    +0.000 NA
ATOM     26  C   UNL     1      52.854   8.452  13.903  0.00  0.00    +0.000 A 
ATOM     27  N   UNL     1      51.837   7.718  14.459  0.00  0.00    +0.000 N 
ATOM     28  C   UNL     1      50.517   7.888  14.113  0.00  0.00    +0.000 A 
ATOM     29  O   UNL     1      49.620   7.289  14.698  0.00  0.00    +0.000 OA
ATOM     30  C   UNL     1      50.293   8.848  13.046  0.00  0.00    +0.000 A 
ATOM     31  H   UNL     1      52.026   7.055  15.197  0.00  0.00    +0.000 HD
ENDBRANCH  18  21
ENDBRANCH   1  17
TORSDOF 6
ENDMDL
MODEL 5
REMARK VINA RESULT:    -7.442      1.617      2.253
REMARK INTER + INTRA:         -10.927
REMARK INTER:                  -9.988
REMARK INTRA:                  -0.939
REMARK UNBOUND:                -0.874
REMARK  Name = 
REMARK  6 active torsions:
REMARK  status: ('A' for Active; 'I' for Inactive)
REMARK    1  A    between atoms: C_2  and  C_3
REMARK    2  A    between atoms: C_5  and  C_6
REMARK    3  A    between atoms: C_6  and  N_7
REMARK    4  A    between atoms: C_8  and  C_10
REMARK    5  A    between atoms: C_22  and  C_23
REMARK    6  A    between atoms: C_23  and  C_24
REMARK                            x       y       z     vdW  Elec       q    Type
REMARK                         _______ _______ _______ _____ _____    ______ ____
ROOT
ATOM      1  C   UNL     1      47.308   8.595  13.678  0.00  0.00    +0.000 C 
ENDROOT
BRANCH   1   4
ATOM      2  C   UNL     1      45.732   5.353  12.439  0.00  0.00    +0.000 A 
ATOM      3  C   UNL     1      46.502   6.248  13.192  0.00  0.00    +0.000 A 
ATOM      4  C   UNL     1      46.505   7.612  12.883  0.00  0.00    +0.000 A 
ATOM      5  C   UNL     1      45.763   8.018  11.785  0.00  0.00    +0.000 A 
ATOM      6  N   UNL     1      44.997   7.185  11.047  0.00  0.00    +0.000 NA
ATOM      7  C   UNL     1      44.972   5.863  11.384  0.00  0.00    +0.000 A 
BRANCH   2   9
ATOM      8  N   UNL     1      45.787   2.817  12.961  0.00  0.00    +0.000 NA
ATOM      9  C   UNL     1      45.778   3.960  12.767  0.00  0.00    +0.000 C 
ENDBRANCH   2   9
BRANCH   7  10
ATOM     10  C   UNL     1      43.985   5.019  10.605  0.00  0.00    +0.000 C 
BRANCH  10  11
ATOM     11  C   UNL     1      44.675   4.136   9.591  0.00  0.00    +0.000 A 
ATOM     12  C   UNL     1      44.515   2.749   9.630  0.00  0.00    +0.000 A 
ATOM     13  C   UNL     1      45.239   1.960   8.741  0.00  0.00    +0.000 A 
ATOM     14  C   UNL     1      46.082   2.571   7.823  0.00  0.00    +0.000 A 
ATOM     15  C   UNL     1      46.162   3.952   7.827  0.00  0.00    +0.000 A 
ATOM     16  N   UNL     1      45.487   4.744   8.691  0.00  0.00    +0.000 NA
ENDBRANCH  10  11
ENDBRANCH   7  10
ENDBRANCH   1   4
BRANCH   1  17
ATOM     17  N   UNL     1      47.660   8.064  14.969  0.00  0.00    +0.000 N 
ATOM     18  C   UNL     1      48.958   7.791  15.319  0.00  0.00    +0.000 C 
ATOM     19  O   UNL     1      49.893   8.000  14.551  0.00  0.00    +0.000 OA
ATOM     20  H   UNL     1      46.902   7.715  15.548  0.00  0.00    +0.000 HD
BRANCH  18  21
ATOM     21  C   UNL     1      49.178   7.294  16.682  0.00  0.00    +0.000 A 
ATOM     22  C   UNL     1      49.773   8.128  17.620  0.00  0.00    +0.000 A 
ATOM     23  S   UNL     1      49.928   7.420  19.162  0.00  0.00    +0.000 S 
ATOM     24  C   UNL     1      49.249   5.959  18.620  0.00  0.00    +0.000 A 
ATOM     25  N   UNL     1      49.116   4.897  19.460  0.00  0.00    +0.000 NA
ATOM     26  C   UNL     1      48.616   3.841  18.913  0.00  0.00    +0.000 A 
ATOM     27  N   UNL     1      48.226   3.752  17.600  0.00  0.00    +0.000 N 
ATOM     28  C   UNL     1      48.288   4.815  16.730  0.00  0.00    +0.000 A 
ATOM     29  O   UNL     1      47.840   4.735  15.590  0.00  0.00    +0.000 OA
ATOM     30  C   UNL     1      48.881   6.017  17.287  0.00  0.00    +0.000 A 
ATOM     31  H   UNL     1      47.821   2.900  17.241  0.00  0.00    +0.000 HD
ENDBRANCH  18  21
ENDBRANCH   1  17
TORSDOF 6
ENDMDL
MODEL 6
REMARK VINA RESULT:    -7.402      2.145      3.831
REMARK INTER + INTRA:         -10.873
REMARK INTER:                 -10.080
REMARK INTRA:                  -0.793
REMARK UNBOUND:                -0.874
REMARK  Name = 
REMARK  6 active torsions:
REMARK  status: ('A' for Active; 'I' for Inactive)
REMARK    1  A    between atoms: C_2  and  C_3
REMARK    2  A    between atoms: C_5  and  C_6
REMARK    3  A    between atoms: C_6  and  N_7
REMARK    4  A    between atoms: C_8  and  C_10
REMARK    5  A    between atoms: C_22  and  C_23
REMARK    6  A    between atoms: C_23  and  C_24
REMARK                            x       y       z     vdW  Elec       q    Type
REMARK                         _______ _______ _______ _____ _____    ______ ____
ROOT
ATOM      1  C   UNL     1      46.834   4.351  14.942  0.00  0.00    +0.000 C 
ENDROOT
BRANCH   1   4
ATOM      2  C   UNL     1      44.981   5.661  11.879  0.00  0.00    +0.000 A 
ATOM      3  C   UNL     1      45.648   5.629  13.110  0.00  0.00    +0.000 A 
ATOM      4  C   UNL     1      46.106   4.416  13.635  0.00  0.00    +0.000 A 
ATOM      5  C   UNL     1      45.827   3.265  12.915  0.00  0.00    +0.000 A 
ATOM      6  N   UNL     1      45.199   3.261  11.718  0.00  0.00    +0.000 NA
ATOM      7  C   UNL     1      44.794   4.456  11.198  0.00  0.00    +0.000 A 
BRANCH   2   9
ATOM      8  N   UNL     1      44.132   7.967  11.060  0.00  0.00    +0.000 NA
ATOM      9  C   UNL     1      44.501   6.918  11.388  0.00  0.00    +0.000 C 
ENDBRANCH   2   9
BRANCH   7  10
ATOM     10  C   UNL     1      44.230   4.388   9.795  0.00  0.00    +0.000 C 
BRANCH  10  11
ATOM     11  C   UNL     1      45.164   3.675   8.844  0.00  0.00    +0.000 A 
ATOM     12  C   UNL     1      45.269   2.283   8.861  0.00  0.00    +0.000 A 
ATOM     13  C   UNL     1      46.207   1.666   8.039  0.00  0.00    +0.000 A 
ATOM     14  C   UNL     1      46.997   2.446   7.205  0.00  0.00    +0.000 A 
ATOM     15  C   UNL     1      46.810   3.817   7.225  0.00  0.00    +0.000 A 
ATOM     16  N   UNL     1      45.922   4.446   8.026  0.00  0.00    +0.000 NA
ENDBRANCH  10  11
ENDBRANCH   7  10
ENDBRANCH   1   4
BRANCH   1  17
ATOM     17  N   UNL     1      47.542   5.576  15.210  0.00  0.00    +0.000 N 
ATOM     18  C   UNL     1      48.593   5.636  16.090  0.00  0.00    +0.000 C 
ATOM     19  O   UNL     1      48.995   4.642  16.687  0.00  0.00    +0.000 OA
ATOM     20  H   UNL     1      47.121   6.437  14.873  0.00  0.00    +0.000 HD
BRANCH  18  21
ATOM     21  C   UNL     1      49.252   6.939  16.234  0.00  0.00    +0.000 A 
ATOM     22  C   UNL     1      49.434   7.472  17.504  0.00  0.00    +0.000 A 
ATOM     23  S   UNL     1      50.243   8.971  17.507  0.00  0.00    +0.000 S 
ATOM     24  C   UNL     1      50.341   8.984  15.810  0.00  0.00    +0.000 A 
ATOM     25  N   UNL     1      50.910  10.030  15.152  0.00  0.00    +0.000 NA
ATOM     26  C   UNL     1      50.890   9.928  13.866  0.00  0.00    +0.000 A 
ATOM     27  N   UNL     1      50.359   8.868  13.175  0.00  0.00    +0.000 N 
ATOM     28  C   UNL     1      49.825   7.764  13.797  0.00  0.00    +0.000 A 
ATOM     29  O   UNL     1      49.448   6.788  13.156  0.00  0.00    +0.000 OA
ATOM     30  C   UNL     1      49.788   7.847  15.246  0.00  0.00    +0.000 A 
ATOM     31  H   UNL     1      50.395   8.841  12.167  0.00  0.00    +0.000 HD
ENDBRANCH  18  21
ENDBRANCH   1  17
TORSDOF 6
ENDMDL
MODEL 7
REMARK VINA RESULT:    -7.333      2.918      4.539
REMARK INTER + INTRA:         -10.780
REMARK INTER:                  -9.832
REMARK INTRA:                  -0.948
REMARK UNBOUND:                -0.874
REMARK  Name = 
REMARK  6 active torsions:
REMARK  status: ('A' for Active; 'I' for Inactive)
REMARK    1  A    between atoms: C_2  and  C_3
REMARK    2  A    between atoms: C_5  and  C_6
REMARK    3  A    between atoms: C_6  and  N_7
REMARK    4  A    between atoms: C_8  and  C_10
REMARK    5  A    between atoms: C_22  and  C_23
REMARK    6  A    between atoms: C_23  and  C_24
REMARK                            x       y       z     vdW  Elec       q    Type
REMARK                         _______ _______ _______ _____ _____    ______ ____
ROOT
ATOM      1  C   UNL     1      46.265   6.967  13.079  0.00  0.00    +0.000 C 
ENDROOT
BRANCH   1   4
ATOM      2  C   UNL     1      44.564   4.141  11.168  0.00  0.00    +0.000 A 
ATOM      3  C   UNL     1      44.981   4.964  12.221  0.00  0.00    +0.000 A 
ATOM      4  C   UNL     1      45.814   6.061  11.975  0.00  0.00    +0.000 A 
ATOM      5  C   UNL     1      46.238   6.258  10.670  0.00  0.00    +0.000 A 
ATOM      6  N   UNL     1      45.843   5.493   9.629  0.00  0.00    +0.000 NA
ATOM      7  C   UNL     1      44.998   4.451   9.877  0.00  0.00    +0.000 A 
BRANCH   2   9
ATOM      8  N   UNL     1      43.004   2.140  11.685  0.00  0.00    +0.000 NA
ATOM      9  C   UNL     1      43.736   3.011  11.464  0.00  0.00    +0.000 C 
ENDBRANCH   2   9
BRANCH   7  10
ATOM     10  C   UNL     1      44.488   3.730   8.648  0.00  0.00    +0.000 C 
BRANCH  10  11
ATOM     11  C   UNL     1      45.580   2.942   7.961  0.00  0.00    +0.000 A 
ATOM     12  C   UNL     1      46.235   3.461   6.843  0.00  0.00    +0.000 A 
ATOM     13  C   UNL     1      47.169   2.670   6.179  0.00  0.00    +0.000 A 
ATOM     14  C   UNL     1      47.443   1.397   6.658  0.00  0.00    +0.000 A 
ATOM     15  C   UNL     1      46.773   0.967   7.791  0.00  0.00    +0.000 A 
ATOM     16  N   UNL     1      45.848   1.705   8.445  0.00  0.00    +0.000 NA
ENDBRANCH  10  11
ENDBRANCH   7  10
ENDBRANCH   1   4
BRANCH   1  17
ATOM     17  N   UNL     1      47.509   7.614  12.752  0.00  0.00    +0.000 N 
ATOM     18  C   UNL     1      48.443   7.929  13.706  0.00  0.00    +0.000 C 
ATOM     19  O   UNL     1      48.272   7.662  14.892  0.00  0.00    +0.000 OA
ATOM     20  H   UNL     1      47.596   8.004  11.818  0.00  0.00    +0.000 HD
BRANCH  18  21
ATOM     21  C   UNL     1      49.686   8.546  13.227  0.00  0.00    +0.000 A 
ATOM     22  C   UNL     1      50.900   8.121  13.750  0.00  0.00    +0.000 A 
ATOM     23  S   UNL     1      52.250   8.907  13.070  0.00  0.00    +0.000 S 
ATOM     24  C   UNL     1      51.259   9.875  12.085  0.00  0.00    +0.000 A 
ATOM     25  N   UNL     1      51.798  10.809  11.256  0.00  0.00    +0.000 NA
ATOM     26  C   UNL     1      50.933  11.496  10.589  0.00  0.00    +0.000 A 
ATOM     27  N   UNL     1      49.574  11.329  10.669  0.00  0.00    +0.000 N 
ATOM     28  C   UNL     1      48.986  10.361  11.450  0.00  0.00    +0.000 A 
ATOM     29  O   UNL     1      47.774  10.168  11.425  0.00  0.00    +0.000 OA
ATOM     30  C   UNL     1      49.915   9.585  12.251  0.00  0.00    +0.000 A 
ATOM     31  H   UNL     1      48.952  11.887  10.102  0.00  0.00    +0.000 HD
ENDBRANCH  18  21
ENDBRANCH   1  17
TORSDOF 6
ENDMDL
MODEL 8
REMARK VINA RESULT:    -7.331      2.645      3.665
REMARK INTER + INTRA:         -10.776
REMARK INTER:                 -10.226
REMARK INTRA:                  -0.551
REMARK UNBOUND:                -0.874
REMARK  Name = 
REMARK  6 active torsions:
REMARK  status: ('A' for Active; 'I' for Inactive)
REMARK    1  A    between atoms: C_2  and  C_3
REMARK    2  A    between atoms: C_5  and  C_6
REMARK    3  A    between atoms: C_6  and  N_7
REMARK    4  A    between atoms: C_8  and  C_10
REMARK    5  A    between atoms: C_22  and  C_23
REMARK    6  A    between atoms: C_23  and  C_24
REMARK                            x       y       z     vdW  Elec       q    Type
REMARK                         _______ _______ _______ _____ _____    ______ ____
ROOT
ATOM      1  C   UNL     1      47.191   4.309  14.987  0.00  0.00    +0.000 C 
ENDROOT
BRANCH   1   4
ATOM      2  C   UNL     1      45.250   5.700  12.016  0.00  0.00    +0.000 A 
ATOM      3  C   UNL     1      45.991   5.640  13.202  0.00  0.00    +0.000 A 
ATOM      4  C   UNL     1      46.388   4.405  13.727  0.00  0.00    +0.000 A 
ATOM      5  C   UNL     1      45.976   3.266  13.054  0.00  0.00    +0.000 A 
ATOM      6  N   UNL     1      45.274   3.288  11.899  0.00  0.00    +0.000 NA
ATOM      7  C   UNL     1      44.929   4.500  11.377  0.00  0.00    +0.000 A 
BRANCH   2   9
ATOM      8  N   UNL     1      44.473   8.032  11.200  0.00  0.00    +0.000 NA
ATOM      9  C   UNL     1      44.838   6.981  11.526  0.00  0.00    +0.000 C 
ENDBRANCH   2   9
BRANCH   7  10
ATOM     10  C   UNL     1      44.272   4.450  10.014  0.00  0.00    +0.000 C 
BRANCH  10  11
ATOM     11  C   UNL     1      45.131   3.732   8.999  0.00  0.00    +0.000 A 
ATOM     12  C   UNL     1      45.233   2.339   9.011  0.00  0.00    +0.000 A 
ATOM     13  C   UNL     1      46.105   1.717   8.123  0.00  0.00    +0.000 A 
ATOM     14  C   UNL     1      46.834   2.493   7.232  0.00  0.00    +0.000 A 
ATOM     15  C   UNL     1      46.654   3.865   7.262  0.00  0.00    +0.000 A 
ATOM     16  N   UNL     1      45.829   4.499   8.125  0.00  0.00    +0.000 NA
ENDBRANCH  10  11
ENDBRANCH   7  10
ENDBRANCH   1   4
BRANCH   1  17
ATOM     17  N   UNL     1      47.566   5.612  15.472  0.00  0.00    +0.000 N 
ATOM     18  C   UNL     1      48.642   5.803  16.300  0.00  0.00    +0.000 C 
ATOM     19  O   UNL     1      49.353   4.871  16.662  0.00  0.00    +0.000 OA
ATOM     20  H   UNL     1      46.897   6.365  15.338  0.00  0.00    +0.000 HD
BRANCH  18  21
ATOM     21  C   UNL     1      48.936   7.189  16.683  0.00  0.00    +0.000 A 
ATOM     22  C   UNL     1      49.730   7.969  15.852  0.00  0.00    +0.000 A 
ATOM     23  S   UNL     1      49.951   9.562  16.414  0.00  0.00    +0.000 S 
ATOM     24  C   UNL     1      49.032   9.254  17.811  0.00  0.00    +0.000 A 
ATOM     25  N   UNL     1      48.849  10.219  18.752  0.00  0.00    +0.000 NA
ATOM     26  C   UNL     1      48.159   9.844  19.776  0.00  0.00    +0.000 A 
ATOM     27  N   UNL     1      47.626   8.590  19.942  0.00  0.00    +0.000 N 
ATOM     28  C   UNL     1      47.736   7.601  18.992  0.00  0.00    +0.000 A 
ATOM     29  O   UNL     1      47.165   6.523  19.123  0.00  0.00    +0.000 OA
ATOM     30  C   UNL     1      48.538   7.961  17.837  0.00  0.00    +0.000 A 
ATOM     31  H   UNL     1      47.076   8.369  20.759  0.00  0.00    +0.000 HD
ENDBRANCH  18  21
ENDBRANCH   1  17
TORSDOF 6
ENDMDL
MODEL 9
REMARK VINA RESULT:    -6.549      3.383      8.558
REMARK INTER + INTRA:          -9.720
REMARK INTER:                  -8.710
REMARK INTRA:                  -1.011
REMARK UNBOUND:                -0.874
REMARK  Name = 
REMARK  6 active torsions:
REMARK  status: ('A' for Active; 'I' for Inactive)
REMARK    1  A    between atoms: C_2  and  C_3
REMARK    2  A    between atoms: C_5  and  C_6
REMARK    3  A    between atoms: C_6  and  N_7
REMARK    4  A    between atoms: C_8  and  C_10
REMARK    5  A    between atoms: C_22  and  C_23
REMARK    6  A    between atoms: C_23  and  C_24
REMARK                            x       y       z     vdW  Elec       q    Type
REMARK                         _______ _______ _______ _____ _____    ______ ____
ROOT
ATOM      1  C   UNL     1      48.348   7.854  14.646  0.00  0.00    +0.000 C 
ENDROOT
BRANCH   1   4
ATOM      2  C   UNL     1      48.543   4.714  16.799  0.00  0.00    +0.000 A 
ATOM      3  C   UNL     1      48.029   5.736  15.992  0.00  0.00    +0.000 A 
ATOM      4  C   UNL     1      48.865   6.754  15.522  0.00  0.00    +0.000 A 
ATOM      5  C   UNL     1      50.190   6.729  15.929  0.00  0.00    +0.000 A 
ATOM      6  N   UNL     1      50.722   5.750  16.694  0.00  0.00    +0.000 NA
ATOM      7  C   UNL     1      49.904   4.741  17.112  0.00  0.00    +0.000 A 
BRANCH   2   9
ATOM      8  N   UNL     1      46.980   2.836  17.657  0.00  0.00    +0.000 NA
ATOM      9  C   UNL     1      47.650   3.706  17.285  0.00  0.00    +0.000 C 
ENDBRANCH   2   9
BRANCH   7  10
ATOM     10  C   UNL     1      50.598   3.611  17.841  0.00  0.00    +0.000 C 
BRANCH  10  11
ATOM     11  C   UNL     1      51.462   4.117  18.974  0.00  0.00    +0.000 A 
ATOM     12  C   UNL     1      52.834   3.855  18.994  0.00  0.00    +0.000 A 
ATOM     13  C   UNL     1      53.582   4.254  20.097  0.00  0.00    +0.000 A 
ATOM     14  C   UNL     1      52.953   4.921  21.139  0.00  0.00    +0.000 A 
ATOM     15  C   UNL     1      51.596   5.170  21.030  0.00  0.00    +0.000 A 
ATOM     16  N   UNL     1      50.839   4.778  19.980  0.00  0.00    +0.000 NA
ENDBRANCH  10  11
ENDBRANCH   7  10
ENDBRANCH   1   4
BRANCH   1  17
ATOM     17  N   UNL     1      47.133   7.465  13.978  0.00  0.00    +0.000 N 
ATOM     18  C   UNL     1      47.139   6.754  12.805  0.00  0.00    +0.000 C 
ATOM     19  O   UNL     1      48.183   6.398  12.269  0.00  0.00    +0.000 OA
ATOM     20  H   UNL     1      46.271   7.898  14.298  0.00  0.00    +0.000 HD
BRANCH  18  21
ATOM     21  C   UNL     1      45.828   6.387  12.257  0.00  0.00    +0.000 A 
ATOM     22  C   UNL     1      45.046   7.364  11.654  0.00  0.00    +0.000 A 
ATOM     23  S   UNL     1      43.571   6.776  11.037  0.00  0.00    +0.000 S 
ATOM     24  C   UNL     1      43.903   5.204  11.593  0.00  0.00    +0.000 A 
ATOM     25  N   UNL     1      43.008   4.196  11.409  0.00  0.00    +0.000 NA
ATOM     26  C   UNL     1      43.370   3.062  11.907  0.00  0.00    +0.000 A 
ATOM     27  N   UNL     1      44.553   2.841  12.567  0.00  0.00    +0.000 N 
ATOM     28  C   UNL     1      45.512   3.813  12.726  0.00  0.00    +0.000 A 
ATOM     29  O   UNL     1      46.601   3.561  13.232  0.00  0.00    +0.000 OA
ATOM     30  C   UNL     1      45.135   5.120  12.217  0.00  0.00    +0.000 A 
ATOM     31  H   UNL     1      44.784   1.921  12.913  0.00  0.00    +0.000 HD
ENDBRANCH  18  21
ENDBRANCH   1  17
TORSDOF 6
ENDMDL
