MODEL 1
REMARK VINA RESULT:    -7.679      0.000      0.000
REMARK INTER + INTRA:          -9.096
REMARK INTER:                  -9.699
REMARK INTRA:                   0.603
REMARK UNBOUND:                 0.603
REMARK  Name = 
REMARK  5 active torsions:
REMARK  status: ('A' for Active; 'I' for Inactive)
REMARK    1  A    between atoms: N_1  and  C_2
REMARK    2  A    between atoms: C_2  and  C_3
REMARK    3  A    between atoms: C_3  and  C_4
REMARK    4  A    between atoms: N_7  and  C_8
REMARK    5  A    between atoms: C_8  and  N_9
REMARK                            x       y       z     vdW  Elec       q    Type
REMARK                         _______ _______ _______ _____ _____    ______ ____
ROOT
ATOM      1  C   UNL     1      44.433   5.712  13.009  0.00  0.00    +0.000 C 
ATOM      2  C   UNL     1      45.375   4.511  13.172  0.00  0.00    +0.000 C 
ATOM      3  C   UNL     1      45.315   3.547  11.977  0.00  0.00    +0.000 C 
ATOM      4  N   UNL     1      43.950   3.099  11.632  0.00  0.00    +0.000 NA
ATOM      5  C   UNL     1      43.015   4.230  11.511  0.00  0.00    +0.000 C 
ATOM      6  C   UNL     1      43.034   5.152  12.736  0.00  0.00    +0.000 C 
ENDROOT
BRANCH   1   7
ATOM      7  C   UNL     1      44.918   6.700  11.921  0.00  0.00    +0.000 C 
BRANCH   7   8
ATOM      8  C   UNL     1      45.748   7.855  12.495  0.00  0.00    +0.000 C 
BRANCH   8   9
ATOM      9  N   UNL     1      44.914   9.028  12.727  0.00  0.00    +0.000 NA
ATOM     10  H   UNL     1      43.964   8.822  12.417  0.00  0.00    +0.000 HD
ATOM     11  H   UNL     1      45.236   9.798  12.140  0.00  0.00    +0.000 HD
ENDBRANCH   8   9
ENDBRANCH   7   8
ENDBRANCH   1   7
BRANCH   4  12
ATOM     12  C   UNL     1      44.022   2.306  10.380  0.00  0.00    +0.000 C 
BRANCH  12  13
ATOM     13  N   UNL     1      44.794   3.004   9.356  0.00  0.00    +0.000 N 
ATOM     14  C   UNL     1      44.753   4.348   9.119  0.00  0.00    +0.000 A 
ATOM     15  N   UNL     1      45.610   4.707   8.187  0.00  0.00    +0.000 NA
ATOM     16  C   UNL     1      46.222   3.541   7.797  0.00  0.00    +0.000 A 
ATOM     17  C   UNL     1      47.250   3.350   6.859  0.00  0.00    +0.000 A 
ATOM     18  C   UNL     1      47.722   2.054   6.629  0.00  0.00    +0.000 A 
ATOM     19  C   UNL     1      47.146   0.962   7.281  0.00  0.00    +0.000 A 
ATOM     20  C   UNL     1      46.106   1.131   8.204  0.00  0.00    +0.000 A 
ATOM     21  C   UNL     1      45.690   2.442   8.471  0.00  0.00    +0.000 A 
ENDBRANCH  12  13
ENDBRANCH   4  12
TORSDOF 5
ENDMDL
MODEL 2
REMARK VINA RESULT:    -6.906      2.196      3.713
REMARK INTER + INTRA:          -8.120
REMARK INTER:                  -8.430
REMARK INTRA:                   0.309
REMARK UNBOUND:                 0.603
REMARK  Name = 
REMARK  5 active torsions:
REMARK  status: ('A' for Active; 'I' for Inactive)
REMARK    1  A    between atoms: N_1  and  C_2
REMARK    2  A    between atoms: C_2  and  C_3
REMARK    3  A    between atoms: C_3  and  C_4
REMARK    4  A    between atoms: N_7  and  C_8
REMARK    5  A    between atoms: C_8  and  N_9
REMARK                            x       y       z     vdW  Elec       q    Type
REMARK                         _______ _______ _______ _____ _____    ______ ____
ROOT
ATOM      1  C   UNL     1      47.630   7.350  13.129  0.00  0.00    +0.000 C 
ATOM      2  C   UNL     1      47.075   5.936  13.353  0.00  0.00    +0.000 C 
ATOM      3  C   UNL     1      45.890   5.614  12.430  0.00  0.00    +0.000 C 
ATOM      4  N   UNL     1      44.805   6.615  12.472  0.00  0.00    +0.000 NA
ATOM      5  C   UNL     1      45.314   7.986  12.302  0.00  0.00    +0.000 C 
ATOM      6  C   UNL     1      46.455   8.322  13.271  0.00  0.00    +0.000 C 
ENDROOT
BRANCH   1   7
ATOM      7  C   UNL     1      48.375   7.485  11.779  0.00  0.00    +0.000 C 
BRANCH   7   8
ATOM      8  C   UNL     1      49.712   8.226  11.910  0.00  0.00    +0.000 C 
BRANCH   8   9
ATOM      9  N   UNL     1      50.815   7.391  11.451  0.00  0.00    +0.000 NA
ATOM     10  H   UNL     1      51.429   7.192  12.242  0.00  0.00    +0.000 HD
ATOM     11  H   UNL     1      51.384   7.913  10.784  0.00  0.00    +0.000 HD
ENDBRANCH   8   9
ENDBRANCH   7   8
ENDBRANCH   1   7
BRANCH   4  12
ATOM     12  C   UNL     1      43.806   6.265  11.432  0.00  0.00    +0.000 C 
BRANCH  12  13
ATOM     13  N   UNL     1      43.865   4.843  11.102  0.00  0.00    +0.000 N 
ATOM     14  C   UNL     1      43.230   3.849  11.789  0.00  0.00    +0.000 A 
ATOM     15  N   UNL     1      43.403   2.674  11.220  0.00  0.00    +0.000 NA
ATOM     16  C   UNL     1      44.194   2.922  10.125  0.00  0.00    +0.000 A 
ATOM     17  C   UNL     1      44.650   2.029   9.141  0.00  0.00    +0.000 A 
ATOM     18  C   UNL     1      45.451   2.517   8.104  0.00  0.00    +0.000 A 
ATOM     19  C   UNL     1      45.836   3.859   8.076  0.00  0.00    +0.000 A 
ATOM     20  C   UNL     1      45.408   4.759   9.060  0.00  0.00    +0.000 A 
ATOM     21  C   UNL     1      44.553   4.267  10.055  0.00  0.00    +0.000 A 
ENDBRANCH  12  13
ENDBRANCH   4  12
TORSDOF 5
ENDMDL
MODEL 3
REMARK VINA RESULT:    -6.729      2.062      6.284
REMARK INTER + INTRA:          -7.896
REMARK INTER:                  -7.532
REMARK INTRA:                  -0.364
REMARK UNBOUND:                 0.603
REMARK  Name = 
REMARK  5 active torsions:
REMARK  status: ('A' for Active; 'I' for Inactive)
REMARK    1  A    between atoms: N_1  and  C_2
REMARK    2  A    between atoms: C_2  and  C_3
REMARK    3  A    between atoms: C_3  and  C_4
REMARK    4  A    between atoms: N_7  and  C_8
REMARK    5  A    between atoms: C_8  and  N_9
REMARK                            x       y       z     vdW  Elec       q    Type
REMARK                         _______ _______ _______ _____ _____    ______ ____
ROOT
ATOM      1  C   UNL     1      44.813   2.805   8.576  0.00  0.00    +0.000 C 
ATOM      2  C   UNL     1      44.958   4.325   8.422  0.00  0.00    +0.000 C 
ATOM      3  C   UNL     1      45.687   4.972   9.609  0.00  0.00    +0.000 C 
ATOM      4  N   UNL     1      45.112   4.632  10.927  0.00  0.00    +0.000 NA
ATOM      5  C   UNL     1      44.923   3.180  11.085  0.00  0.00    +0.000 C 
ATOM      6  C   UNL     1      44.138   2.552   9.927  0.00  0.00    +0.000 C 
ENDROOT
BRANCH   1   7
ATOM      7  C   UNL     1      46.163   2.064   8.419  0.00  0.00    +0.000 C 
BRANCH   7   8
ATOM      8  C   UNL     1      46.857   2.369   7.086  0.00  0.00    +0.000 C 
BRANCH   8   9
ATOM      9  N   UNL     1      47.987   1.473   6.872  0.00  0.00    +0.000 NA
ATOM     10  H   UNL     1      48.455   1.735   6.003  0.00  0.00    +0.000 HD
ATOM     11  H   UNL     1      47.646   0.522   6.726  0.00  0.00    +0.000 HD
ENDBRANCH   8   9
ENDBRANCH   7   8
ENDBRANCH   1   7
BRANCH   4  12
ATOM     12  C   UNL     1      45.996   5.191  11.979  0.00  0.00    +0.000 C 
BRANCH  12  13
ATOM     13  N   UNL     1      45.933   6.650  11.999  0.00  0.00    +0.000 N 
ATOM     14  C   UNL     1      44.791   7.388  12.124  0.00  0.00    +0.000 A 
ATOM     15  N   UNL     1      45.047   8.678  12.185  0.00  0.00    +0.000 NA
ATOM     16  C   UNL     1      46.413   8.776  12.083  0.00  0.00    +0.000 A 
ATOM     17  C   UNL     1      47.225   9.921  12.134  0.00  0.00    +0.000 A 
ATOM     18  C   UNL     1      48.610   9.772  12.010  0.00  0.00    +0.000 A 
ATOM     19  C   UNL     1      49.173   8.514  11.788  0.00  0.00    +0.000 A 
ATOM     20  C   UNL     1      48.376   7.364  11.714  0.00  0.00    +0.000 A 
ATOM     21  C   UNL     1      46.997   7.523  11.905  0.00  0.00    +0.000 A 
ENDBRANCH  12  13
ENDBRANCH   4  12
TORSDOF 5
ENDMDL
MODEL 4
REMARK VINA RESULT:    -6.480      2.331      4.211
REMARK INTER + INTRA:          -7.582
REMARK INTER:                  -7.381
REMARK INTRA:                  -0.201
REMARK UNBOUND:                 0.603
REMARK  Name = 
REMARK  5 active torsions:
REMARK  status: ('A' for Active; 'I' for Inactive)
REMARK    1  A    between atoms: N_1  and  C_2
REMARK    2  A    between atoms: C_2  and  C_3
REMARK    3  A    between atoms: C_3  and  C_4
REMARK    4  A    between atoms: N_7  and  C_8
REMARK    5  A    between atoms: C_8  and  N_9
REMARK                            x       y       z     vdW  Elec       q    Type
REMARK                         _______ _______ _______ _____ _____    ______ ____
ROOT
ATOM      1  C   UNL     1      48.367   8.112  13.069  0.00  0.00    +0.000 C 
ATOM      2  C   UNL     1      47.373   8.853  12.164  0.00  0.00    +0.000 C 
ATOM      3  C   UNL     1      45.964   8.243  12.211  0.00  0.00    +0.000 C 
ATOM      4  N   UNL     1      45.927   6.790  11.950  0.00  0.00    +0.000 NA
ATOM      5  C   UNL     1      46.903   6.058  12.775  0.00  0.00    +0.000 C 
ATOM      6  C   UNL     1      48.320   6.634  12.673  0.00  0.00    +0.000 C 
ENDROOT
BRANCH   1   7
ATOM      7  C   UNL     1      48.088   8.351  14.572  0.00  0.00    +0.000 C 
BRANCH   7   8
ATOM      8  C   UNL     1      49.042   7.570  15.485  0.00  0.00    +0.000 C 
BRANCH   8   9
ATOM      9  N   UNL     1      48.309   6.610  16.301  0.00  0.00    +0.000 NA
ATOM     10  H   UNL     1      48.847   6.419  17.148  0.00  0.00    +0.000 HD
ATOM     11  H   UNL     1      48.247   5.719  15.808  0.00  0.00    +0.000 HD
ENDBRANCH   8   9
ENDBRANCH   7   8
ENDBRANCH   1   7
BRANCH   4  12
ATOM     12  C   UNL     1      44.542   6.310  12.176  0.00  0.00    +0.000 C 
BRANCH  12  13
ATOM     13  N   UNL     1      44.352   4.970  11.628  0.00  0.00    +0.000 N 
ATOM     14  C   UNL     1      43.678   3.955  12.245  0.00  0.00    +0.000 A 
ATOM     15  N   UNL     1      43.603   2.884  11.484  0.00  0.00    +0.000 NA
ATOM     16  C   UNL     1      44.269   3.219  10.330  0.00  0.00    +0.000 A 
ATOM     17  C   UNL     1      44.457   2.460   9.163  0.00  0.00    +0.000 A 
ATOM     18  C   UNL     1      45.174   3.020   8.102  0.00  0.00    +0.000 A 
ATOM     19  C   UNL     1      45.740   4.291   8.219  0.00  0.00    +0.000 A 
ATOM     20  C   UNL     1      45.581   5.054   9.384  0.00  0.00    +0.000 A 
ATOM     21  C   UNL     1      44.804   4.504  10.411  0.00  0.00    +0.000 A 
ENDBRANCH  12  13
ENDBRANCH   4  12
TORSDOF 5
ENDMDL
MODEL 5
REMARK VINA RESULT:    -6.042      5.827      8.249
REMARK INTER + INTRA:          -7.029
REMARK INTER:                  -6.609
REMARK INTRA:                  -0.420
REMARK UNBOUND:                 0.603
REMARK  Name = 
REMARK  5 active torsions:
REMARK  status: ('A' for Active; 'I' for Inactive)
REMARK    1  A    between atoms: N_1  and  C_2
REMARK    2  A    between atoms: C_2  and  C_3
REMARK    3  A    between atoms: C_3  and  C_4
REMARK    4  A    between atoms: N_7  and  C_8
REMARK    5  A    between atoms: C_8  and  N_9
REMARK                            x       y       z     vdW  Elec       q    Type
REMARK                         _______ _______ _______ _____ _____    ______ ____
ROOT
ATOM      1  C   UNL     1      46.494   5.249  12.761  0.00  0.00    +0.000 C 
ATOM      2  C   UNL     1      46.775   3.849  13.325  0.00  0.00    +0.000 C 
ATOM      3  C   UNL     1      47.040   3.865  14.838  0.00  0.00    +0.000 C 
ATOM      4  N   UNL     1      48.087   4.818  15.257  0.00  0.00    +0.000 NA
ATOM      5  C   UNL     1      47.865   6.161  14.695  0.00  0.00    +0.000 C 
ATOM      6  C   UNL     1      47.666   6.144  13.175  0.00  0.00    +0.000 C 
ENDROOT
BRANCH   1   7
ATOM      7  C   UNL     1      45.118   5.800  13.207  0.00  0.00    +0.000 C 
BRANCH   7   8
ATOM      8  C   UNL     1      43.969   4.822  12.930  0.00  0.00    +0.000 C 
BRANCH   8   9
ATOM      9  N   UNL     1      42.693   5.390  13.349  0.00  0.00    +0.000 NA
ATOM     10  H   UNL     1      42.373   6.044  12.635  0.00  0.00    +0.000 HD
ATOM     11  H   UNL     1      42.827   5.947  14.193  0.00  0.00    +0.000 HD
ENDBRANCH   8   9
ENDBRANCH   7   8
ENDBRANCH   1   7
BRANCH   4  12
ATOM     12  C   UNL     1      48.131   4.841  16.741  0.00  0.00    +0.000 C 
BRANCH  12  13
ATOM     13  N   UNL     1      49.508   4.827  17.227  0.00  0.00    +0.000 N 
ATOM     14  C   UNL     1      50.200   5.921  17.663  0.00  0.00    +0.000 A 
ATOM     15  N   UNL     1      51.394   5.597  18.112  0.00  0.00    +0.000 NA
ATOM     16  C   UNL     1      51.479   4.236  17.948  0.00  0.00    +0.000 A 
ATOM     17  C   UNL     1      52.524   3.365  18.301  0.00  0.00    +0.000 A 
ATOM     18  C   UNL     1      52.382   1.999  18.036  0.00  0.00    +0.000 A 
ATOM     19  C   UNL     1      51.246   1.516  17.385  0.00  0.00    +0.000 A 
ATOM     20  C   UNL     1      50.204   2.373  17.007  0.00  0.00    +0.000 A 
ATOM     21  C   UNL     1      50.334   3.728  17.339  0.00  0.00    +0.000 A 
ENDBRANCH  12  13
ENDBRANCH   4  12
TORSDOF 5
ENDMDL
MODEL 6
REMARK VINA RESULT:    -5.960      3.656      7.283
REMARK INTER + INTRA:          -6.925
REMARK INTER:                  -6.525
REMARK INTRA:                  -0.400
REMARK UNBOUND:                 0.603
REMARK  Name = 
REMARK  5 active torsions:
REMARK  status: ('A' for Active; 'I' for Inactive)
REMARK    1  A    between atoms: N_1  and  C_2
REMARK    2  A    between atoms: C_2  and  C_3
REMARK    3  A    between atoms: C_3  and  C_4
REMARK    4  A    between atoms: N_7  and  C_8
REMARK    5  A    between atoms: C_8  and  N_9
REMARK                            x       y       z     vdW  Elec       q    Type
REMARK                         _______ _______ _______ _____ _____    ______ ____
ROOT
ATOM      1  C   UNL     1      43.950   5.897  11.503  0.00  0.00    +0.000 C 
ATOM      2  C   UNL     1      44.818   7.164  11.480  0.00  0.00    +0.000 C 
ATOM      3  C   UNL     1      46.269   6.894  11.905  0.00  0.00    +0.000 C 
ATOM      4  N   UNL     1      46.397   6.195  13.201  0.00  0.00    +0.000 NA
ATOM      5  C   UNL     1      45.542   4.998  13.267  0.00  0.00    +0.000 C 
ATOM      6  C   UNL     1      44.081   5.289  12.903  0.00  0.00    +0.000 C 
ENDROOT
BRANCH   1   7
ATOM      7  C   UNL     1      44.318   4.909  10.371  0.00  0.00    +0.000 C 
BRANCH   7   8
ATOM      8  C   UNL     1      43.792   3.490  10.626  0.00  0.00    +0.000 C 
BRANCH   8   9
ATOM      9  N   UNL     1      44.878   2.518  10.579  0.00  0.00    +0.000 NA
ATOM     10  H   UNL     1      44.510   1.602  10.837  0.00  0.00    +0.000 HD
ATOM     11  H   UNL     1      45.573   2.747  11.291  0.00  0.00    +0.000 HD
ENDBRANCH   8   9
ENDBRANCH   7   8
ENDBRANCH   1   7
BRANCH   4  12
ATOM     12  C   UNL     1      47.827   5.864  13.413  0.00  0.00    +0.000 C 
BRANCH  12  13
ATOM     13  N   UNL     1      48.250   6.198  14.770  0.00  0.00    +0.000 N 
ATOM     14  C   UNL     1      48.880   7.352  15.138  0.00  0.00    +0.000 A 
ATOM     15  N   UNL     1      49.074   7.411  16.439  0.00  0.00    +0.000 NA
ATOM     16  C   UNL     1      48.556   6.237  16.929  0.00  0.00    +0.000 A 
ATOM     17  C   UNL     1      48.460   5.799  18.261  0.00  0.00    +0.000 A 
ATOM     18  C   UNL     1      47.883   4.553  18.522  0.00  0.00    +0.000 A 
ATOM     19  C   UNL     1      47.456   3.734  17.475  0.00  0.00    +0.000 A 
ATOM     20  C   UNL     1      47.563   4.146  16.139  0.00  0.00    +0.000 A 
ATOM     21  C   UNL     1      48.084   5.424  15.900  0.00  0.00    +0.000 A 
ENDBRANCH  12  13
ENDBRANCH   4  12
TORSDOF 5
ENDMDL
MODEL 7
REMARK VINA RESULT:    -5.917      3.081      6.427
REMARK INTER + INTRA:          -6.871
REMARK INTER:                  -6.498
REMARK INTRA:                  -0.373
REMARK UNBOUND:                 0.603
REMARK  Name = 
REMARK  5 active torsions:
REMARK  status: ('A' for Active; 'I' for Inactive)
REMARK    1  A    between atoms: N_1  and  C_2
REMARK    2  A    between atoms: C_2  and  C_3
REMARK    3  A    between atoms: C_3  and  C_4
REMARK    4  A    between atoms: N_7  and  C_8
REMARK    5  A    between atoms: C_8  and  N_9
REMARK                            x       y       z     vdW  Elec       q    Type
REMARK                         _______ _______ _______ _____ _____    ______ ____
ROOT
ATOM      1  C   UNL     1      44.293   4.720  10.626  0.00  0.00    +0.000 C 
ATOM      2  C   UNL     1      45.481   5.413   9.942  0.00  0.00    +0.000 C 
ATOM      3  C   UNL     1      46.361   6.190  10.931  0.00  0.00    +0.000 C 
ATOM      4  N   UNL     1      45.618   7.143  11.780  0.00  0.00    +0.000 NA
ATOM      5  C   UNL     1      44.448   6.515  12.417  0.00  0.00    +0.000 C 
ATOM      6  C   UNL     1      43.539   5.796  11.413  0.00  0.00    +0.000 C 
ENDROOT
BRANCH   1   7
ATOM      7  C   UNL     1      44.733   3.521  11.499  0.00  0.00    +0.000 C 
BRANCH   7   8
ATOM      8  C   UNL     1      43.583   2.938  12.331  0.00  0.00    +0.000 C 
BRANCH   8   9
ATOM      9  N   UNL     1      42.950   1.826  11.633  0.00  0.00    +0.000 NA
ATOM     10  H   UNL     1      43.630   1.073  11.529  0.00  0.00    +0.000 HD
ATOM     11  H   UNL     1      42.707   2.112  10.685  0.00  0.00    +0.000 HD
ENDBRANCH   8   9
ENDBRANCH   7   8
ENDBRANCH   1   7
BRANCH   4  12
ATOM     12  C   UNL     1      46.556   7.705  12.783  0.00  0.00    +0.000 C 
BRANCH  12  13
ATOM     13  N   UNL     1      47.310   8.826  12.229  0.00  0.00    +0.000 N 
ATOM     14  C   UNL     1      46.824  10.089  12.047  0.00  0.00    +0.000 A 
ATOM     15  N   UNL     1      47.751  10.910  11.599  0.00  0.00    +0.000 NA
ATOM     16  C   UNL     1      48.881  10.139  11.476  0.00  0.00    +0.000 A 
ATOM     17  C   UNL     1      50.174  10.518  11.078  0.00  0.00    +0.000 A 
ATOM     18  C   UNL     1      51.179   9.547  11.032  0.00  0.00    +0.000 A 
ATOM     19  C   UNL     1      50.891   8.213  11.324  0.00  0.00    +0.000 A 
ATOM     20  C   UNL     1      49.602   7.812  11.702  0.00  0.00    +0.000 A 
ATOM     21  C   UNL     1      48.623   8.809  11.806  0.00  0.00    +0.000 A 
ENDBRANCH  12  13
ENDBRANCH   4  12
TORSDOF 5
ENDMDL
MODEL 8
REMARK VINA RESULT:    -5.882      5.210      7.885
REMARK INTER + INTRA:          -6.826
REMARK INTER:                  -6.424
REMARK INTRA:                  -0.403
REMARK UNBOUND:                 0.603
REMARK  Name = 
REMARK  5 active torsions:
REMARK  status: ('A' for Active; 'I' for Inactive)
REMARK    1  A    between atoms: N_1  and  C_2
REMARK    2  A    between atoms: C_2  and  C_3
REMARK    3  A    between atoms: C_3  and  C_4
REMARK    4  A    between atoms: N_7  and  C_8
REMARK    5  A    between atoms: C_8  and  N_9
REMARK                            x       y       z     vdW  Elec       q    Type
REMARK                         _______ _______ _______ _____ _____    ______ ____
ROOT
ATOM      1  C   UNL     1      46.661   6.531  12.303  0.00  0.00    +0.000 C 
ATOM      2  C   UNL     1      46.132   5.101  12.485  0.00  0.00    +0.000 C 
ATOM      3  C   UNL     1      46.166   4.642  13.951  0.00  0.00    +0.000 C 
ATOM      4  N   UNL     1      47.482   4.801  14.602  0.00  0.00    +0.000 NA
ATOM      5  C   UNL     1      48.033   6.152  14.406  0.00  0.00    +0.000 C 
ATOM      6  C   UNL     1      48.055   6.578  12.933  0.00  0.00    +0.000 C 
ENDROOT
BRANCH   1   7
ATOM      7  C   UNL     1      45.695   7.595  12.876  0.00  0.00    +0.000 C 
BRANCH   7   8
ATOM      8  C   UNL     1      44.953   8.375  11.783  0.00  0.00    +0.000 C 
BRANCH   8   9
ATOM      9  N   UNL     1      43.760   7.656  11.352  0.00  0.00    +0.000 NA
ATOM     10  H   UNL     1      43.753   6.735  11.793  0.00  0.00    +0.000 HD
ATOM     11  H   UNL     1      43.811   7.480  10.348  0.00  0.00    +0.000 HD
ENDBRANCH   8   9
ENDBRANCH   7   8
ENDBRANCH   1   7
BRANCH   4  12
ATOM     12  C   UNL     1      47.334   4.468  16.040  0.00  0.00    +0.000 C 
BRANCH  12  13
ATOM     13  N   UNL     1      48.458   3.664  16.513  0.00  0.00    +0.000 N 
ATOM     14  C   UNL     1      48.598   2.319  16.325  0.00  0.00    +0.000 A 
ATOM     15  N   UNL     1      49.745   1.876  16.795  0.00  0.00    +0.000 NA
ATOM     16  C   UNL     1      50.365   2.982  17.321  0.00  0.00    +0.000 A 
ATOM     17  C   UNL     1      51.635   3.089  17.914  0.00  0.00    +0.000 A 
ATOM     18  C   UNL     1      52.061   4.337  18.378  0.00  0.00    +0.000 A 
ATOM     19  C   UNL     1      51.220   5.448  18.302  0.00  0.00    +0.000 A 
ATOM     20  C   UNL     1      49.942   5.356  17.733  0.00  0.00    +0.000 A 
ATOM     21  C   UNL     1      49.558   4.113  17.214  0.00  0.00    +0.000 A 
ENDBRANCH  12  13
ENDBRANCH   4  12
TORSDOF 5
ENDMDL
MODEL 9
REMARK VINA RESULT:    -5.784      2.462      6.425
REMARK INTER + INTRA:          -6.703
REMARK INTER:                  -6.482
REMARK INTRA:                  -0.221
REMARK UNBOUND:                 0.603
REMARK  Name = 
REMARK  5 active torsions:
REMARK  status: ('A' for Active; 'I' for Inactive)
REMARK    1  A    between atoms: N_1  and  C_2
REMARK    2  A    between atoms: C_2  and  C_3
REMARK    3  A    between atoms: C_3  and  C_4
REMARK    4  A    between atoms: N_7  and  C_8
REMARK    5  A    between atoms: C_8  and  N_9
REMARK                            x       y       z     vdW  Elec       q    Type
REMARK                         _______ _______ _______ _____ _____    ______ ____
ROOT
ATOM      1  C   UNL     1      43.847   4.216  10.165  0.00  0.00    +0.000 C 
ATOM      2  C   UNL     1      44.993   5.161   9.778  0.00  0.00    +0.000 C 
ATOM      3  C   UNL     1      45.921   5.479  10.960  0.00  0.00    +0.000 C 
ATOM      4  N   UNL     1      45.218   5.973  12.162  0.00  0.00    +0.000 NA
ATOM      5  C   UNL     1      44.086   5.107  12.531  0.00  0.00    +0.000 C 
ATOM      6  C   UNL     1      43.129   4.846  11.362  0.00  0.00    +0.000 C 
ENDROOT
BRANCH   1   7
ATOM      7  C   UNL     1      44.337   2.773  10.438  0.00  0.00    +0.000 C 
BRANCH   7   8
ATOM      8  C   UNL     1      44.436   1.928   9.162  0.00  0.00    +0.000 C 
BRANCH   8   9
ATOM      9  N   UNL     1      45.830   1.694   8.802  0.00  0.00    +0.000 NA
ATOM     10  H   UNL     1      46.414   1.855   9.623  0.00  0.00    +0.000 HD
ATOM     11  H   UNL     1      46.126   2.386   8.113  0.00  0.00    +0.000 HD
ENDBRANCH   8   9
ENDBRANCH   7   8
ENDBRANCH   1   7
BRANCH   4  12
ATOM     12  C   UNL     1      46.205   6.092  13.264  0.00  0.00    +0.000 C 
BRANCH  12  13
ATOM     13  N   UNL     1      47.296   6.990  12.899  0.00  0.00    +0.000 N 
ATOM     14  C   UNL     1      48.619   6.652  12.869  0.00  0.00    +0.000 A 
ATOM     15  N   UNL     1      49.368   7.642  12.432  0.00  0.00    +0.000 NA
ATOM     16  C   UNL     1      48.490   8.668  12.181  0.00  0.00    +0.000 A 
ATOM     17  C   UNL     1      48.748   9.947  11.658  0.00  0.00    +0.000 A 
ATOM     18  C   UNL     1      47.681  10.833  11.484  0.00  0.00    +0.000 A 
ATOM     19  C   UNL     1      46.389  10.473  11.871  0.00  0.00    +0.000 A 
ATOM     20  C   UNL     1      46.116   9.211  12.414  0.00  0.00    +0.000 A 
ATOM     21  C   UNL     1      47.186   8.312  12.520  0.00  0.00    +0.000 A 
ENDBRANCH  12  13
ENDBRANCH   4  12
TORSDOF 5
ENDMDL
