MODEL 1
REMARK VINA RESULT:    -8.576      0.000      0.000
REMARK INTER + INTRA:         -12.776
REMARK INTER:                 -12.086
REMARK INTRA:                  -0.690
REMARK UNBOUND:                -0.690
REMARK  Name = 
REMARK  8 active torsions:
REMARK  status: ('A' for Active; 'I' for Inactive)
REMARK    1  A    between atoms: C_1  and  C_2
REMARK    2  A    between atoms: C_2  and  C_3
REMARK    3  A    between atoms: C_3  and  N_4
REMARK    4  A    between atoms: C_3  and  C_17
REMARK    5  A    between atoms: C_5  and  C_7
REMARK    6  A    between atoms: C_20  and  C_21
REMARK    7  A    between atoms: C_21  and  O_22
REMARK    8  A    between atoms: O_22  and  C_23
REMARK                            x       y       z     vdW  Elec       q    Type
REMARK                         _______ _______ _______ _____ _____    ______ ____
ROOT
ATOM      1  C   UNL     1      46.724   8.087  13.026  0.00  0.00    +0.000 C 
ENDROOT
BRANCH   1   2
ATOM      2  C   UNL     1      46.012   6.962  12.287  0.00  0.00    +0.000 A 
ATOM      3  C   UNL     1      46.407   6.652  10.974  0.00  0.00    +0.000 A 
ATOM      4  C   UNL     1      45.829   5.586  10.277  0.00  0.00    +0.000 A 
ATOM      5  C   UNL     1      44.821   4.815  10.866  0.00  0.00    +0.000 A 
ATOM      6  C   UNL     1      44.394   5.145  12.159  0.00  0.00    +0.000 A 
ATOM      7  C   UNL     1      44.968   6.217  12.853  0.00  0.00    +0.000 A 
BRANCH   5   8
ATOM      8  C   UNL     1      44.200   3.653  10.126  0.00  0.00    +0.000 C 
BRANCH   8   9
ATOM      9  O   UNL     1      44.332   3.852   8.716  0.00  0.00    +0.000 OA
BRANCH   9  10
ATOM     10  C   UNL     1      45.305   3.038   8.168  0.00  0.00    +0.000 A 
ATOM     11  C   UNL     1      46.121   3.595   7.196  0.00  0.00    +0.000 A 
ATOM     12  C   UNL     1      47.122   2.800   6.637  0.00  0.00    +0.000 A 
ATOM     13  C   UNL     1      47.270   1.489   7.069  0.00  0.00    +0.000 A 
ATOM     14  C   UNL     1      46.407   1.018   8.042  0.00  0.00    +0.000 A 
ATOM     15  N   UNL     1      45.428   1.764   8.600  0.00  0.00    +0.000 NA
ENDBRANCH   9  10
ENDBRANCH   8   9
ENDBRANCH   5   8
ENDBRANCH   1   2
BRANCH   1  16
ATOM     16  N   UNL     1      47.249   7.585  14.288  0.00  0.00    +0.000 N 
ATOM     17  C   UNL     1      48.304   6.706  14.324  0.00  0.00    +0.000 C 
ATOM     18  O   UNL     1      48.899   6.360  13.307  0.00  0.00    +0.000 OA
ATOM     19  H   UNL     1      46.669   7.708  15.112  0.00  0.00    +0.000 HD
BRANCH  17  20
ATOM     20  C   UNL     1      48.737   6.237  15.645  0.00  0.00    +0.000 A 
ATOM     21  C   UNL     1      49.734   6.930  16.320  0.00  0.00    +0.000 A 
ATOM     22  S   UNL     1      50.108   6.278  17.849  0.00  0.00    +0.000 S 
ATOM     23  C   UNL     1      48.983   5.018  17.644  0.00  0.00    +0.000 A 
ATOM     24  N   UNL     1      48.821   4.067  18.604  0.00  0.00    +0.000 NA
ATOM     25  C   UNL     1      47.962   3.151  18.304  0.00  0.00    +0.000 A 
ATOM     26  N   UNL     1      47.246   3.104  17.135  0.00  0.00    +0.000 N 
ATOM     27  C   UNL     1      47.353   4.062  16.152  0.00  0.00    +0.000 A 
ATOM     28  O   UNL     1      46.660   4.019  15.139  0.00  0.00    +0.000 OA
ATOM     29  C   UNL     1      48.317   5.105  16.434  0.00  0.00    +0.000 A 
ATOM     30  H   UNL     1      46.584   2.361  16.967  0.00  0.00    +0.000 HD
ENDBRANCH  17  20
ENDBRANCH   1  16
BRANCH   1  32
ATOM     31  C   UNL     1      47.468  10.227  11.811  0.00  0.00    +0.000 C 
ATOM     32  C   UNL     1      47.840   8.812  12.241  0.00  0.00    +0.000 C 
ENDBRANCH   1  32
TORSDOF 7
ENDMDL
MODEL 2
REMARK VINA RESULT:    -8.141      1.425      1.731
REMARK INTER + INTRA:         -12.163
REMARK INTER:                 -10.526
REMARK INTRA:                  -1.637
REMARK UNBOUND:                -0.690
REMARK  Name = 
REMARK  8 active torsions:
REMARK  status: ('A' for Active; 'I' for Inactive)
REMARK    1  A    between atoms: C_1  and  C_2
REMARK    2  A    between atoms: C_2  and  C_3
REMARK    3  A    between atoms: C_3  and  N_4
REMARK    4  A    between atoms: C_3  and  C_17
REMARK    5  A    between atoms: C_5  and  C_7
REMARK    6  A    between atoms: C_20  and  C_21
REMARK    7  A    between atoms: C_21  and  O_22
REMARK    8  A    between atoms: O_22  and  C_23
REMARK                            x       y       z     vdW  Elec       q    Type
REMARK                         _______ _______ _______ _____ _____    ______ ____
ROOT
ATOM      1  C   UNL     1      47.421   7.781  13.423  0.00  0.00    +0.000 C 
ENDROOT
BRANCH   1   2
ATOM      2  C   UNL     1      46.455   6.811  12.758  0.00  0.00    +0.000 A 
ATOM      3  C   UNL     1      45.425   7.321  11.947  0.00  0.00    +0.000 A 
ATOM      4  C   UNL     1      44.553   6.468  11.263  0.00  0.00    +0.000 A 
ATOM      5  C   UNL     1      44.672   5.080  11.389  0.00  0.00    +0.000 A 
ATOM      6  C   UNL     1      45.669   4.566  12.227  0.00  0.00    +0.000 A 
ATOM      7  C   UNL     1      46.537   5.420  12.918  0.00  0.00    +0.000 A 
BRANCH   5   8
ATOM      8  C   UNL     1      43.742   4.151  10.642  0.00  0.00    +0.000 C 
BRANCH   8   9
ATOM      9  O   UNL     1      43.831   4.404   9.238  0.00  0.00    +0.000 OA
BRANCH   9  10
ATOM     10  C   UNL     1      44.846   3.678   8.646  0.00  0.00    +0.000 A 
ATOM     11  C   UNL     1      44.926   2.330   8.961  0.00  0.00    +0.000 A 
ATOM     12  C   UNL     1      45.932   1.570   8.366  0.00  0.00    +0.000 A 
ATOM     13  C   UNL     1      46.813   2.179   7.483  0.00  0.00    +0.000 A 
ATOM     14  C   UNL     1      46.658   3.530   7.230  0.00  0.00    +0.000 A 
ATOM     15  N   UNL     1      45.695   4.292   7.793  0.00  0.00    +0.000 NA
ENDBRANCH   9  10
ENDBRANCH   8   9
ENDBRANCH   5   8
ENDBRANCH   1   2
BRANCH   1  16
ATOM     16  N   UNL     1      48.284   7.055  14.344  0.00  0.00    +0.000 N 
ATOM     17  C   UNL     1      48.702   7.617  15.526  0.00  0.00    +0.000 C 
ATOM     18  O   UNL     1      48.313   8.721  15.896  0.00  0.00    +0.000 OA
ATOM     19  H   UNL     1      48.758   6.233  13.983  0.00  0.00    +0.000 HD
BRANCH  17  20
ATOM     20  C   UNL     1      49.594   6.813  16.368  0.00  0.00    +0.000 A 
ATOM     21  C   UNL     1      50.811   7.346  16.774  0.00  0.00    +0.000 A 
ATOM     22  S   UNL     1      51.722   6.301  17.765  0.00  0.00    +0.000 S 
ATOM     23  C   UNL     1      50.543   5.080  17.650  0.00  0.00    +0.000 A 
ATOM     24  N   UNL     1      50.721   3.880  18.265  0.00  0.00    +0.000 NA
ATOM     25  C   UNL     1      49.767   3.033  18.067  0.00  0.00    +0.000 A 
ATOM     26  N   UNL     1      48.648   3.281  17.313  0.00  0.00    +0.000 N 
ATOM     27  C   UNL     1      48.409   4.491  16.701  0.00  0.00    +0.000 A 
ATOM     28  O   UNL     1      47.373   4.698  16.076  0.00  0.00    +0.000 OA
ATOM     29  C   UNL     1      49.460   5.471  16.881  0.00  0.00    +0.000 A 
ATOM     30  H   UNL     1      47.935   2.575  17.203  0.00  0.00    +0.000 HD
ENDBRANCH  17  20
ENDBRANCH   1  16
BRANCH   1  32
ATOM     31  C   UNL     1      49.278   7.842  11.646  0.00  0.00    +0.000 C 
ATOM     32  C   UNL     1      48.277   8.645  12.469  0.00  0.00    +0.000 C 
ENDBRANCH   1  32
TORSDOF 7
ENDMDL
MODEL 3
REMARK VINA RESULT:    -8.135      2.656      3.913
REMARK INTER + INTRA:         -12.154
REMARK INTER:                 -10.953
REMARK INTRA:                  -1.201
REMARK UNBOUND:                -0.690
REMARK  Name = 
REMARK  8 active torsions:
REMARK  status: ('A' for Active; 'I' for Inactive)
REMARK    1  A    between atoms: C_1  and  C_2
REMARK    2  A    between atoms: C_2  and  C_3
REMARK    3  A    between atoms: C_3  and  N_4
REMARK    4  A    between atoms: C_3  and  C_17
REMARK    5  A    between atoms: C_5  and  C_7
REMARK    6  A    between atoms: C_20  and  C_21
REMARK    7  A    between atoms: C_21  and  O_22
REMARK    8  A    between atoms: O_22  and  C_23
REMARK                            x       y       z     vdW  Elec       q    Type
REMARK                         _______ _______ _______ _____ _____    ______ ____
ROOT
ATOM      1  C   UNL     1      47.536   4.857  14.762  0.00  0.00    +0.000 C 
ENDROOT
BRANCH   1   2
ATOM      2  C   UNL     1      46.653   4.656  13.539  0.00  0.00    +0.000 A 
ATOM      3  C   UNL     1      46.422   5.743  12.678  0.00  0.00    +0.000 A 
ATOM      4  C   UNL     1      45.671   5.594  11.508  0.00  0.00    +0.000 A 
ATOM      5  C   UNL     1      45.109   4.356  11.178  0.00  0.00    +0.000 A 
ATOM      6  C   UNL     1      45.299   3.279  12.052  0.00  0.00    +0.000 A 
ATOM      7  C   UNL     1      46.045   3.431  13.227  0.00  0.00    +0.000 A 
BRANCH   5   8
ATOM      8  C   UNL     1      44.307   4.182   9.908  0.00  0.00    +0.000 C 
BRANCH   8   9
ATOM      9  O   UNL     1      44.319   2.808   9.513  0.00  0.00    +0.000 OA
BRANCH   9  10
ATOM     10  C   UNL     1      45.292   2.553   8.565  0.00  0.00    +0.000 A 
ATOM     11  C   UNL     1      45.585   3.570   7.670  0.00  0.00    +0.000 A 
ATOM     12  C   UNL     1      46.573   3.344   6.712  0.00  0.00    +0.000 A 
ATOM     13  C   UNL     1      47.229   2.121   6.687  0.00  0.00    +0.000 A 
ATOM     14  C   UNL     1      46.869   1.164   7.618  0.00  0.00    +0.000 A 
ATOM     15  N   UNL     1      45.915   1.354   8.556  0.00  0.00    +0.000 NA
ENDBRANCH   9  10
ENDBRANCH   8   9
ENDBRANCH   5   8
ENDBRANCH   1   2
BRANCH   1  16
ATOM     16  N   UNL     1      47.660   6.279  15.046  0.00  0.00    +0.000 N 
ATOM     17  C   UNL     1      48.805   6.802  15.595  0.00  0.00    +0.000 C 
ATOM     18  O   UNL     1      49.801   6.114  15.805  0.00  0.00    +0.000 OA
ATOM     19  H   UNL     1      46.804   6.825  15.055  0.00  0.00    +0.000 HD
BRANCH  17  20
ATOM     20  C   UNL     1      48.816   8.243  15.870  0.00  0.00    +0.000 A 
ATOM     21  C   UNL     1      49.301   9.117  14.906  0.00  0.00    +0.000 A 
ATOM     22  S   UNL     1      49.224  10.756  15.364  0.00  0.00    +0.000 S 
ATOM     23  C   UNL     1      48.582  10.354  16.887  0.00  0.00    +0.000 A 
ATOM     24  N   UNL     1      48.304  11.321  17.802  0.00  0.00    +0.000 NA
ATOM     25  C   UNL     1      47.855  10.875  18.928  0.00  0.00    +0.000 A 
ATOM     26  N   UNL     1      47.655   9.550  19.218  0.00  0.00    +0.000 N 
ATOM     27  C   UNL     1      47.891   8.539  18.313  0.00  0.00    +0.000 A 
ATOM     28  O   UNL     1      47.652   7.367  18.585  0.00  0.00    +0.000 OA
ATOM     29  C   UNL     1      48.410   8.988  17.037  0.00  0.00    +0.000 A 
ATOM     30  H   UNL     1      47.295   9.269  20.118  0.00  0.00    +0.000 HD
ENDBRANCH  17  20
ENDBRANCH   1  16
BRANCH   1  32
ATOM     31  C   UNL     1      48.109   3.045  16.495  0.00  0.00    +0.000 C 
ATOM     32  C   UNL     1      47.106   4.099  16.039  0.00  0.00    +0.000 C 
ENDBRANCH   1  32
TORSDOF 7
ENDMDL
MODEL 4
REMARK VINA RESULT:    -8.062      1.921      2.329
REMARK INTER + INTRA:         -12.051
REMARK INTER:                 -10.662
REMARK INTRA:                  -1.390
REMARK UNBOUND:                -0.690
REMARK  Name = 
REMARK  8 active torsions:
REMARK  status: ('A' for Active; 'I' for Inactive)
REMARK    1  A    between atoms: C_1  and  C_2
REMARK    2  A    between atoms: C_2  and  C_3
REMARK    3  A    between atoms: C_3  and  N_4
REMARK    4  A    between atoms: C_3  and  C_17
REMARK    5  A    between atoms: C_5  and  C_7
REMARK    6  A    between atoms: C_20  and  C_21
REMARK    7  A    between atoms: C_21  and  O_22
REMARK    8  A    between atoms: O_22  and  C_23
REMARK                            x       y       z     vdW  Elec       q    Type
REMARK                         _______ _______ _______ _____ _____    ______ ____
ROOT
ATOM      1  C   UNL     1      47.939   7.500  13.502  0.00  0.00    +0.000 C 
ENDROOT
BRANCH   1   2
ATOM      2  C   UNL     1      46.797   6.696  12.896  0.00  0.00    +0.000 A 
ATOM      3  C   UNL     1      45.893   7.339  12.032  0.00  0.00    +0.000 A 
ATOM      4  C   UNL     1      44.866   6.631  11.400  0.00  0.00    +0.000 A 
ATOM      5  C   UNL     1      44.701   5.261  11.633  0.00  0.00    +0.000 A 
ATOM      6  C   UNL     1      45.573   4.622  12.524  0.00  0.00    +0.000 A 
ATOM      7  C   UNL     1      46.595   5.334  13.162  0.00  0.00    +0.000 A 
BRANCH   5   8
ATOM      8  C   UNL     1      43.603   4.484  10.943  0.00  0.00    +0.000 C 
BRANCH   8   9
ATOM      9  O   UNL     1      43.672   4.699   9.531  0.00  0.00    +0.000 OA
BRANCH   9  10
ATOM     10  C   UNL     1      44.615   3.886   8.931  0.00  0.00    +0.000 A 
ATOM     11  C   UNL     1      44.600   2.543   9.273  0.00  0.00    +0.000 A 
ATOM     12  C   UNL     1      45.532   1.697   8.671  0.00  0.00    +0.000 A 
ATOM     13  C   UNL     1      46.434   2.220   7.755  0.00  0.00    +0.000 A 
ATOM     14  C   UNL     1      46.376   3.574   7.478  0.00  0.00    +0.000 A 
ATOM     15  N   UNL     1      45.486   4.417   8.046  0.00  0.00    +0.000 NA
ENDBRANCH   9  10
ENDBRANCH   8   9
ENDBRANCH   5   8
ENDBRANCH   1   2
BRANCH   1  16
ATOM     16  N   UNL     1      47.957   7.309  14.945  0.00  0.00    +0.000 N 
ATOM     17  C   UNL     1      48.531   8.235  15.782  0.00  0.00    +0.000 C 
ATOM     18  O   UNL     1      48.988   9.296  15.364  0.00  0.00    +0.000 OA
ATOM     19  H   UNL     1      47.757   6.376  15.290  0.00  0.00    +0.000 HD
BRANCH  17  20
ATOM     20  C   UNL     1      48.523   7.932  17.217  0.00  0.00    +0.000 A 
ATOM     21  C   UNL     1      48.185   8.930  18.122  0.00  0.00    +0.000 A 
ATOM     22  S   UNL     1      48.199   8.417  19.747  0.00  0.00    +0.000 S 
ATOM     23  C   UNL     1      48.701   6.854  19.303  0.00  0.00    +0.000 A 
ATOM     24  N   UNL     1      48.929   5.902  20.248  0.00  0.00    +0.000 NA
ATOM     25  C   UNL     1      49.340   4.773  19.776  0.00  0.00    +0.000 A 
ATOM     26  N   UNL     1      49.538   4.508  18.445  0.00  0.00    +0.000 N 
ATOM     27  C   UNL     1      49.288   5.428  17.452  0.00  0.00    +0.000 A 
ATOM     28  O   UNL     1      49.425   5.144  16.266  0.00  0.00    +0.000 OA
ATOM     29  C   UNL     1      48.839   6.719  17.932  0.00  0.00    +0.000 A 
ATOM     30  H   UNL     1      49.855   3.599  18.143  0.00  0.00    +0.000 HD
ENDBRANCH  17  20
ENDBRANCH   1  16
BRANCH   1  32
ATOM     31  C   UNL     1      49.525   7.743  11.492  0.00  0.00    +0.000 C 
ATOM     32  C   UNL     1      49.343   7.228  12.916  0.00  0.00    +0.000 C 
ENDBRANCH   1  32
TORSDOF 7
ENDMDL
MODEL 5
REMARK VINA RESULT:    -7.830      2.843      4.465
REMARK INTER + INTRA:         -11.724
REMARK INTER:                 -10.359
REMARK INTRA:                  -1.366
REMARK UNBOUND:                -0.690
REMARK  Name = 
REMARK  8 active torsions:
REMARK  status: ('A' for Active; 'I' for Inactive)
REMARK    1  A    between atoms: C_1  and  C_2
REMARK    2  A    between atoms: C_2  and  C_3
REMARK    3  A    between atoms: C_3  and  N_4
REMARK    4  A    between atoms: C_3  and  C_17
REMARK    5  A    between atoms: C_5  and  C_7
REMARK    6  A    between atoms: C_20  and  C_21
REMARK    7  A    between atoms: C_21  and  O_22
REMARK    8  A    between atoms: O_22  and  C_23
REMARK                            x       y       z     vdW  Elec       q    Type
REMARK                         _______ _______ _______ _____ _____    ______ ____
ROOT
ATOM      1  C   UNL     1      47.914   4.761  15.844  0.00  0.00    +0.000 C 
ENDROOT
BRANCH   1   2
ATOM      2  C   UNL     1      47.210   5.017  14.519  0.00  0.00    +0.000 A 
ATOM      3  C   UNL     1      47.548   6.162  13.776  0.00  0.00    +0.000 A 
ATOM      4  C   UNL     1      46.977   6.407  12.523  0.00  0.00    +0.000 A 
ATOM      5  C   UNL     1      46.033   5.524  11.988  0.00  0.00    +0.000 A 
ATOM      6  C   UNL     1      45.661   4.403  12.740  0.00  0.00    +0.000 A 
ATOM      7  C   UNL     1      46.227   4.163  13.998  0.00  0.00    +0.000 A 
BRANCH   5   8
ATOM      8  C   UNL     1      45.421   5.774  10.628  0.00  0.00    +0.000 C 
BRANCH   8   9
ATOM      9  O   UNL     1      44.635   4.646  10.237  0.00  0.00    +0.000 OA
BRANCH   9  10
ATOM     10  C   UNL     1      45.268   3.886   9.271  0.00  0.00    +0.000 A 
ATOM     11  C   UNL     1      45.209   2.508   9.413  0.00  0.00    +0.000 A 
ATOM     12  C   UNL     1      45.827   1.717   8.444  0.00  0.00    +0.000 A 
ATOM     13  C   UNL     1      46.472   2.328   7.378  0.00  0.00    +0.000 A 
ATOM     14  C   UNL     1      46.482   3.710   7.321  0.00  0.00    +0.000 A 
ATOM     15  N   UNL     1      45.894   4.501   8.244  0.00  0.00    +0.000 NA
ENDBRANCH   9  10
ENDBRANCH   8   9
ENDBRANCH   5   8
ENDBRANCH   1   2
BRANCH   1  16
ATOM     16  N   UNL     1      47.695   5.890  16.737  0.00  0.00    +0.000 N 
ATOM     17  C   UNL     1      48.634   6.254  17.672  0.00  0.00    +0.000 C 
ATOM     18  O   UNL     1      49.725   5.697  17.751  0.00  0.00    +0.000 OA
ATOM     19  H   UNL     1      46.747   6.242  16.815  0.00  0.00    +0.000 HD
BRANCH  17  20
ATOM     20  C   UNL     1      48.303   7.387  18.543  0.00  0.00    +0.000 A 
ATOM     21  C   UNL     1      48.140   7.174  19.906  0.00  0.00    +0.000 A 
ATOM     22  S   UNL     1      47.782   8.590  20.784  0.00  0.00    +0.000 S 
ATOM     23  C   UNL     1      47.788   9.532  19.368  0.00  0.00    +0.000 A 
ATOM     24  N   UNL     1      47.520  10.865  19.418  0.00  0.00    +0.000 NA
ATOM     25  C   UNL     1      47.522  11.451  18.268  0.00  0.00    +0.000 A 
ATOM     26  N   UNL     1      47.773  10.826  17.073  0.00  0.00    +0.000 N 
ATOM     27  C   UNL     1      48.081   9.487  16.978  0.00  0.00    +0.000 A 
ATOM     28  O   UNL     1      48.352   8.968  15.899  0.00  0.00    +0.000 OA
ATOM     29  C   UNL     1      48.077   8.780  18.242  0.00  0.00    +0.000 A 
ATOM     30  H   UNL     1      47.765  11.346  16.209  0.00  0.00    +0.000 HD
ENDBRANCH  17  20
ENDBRANCH   1  16
BRANCH   1  32
ATOM     31  C   UNL     1      48.696   2.443  16.637  0.00  0.00    +0.000 C 
ATOM     32  C   UNL     1      47.546   3.443  16.562  0.00  0.00    +0.000 C 
ENDBRANCH   1  32
TORSDOF 7
ENDMDL
MODEL 6
REMARK VINA RESULT:    -7.713      2.147      4.320
REMARK INTER + INTRA:         -11.560
REMARK INTER:                 -10.225
REMARK INTRA:                  -1.335
REMARK UNBOUND:                -0.690
REMARK  Name = 
REMARK  8 active torsions:
REMARK  status: ('A' for Active; 'I' for Inactive)
REMARK    1  A    between atoms: C_1  and  C_2
REMARK    2  A    between atoms: C_2  and  C_3
REMARK    3  A    between atoms: C_3  and  N_4
REMARK    4  A    between atoms: C_3  and  C_17
REMARK    5  A    between atoms: C_5  and  C_7
REMARK    6  A    between atoms: C_20  and  C_21
REMARK    7  A    between atoms: C_21  and  O_22
REMARK    8  A    between atoms: O_22  and  C_23
REMARK                            x       y       z     vdW  Elec       q    Type
REMARK                         _______ _______ _______ _____ _____    ______ ____
ROOT
ATOM      1  C   UNL     1      47.574   4.679  15.133  0.00  0.00    +0.000 C 
ENDROOT
BRANCH   1   2
ATOM      2  C   UNL     1      46.699   4.622  13.889  0.00  0.00    +0.000 A 
ATOM      3  C   UNL     1      46.344   5.823  13.249  0.00  0.00    +0.000 A 
ATOM      4  C   UNL     1      45.595   5.820  12.067  0.00  0.00    +0.000 A 
ATOM      5  C   UNL     1      45.160   4.615  11.505  0.00  0.00    +0.000 A 
ATOM      6  C   UNL     1      45.475   3.418  12.160  0.00  0.00    +0.000 A 
ATOM      7  C   UNL     1      46.217   3.422  13.347  0.00  0.00    +0.000 A 
BRANCH   5   8
ATOM      8  C   UNL     1      44.363   4.602  10.221  0.00  0.00    +0.000 C 
BRANCH   8   9
ATOM      9  O   UNL     1      44.300   3.270   9.705  0.00  0.00    +0.000 OA
BRANCH   9  10
ATOM     10  C   UNL     1      45.272   3.040   8.750  0.00  0.00    +0.000 A 
ATOM     11  C   UNL     1      45.719   1.736   8.605  0.00  0.00    +0.000 A 
ATOM     12  C   UNL     1      46.690   1.473   7.639  0.00  0.00    +0.000 A 
ATOM     13  C   UNL     1      47.171   2.515   6.858  0.00  0.00    +0.000 A 
ATOM     14  C   UNL     1      46.669   3.785   7.076  0.00  0.00    +0.000 A 
ATOM     15  N   UNL     1      45.730   4.070   8.005  0.00  0.00    +0.000 NA
ENDBRANCH   9  10
ENDBRANCH   8   9
ENDBRANCH   5   8
ENDBRANCH   1   2
BRANCH   1  16
ATOM     16  N   UNL     1      47.873   6.067  15.456  0.00  0.00    +0.000 N 
ATOM     17  C   UNL     1      49.063   6.425  16.041  0.00  0.00    +0.000 C 
ATOM     18  O   UNL     1      49.957   5.610  16.252  0.00  0.00    +0.000 OA
ATOM     19  H   UNL     1      47.094   6.718  15.462  0.00  0.00    +0.000 HD
BRANCH  17  20
ATOM     20  C   UNL     1      49.251   7.846  16.354  0.00  0.00    +0.000 A 
ATOM     21  C   UNL     1      49.448   8.233  17.673  0.00  0.00    +0.000 A 
ATOM     22  S   UNL     1      49.675   9.910  17.871  0.00  0.00    +0.000 S 
ATOM     23  C   UNL     1      49.474  10.185  16.204  0.00  0.00    +0.000 A 
ATOM     24  N   UNL     1      49.527  11.446  15.696  0.00  0.00    +0.000 NA
ATOM     25  C   UNL     1      49.323  11.515  14.423  0.00  0.00    +0.000 A 
ATOM     26  N   UNL     1      49.076  10.437  13.612  0.00  0.00    +0.000 N 
ATOM     27  C   UNL     1      49.046   9.141  14.076  0.00  0.00    +0.000 A 
ATOM     28  O   UNL     1      48.874   8.193  13.316  0.00  0.00    +0.000 OA
ATOM     29  C   UNL     1      49.255   9.011  15.504  0.00  0.00    +0.000 A 
ATOM     30  H   UNL     1      48.931  10.561  12.621  0.00  0.00    +0.000 HD
ENDBRANCH  17  20
ENDBRANCH   1  16
BRANCH   1  32
ATOM     31  C   UNL     1      47.977   2.911  16.956  0.00  0.00    +0.000 C 
ATOM     32  C   UNL     1      47.023   3.954  16.381  0.00  0.00    +0.000 C 
ENDBRANCH   1  32
TORSDOF 7
ENDMDL
MODEL 7
REMARK VINA RESULT:    -7.633      4.543      8.587
REMARK INTER + INTRA:         -11.447
REMARK INTER:                 -10.334
REMARK INTRA:                  -1.113
REMARK UNBOUND:                -0.690
REMARK  Name = 
REMARK  8 active torsions:
REMARK  status: ('A' for Active; 'I' for Inactive)
REMARK    1  A    between atoms: C_1  and  C_2
REMARK    2  A    between atoms: C_2  and  C_3
REMARK    3  A    between atoms: C_3  and  N_4
REMARK    4  A    between atoms: C_3  and  C_17
REMARK    5  A    between atoms: C_5  and  C_7
REMARK    6  A    between atoms: C_20  and  C_21
REMARK    7  A    between atoms: C_21  and  O_22
REMARK    8  A    between atoms: O_22  and  C_23
REMARK                            x       y       z     vdW  Elec       q    Type
REMARK                         _______ _______ _______ _____ _____    ______ ____
ROOT
ATOM      1  C   UNL     1      48.917   6.157  17.065  0.00  0.00    +0.000 C 
ENDROOT
BRANCH   1   2
ATOM      2  C   UNL     1      49.655   4.837  17.244  0.00  0.00    +0.000 A 
ATOM      3  C   UNL     1      48.945   3.633  17.098  0.00  0.00    +0.000 A 
ATOM      4  C   UNL     1      49.591   2.395  17.189  0.00  0.00    +0.000 A 
ATOM      5  C   UNL     1      50.963   2.329  17.452  0.00  0.00    +0.000 A 
ATOM      6  C   UNL     1      51.669   3.524  17.640  0.00  0.00    +0.000 A 
ATOM      7  C   UNL     1      51.020   4.761  17.556  0.00  0.00    +0.000 A 
BRANCH   5   8
ATOM      8  C   UNL     1      51.672   0.996  17.538  0.00  0.00    +0.000 C 
BRANCH   8   9
ATOM      9  O   UNL     1      52.885   1.141  18.281  0.00  0.00    +0.000 OA
BRANCH   9  10
ATOM     10  C   UNL     1      53.853   0.246  17.868  0.00  0.00    +0.000 A 
ATOM     11  C   UNL     1      54.543  -0.440  18.855  0.00  0.00    +0.000 A 
ATOM     12  C   UNL     1      55.515  -1.360  18.465  0.00  0.00    +0.000 A 
ATOM     13  C   UNL     1      55.759  -1.561  17.114  0.00  0.00    +0.000 A 
ATOM     14  C   UNL     1      55.024  -0.829  16.199  0.00  0.00    +0.000 A 
ATOM     15  N   UNL     1      54.077   0.070  16.547  0.00  0.00    +0.000 NA
ENDBRANCH   9  10
ENDBRANCH   8   9
ENDBRANCH   5   8
ENDBRANCH   1   2
BRANCH   1  16
ATOM     16  N   UNL     1      47.957   6.034  15.978  0.00  0.00    +0.000 N 
ATOM     17  C   UNL     1      48.291   6.367  14.687  0.00  0.00    +0.000 C 
ATOM     18  O   UNL     1      49.428   6.711  14.377  0.00  0.00    +0.000 OA
ATOM     19  H   UNL     1      46.980   5.932  16.233  0.00  0.00    +0.000 HD
BRANCH  17  20
ATOM     20  C   UNL     1      47.241   6.236  13.672  0.00  0.00    +0.000 A 
ATOM     21  C   UNL     1      46.755   7.376  13.044  0.00  0.00    +0.000 A 
ATOM     22  S   UNL     1      45.558   7.057  11.873  0.00  0.00    +0.000 S 
ATOM     23  C   UNL     1      45.613   5.388  12.196  0.00  0.00    +0.000 A 
ATOM     24  N   UNL     1      44.795   4.524  11.536  0.00  0.00    +0.000 NA
ATOM     25  C   UNL     1      44.915   3.292  11.903  0.00  0.00    +0.000 A 
ATOM     26  N   UNL     1      45.783   2.846  12.867  0.00  0.00    +0.000 N 
ATOM     27  C   UNL     1      46.652   3.678  13.537  0.00  0.00    +0.000 A 
ATOM     28  O   UNL     1      47.453   3.240  14.356  0.00  0.00    +0.000 OA
ATOM     29  C   UNL     1      46.546   5.075  13.170  0.00  0.00    +0.000 A 
ATOM     30  H   UNL     1      45.832   1.866  13.102  0.00  0.00    +0.000 HD
ENDBRANCH  17  20
ENDBRANCH   1  16
BRANCH   1  32
ATOM     31  C   UNL     1      47.139   5.799  18.888  0.00  0.00    +0.000 C 
ATOM     32  C   UNL     1      48.219   6.717  18.325  0.00  0.00    +0.000 C 
ENDBRANCH   1  32
TORSDOF 7
ENDMDL
MODEL 8
REMARK VINA RESULT:    -7.452      1.725      2.681
REMARK INTER + INTRA:         -11.192
REMARK INTER:                 -10.740
REMARK INTRA:                  -0.453
REMARK UNBOUND:                -0.690
REMARK  Name = 
REMARK  8 active torsions:
REMARK  status: ('A' for Active; 'I' for Inactive)
REMARK    1  A    between atoms: C_1  and  C_2
REMARK    2  A    between atoms: C_2  and  C_3
REMARK    3  A    between atoms: C_3  and  N_4
REMARK    4  A    between atoms: C_3  and  C_17
REMARK    5  A    between atoms: C_5  and  C_7
REMARK    6  A    between atoms: C_20  and  C_21
REMARK    7  A    between atoms: C_21  and  O_22
REMARK    8  A    between atoms: O_22  and  C_23
REMARK                            x       y       z     vdW  Elec       q    Type
REMARK                         _______ _______ _______ _____ _____    ______ ____
ROOT
ATOM      1  C   UNL     1      46.417   7.894  13.164  0.00  0.00    +0.000 C 
ENDROOT
BRANCH   1   2
ATOM      2  C   UNL     1      45.907   6.616  12.513  0.00  0.00    +0.000 A 
ATOM      3  C   UNL     1      45.818   6.553  11.111  0.00  0.00    +0.000 A 
ATOM      4  C   UNL     1      45.417   5.380  10.462  0.00  0.00    +0.000 A 
ATOM      5  C   UNL     1      45.071   4.243  11.200  0.00  0.00    +0.000 A 
ATOM      6  C   UNL     1      45.117   4.312  12.598  0.00  0.00    +0.000 A 
ATOM      7  C   UNL     1      45.511   5.489  13.247  0.00  0.00    +0.000 A 
BRANCH   5   8
ATOM      8  C   UNL     1      44.650   2.968  10.508  0.00  0.00    +0.000 C 
BRANCH   8   9
ATOM      9  O   UNL     1      44.459   3.215   9.112  0.00  0.00    +0.000 OA
BRANCH   9  10
ATOM     10  C   UNL     1      45.438   2.615   8.343  0.00  0.00    +0.000 A 
ATOM     11  C   UNL     1      46.061   3.402   7.388  0.00  0.00    +0.000 A 
ATOM     12  C   UNL     1      47.063   2.826   6.607  0.00  0.00    +0.000 A 
ATOM     13  C   UNL     1      47.405   1.496   6.812  0.00  0.00    +0.000 A 
ATOM     14  C   UNL     1      46.726   0.788   7.787  0.00  0.00    +0.000 A 
ATOM     15  N   UNL     1      45.751   1.318   8.556  0.00  0.00    +0.000 NA
ENDBRANCH   9  10
ENDBRANCH   8   9
ENDBRANCH   5   8
ENDBRANCH   1   2
BRANCH   1  16
ATOM     16  N   UNL     1      47.262   7.557  14.301  0.00  0.00    +0.000 N 
ATOM     17  C   UNL     1      48.421   6.838  14.142  0.00  0.00    +0.000 C 
ATOM     18  O   UNL     1      48.837   6.509  13.034  0.00  0.00    +0.000 OA
ATOM     19  H   UNL     1      46.854   7.654  15.225  0.00  0.00    +0.000 HD
BRANCH  17  20
ATOM     20  C   UNL     1      49.184   6.525  15.355  0.00  0.00    +0.000 A 
ATOM     21  C   UNL     1      48.615   5.710  16.326  0.00  0.00    +0.000 A 
ATOM     22  S   UNL     1      49.634   5.421  17.662  0.00  0.00    +0.000 S 
ATOM     23  C   UNL     1      50.854   6.413  17.012  0.00  0.00    +0.000 A 
ATOM     24  N   UNL     1      52.016   6.619  17.688  0.00  0.00    +0.000 NA
ATOM     25  C   UNL     1      52.839   7.420  17.098  0.00  0.00    +0.000 A 
ATOM     26  N   UNL     1      52.607   8.028  15.892  0.00  0.00    +0.000 N 
ATOM     27  C   UNL     1      51.461   7.823  15.156  0.00  0.00    +0.000 A 
ATOM     28  O   UNL     1      51.305   8.341  14.055  0.00  0.00    +0.000 OA
ATOM     29  C   UNL     1      50.497   6.942  15.783  0.00  0.00    +0.000 A 
ATOM     30  H   UNL     1      53.297   8.640  15.482  0.00  0.00    +0.000 HD
ENDBRANCH  17  20
ENDBRANCH   1  16
BRANCH   1  32
ATOM     31  C   UNL     1      46.304  10.068  11.796  0.00  0.00    +0.000 C 
ATOM     32  C   UNL     1      47.156   8.880  12.231  0.00  0.00    +0.000 C 
ENDBRANCH   1  32
TORSDOF 7
ENDMDL
MODEL 9
REMARK VINA RESULT:    -7.044      2.663      4.594
REMARK INTER + INTRA:         -10.616
REMARK INTER:                  -9.851
REMARK INTRA:                  -0.766
REMARK UNBOUND:                -0.690
REMARK  Name = 
REMARK  8 active torsions:
REMARK  status: ('A' for Active; 'I' for Inactive)
REMARK    1  A    between atoms: C_1  and  C_2
REMARK    2  A    between atoms: C_2  and  C_3
REMARK    3  A    between atoms: C_3  and  N_4
REMARK    4  A    between atoms: C_3  and  C_17
REMARK    5  A    between atoms: C_5  and  C_7
REMARK    6  A    between atoms: C_20  and  C_21
REMARK    7  A    between atoms: C_21  and  O_22
REMARK    8  A    between atoms: O_22  and  C_23
REMARK                            x       y       z     vdW  Elec       q    Type
REMARK                         _______ _______ _______ _____ _____    ______ ____
ROOT
ATOM      1  C   UNL     1      47.568   5.107  14.707  0.00  0.00    +0.000 C 
ENDROOT
BRANCH   1   2
ATOM      2  C   UNL     1      46.545   4.742  13.639  0.00  0.00    +0.000 A 
ATOM      3  C   UNL     1      45.856   5.771  12.974  0.00  0.00    +0.000 A 
ATOM      4  C   UNL     1      44.954   5.490  11.942  0.00  0.00    +0.000 A 
ATOM      5  C   UNL     1      44.701   4.168  11.562  0.00  0.00    +0.000 A 
ATOM      6  C   UNL     1      45.353   3.136  12.248  0.00  0.00    +0.000 A 
ATOM      7  C   UNL     1      46.249   3.418  13.286  0.00  0.00    +0.000 A 
BRANCH   5   8
ATOM      8  C   UNL     1      43.739   3.855  10.439  0.00  0.00    +0.000 C 
BRANCH   8   9
ATOM      9  O   UNL     1      44.212   4.437   9.221  0.00  0.00    +0.000 OA
BRANCH   9  10
ATOM     10  C   UNL     1      45.143   3.632   8.592  0.00  0.00    +0.000 A 
ATOM     11  C   UNL     1      45.109   2.278   8.886  0.00  0.00    +0.000 A 
ATOM     12  C   UNL     1      46.028   1.441   8.254  0.00  0.00    +0.000 A 
ATOM     13  C   UNL     1      46.937   1.983   7.357  0.00  0.00    +0.000 A 
ATOM     14  C   UNL     1      46.899   3.347   7.128  0.00  0.00    +0.000 A 
ATOM     15  N   UNL     1      46.022   4.182   7.726  0.00  0.00    +0.000 NA
ENDBRANCH   9  10
ENDBRANCH   8   9
ENDBRANCH   5   8
ENDBRANCH   1   2
BRANCH   1  16
ATOM     16  N   UNL     1      47.891   6.523  14.607  0.00  0.00    +0.000 N 
ATOM     17  C   UNL     1      48.787   6.988  13.675  0.00  0.00    +0.000 C 
ATOM     18  O   UNL     1      49.300   6.249  12.838  0.00  0.00    +0.000 OA
ATOM     19  H   UNL     1      47.629   7.114  15.389  0.00  0.00    +0.000 HD
BRANCH  17  20
ATOM     20  C   UNL     1      49.066   8.428  13.678  0.00  0.00    +0.000 A 
ATOM     21  C   UNL     1      48.191   9.293  13.034  0.00  0.00    +0.000 A 
ATOM     22  S   UNL     1      48.638  10.933  13.147  0.00  0.00    +0.000 S 
ATOM     23  C   UNL     1      50.043  10.543  14.023  0.00  0.00    +0.000 A 
ATOM     24  N   UNL     1      50.909  11.515  14.420  0.00  0.00    +0.000 NA
ATOM     25  C   UNL     1      51.950  11.077  15.044  0.00  0.00    +0.000 A 
ATOM     26  N   UNL     1      52.201   9.756  15.313  0.00  0.00    +0.000 N 
ATOM     27  C   UNL     1      51.339   8.742  14.961  0.00  0.00    +0.000 A 
ATOM     28  O   UNL     1      51.567   7.574  15.262  0.00  0.00    +0.000 OA
ATOM     29  C   UNL     1      50.159   9.181  14.243  0.00  0.00    +0.000 A 
ATOM     30  H   UNL     1      53.034   9.481  15.812  0.00  0.00    +0.000 HD
ENDBRANCH  17  20
ENDBRANCH   1  16
BRANCH   1  32
ATOM     31  C   UNL     1      47.607   3.355  16.588  0.00  0.00    +0.000 C 
ATOM     32  C   UNL     1      47.181   4.756  16.161  0.00  0.00    +0.000 C 
ENDBRANCH   1  32
TORSDOF 7
ENDMDL
