MODEL 1
REMARK VINA RESULT:    -8.719      0.000      0.000
REMARK INTER + INTRA:         -11.782
REMARK INTER:                 -11.522
REMARK INTRA:                  -0.260
REMARK UNBOUND:                -0.260
REMARK  Name = 
REMARK  7 active torsions:
REMARK  status: ('A' for Active; 'I' for Inactive)
REMARK    1  A    between atoms: C_1  and  C_2
REMARK    2  A    between atoms: C_2  and  C_3
REMARK    3  A    between atoms: C_7  and  C_8
REMARK    4  A    between atoms: C_8  and  C_9
REMARK    5  A    between atoms: C_9  and  N_10
REMARK    6  A    between atoms: C_14  and  C_15
REMARK    7  A    between atoms: C_23  and  O_24
REMARK                            x       y       z     vdW  Elec       q    Type
REMARK                         _______ _______ _______ _____ _____    ______ ____
ROOT
ATOM      1  C   UNL     1      43.211   5.319  12.252  0.00  0.00    +0.000 C 
ENDROOT
BRANCH   1   6
ATOM      2  C   UNL     1      46.559   7.031  13.001  0.00  0.00    +0.000 A 
ATOM      3  C   UNL     1      47.261   5.961  13.587  0.00  0.00    +0.000 A 
ATOM      4  C   UNL     1      46.681   4.698  13.719  0.00  0.00    +0.000 A 
ATOM      5  C   UNL     1      45.382   4.472  13.271  0.00  0.00    +0.000 A 
ATOM      6  C   UNL     1      44.647   5.511  12.693  0.00  0.00    +0.000 A 
ATOM      7  C   UNL     1      45.246   6.776  12.571  0.00  0.00    +0.000 A 
BRANCH   2   9
ATOM      8  C   UNL     1      46.089   9.440  12.600  0.00  0.00    +0.000 C 
ATOM      9  C   UNL     1      47.206   8.427  12.931  0.00  0.00    +0.000 C 
ATOM     10  C   UNL     1      47.915   8.803  14.260  0.00  0.00    +0.000 C 
ATOM     11  C   UNL     1      49.421   8.567  14.071  0.00  0.00    +0.000 C 
ATOM     12  C   UNL     1      49.613   8.119  12.628  0.00  0.00    +0.000 C 
ATOM     13  C   UNL     1      48.358   8.601  11.909  0.00  0.00    +0.000 C 
BRANCH  12  14
ATOM     14  O   UNL     1      49.768   6.709  12.555  0.00  0.00    +0.000 OA
ATOM     15  H   UNL     1      49.948   6.368  13.450  0.00  0.00    +0.000 HD
ENDBRANCH  12  14
ENDBRANCH   2   9
ENDBRANCH   1   6
BRANCH   1  16
ATOM     16  C   UNL     1      43.082   4.460  10.996  0.00  0.00    +0.000 C 
BRANCH  16  17
ATOM     17  N   UNL     1      43.879   5.014   9.892  0.00  0.00    +0.000 N 
ATOM     18  C   UNL     1      44.675   4.030   9.273  0.00  0.00    +0.000 A 
ATOM     19  C   UNL     1      45.490   4.385   8.202  0.00  0.00    +0.000 A 
ATOM     20  C   UNL     1      46.266   3.400   7.580  0.00  0.00    +0.000 A 
ATOM     21  C   UNL     1      46.217   2.081   8.039  0.00  0.00    +0.000 A 
ATOM     22  C   UNL     1      45.371   1.822   9.103  0.00  0.00    +0.000 A 
ATOM     23  N   UNL     1      44.609   2.759   9.711  0.00  0.00    +0.000 NA
ATOM     24  H   UNL     1      44.483   5.775  10.195  0.00  0.00    +0.000 HD
BRANCH  21  25
ATOM     25  C   UNL     1      47.041   1.036   7.396  0.00  0.00    +0.000 C 
ATOM     26  N   UNL     1      46.748  -0.281   7.622  0.00  0.00    +0.000 N 
ATOM     27  O   UNL     1      47.981   1.337   6.665  0.00  0.00    +0.000 OA
ATOM     28  H   UNL     1      46.002  -0.638   8.200  0.00  0.00    +0.000 HD
ATOM     29  H   UNL     1      47.341  -0.962   7.164  0.00  0.00    +0.000 HD
ENDBRANCH  21  25
ENDBRANCH  16  17
ENDBRANCH   1  16
TORSDOF 6
ENDMDL
MODEL 2
REMARK VINA RESULT:    -8.560      1.449      2.036
REMARK INTER + INTRA:         -11.572
REMARK INTER:                 -10.428
REMARK INTRA:                  -1.144
REMARK UNBOUND:                -0.260
REMARK  Name = 
REMARK  7 active torsions:
REMARK  status: ('A' for Active; 'I' for Inactive)
REMARK    1  A    between atoms: C_1  and  C_2
REMARK    2  A    between atoms: C_2  and  C_3
REMARK    3  A    between atoms: C_7  and  C_8
REMARK    4  A    between atoms: C_8  and  C_9
REMARK    5  A    between atoms: C_9  and  N_10
REMARK    6  A    between atoms: C_14  and  C_15
REMARK    7  A    between atoms: C_23  and  O_24
REMARK                            x       y       z     vdW  Elec       q    Type
REMARK                         _______ _______ _______ _____ _____    ______ ____
ROOT
ATOM      1  C   UNL     1      43.744   5.923  11.990  0.00  0.00    +0.000 C 
ENDROOT
BRANCH   1   6
ATOM      2  C   UNL     1      47.418   6.758  12.698  0.00  0.00    +0.000 A 
ATOM      3  C   UNL     1      47.748   5.708  13.574  0.00  0.00    +0.000 A 
ATOM      4  C   UNL     1      46.816   4.727  13.916  0.00  0.00    +0.000 A 
ATOM      5  C   UNL     1      45.526   4.772  13.393  0.00  0.00    +0.000 A 
ATOM      6  C   UNL     1      45.154   5.806  12.528  0.00  0.00    +0.000 A 
ATOM      7  C   UNL     1      46.105   6.785  12.197  0.00  0.00    +0.000 A 
BRANCH   2   9
ATOM      8  C   UNL     1      49.458   7.284  11.376  0.00  0.00    +0.000 C 
ATOM      9  C   UNL     1      48.451   7.859  12.394  0.00  0.00    +0.000 C 
ATOM     10  C   UNL     1      47.780   9.145  11.840  0.00  0.00    +0.000 C 
ATOM     11  C   UNL     1      47.678  10.155  12.994  0.00  0.00    +0.000 C 
ATOM     12  C   UNL     1      48.339   9.504  14.201  0.00  0.00    +0.000 C 
ATOM     13  C   UNL     1      49.233   8.421  13.608  0.00  0.00    +0.000 C 
BRANCH  12  14
ATOM     14  O   UNL     1      47.361   8.972  15.083  0.00  0.00    +0.000 OA
ATOM     15  H   UNL     1      46.972   9.703  15.597  0.00  0.00    +0.000 HD
ENDBRANCH  12  14
ENDBRANCH   2   9
ENDBRANCH   1   6
BRANCH   1  16
ATOM     16  C   UNL     1      43.600   5.382  10.568  0.00  0.00    +0.000 C 
BRANCH  16  17
ATOM     17  N   UNL     1      43.628   3.913  10.556  0.00  0.00    +0.000 N 
ATOM     18  C   UNL     1      44.560   3.413   9.625  0.00  0.00    +0.000 A 
ATOM     19  C   UNL     1      44.718   2.037   9.489  0.00  0.00    +0.000 A 
ATOM     20  C   UNL     1      45.657   1.546   8.575  0.00  0.00    +0.000 A 
ATOM     21  C   UNL     1      46.418   2.436   7.811  0.00  0.00    +0.000 A 
ATOM     22  C   UNL     1      46.197   3.785   8.022  0.00  0.00    +0.000 A 
ATOM     23  N   UNL     1      45.300   4.277   8.905  0.00  0.00    +0.000 NA
ATOM     24  H   UNL     1      42.717   3.510  10.349  0.00  0.00    +0.000 HD
BRANCH  21  25
ATOM     25  C   UNL     1      47.404   1.927   6.834  0.00  0.00    +0.000 C 
ATOM     26  N   UNL     1      48.445   2.729   6.454  0.00  0.00    +0.000 N 
ATOM     27  O   UNL     1      47.298   0.797   6.364  0.00  0.00    +0.000 OA
ATOM     28  H   UNL     1      48.626   3.668   6.777  0.00  0.00    +0.000 HD
ATOM     29  H   UNL     1      49.093   2.340   5.780  0.00  0.00    +0.000 HD
ENDBRANCH  21  25
ENDBRANCH  16  17
ENDBRANCH   1  16
TORSDOF 6
ENDMDL
MODEL 3
REMARK VINA RESULT:    -7.740      4.055      7.338
REMARK INTER + INTRA:         -10.489
REMARK INTER:                  -9.386
REMARK INTRA:                  -1.103
REMARK UNBOUND:                -0.260
REMARK  Name = 
REMARK  7 active torsions:
REMARK  status: ('A' for Active; 'I' for Inactive)
REMARK    1  A    between atoms: C_1  and  C_2
REMARK    2  A    between atoms: C_2  and  C_3
REMARK    3  A    between atoms: C_7  and  C_8
REMARK    4  A    between atoms: C_8  and  C_9
REMARK    5  A    between atoms: C_9  and  N_10
REMARK    6  A    between atoms: C_14  and  C_15
REMARK    7  A    between atoms: C_23  and  O_24
REMARK                            x       y       z     vdW  Elec       q    Type
REMARK                         _______ _______ _______ _____ _____    ______ ____
ROOT
ATOM      1  C   UNL     1      48.028   8.845  13.350  0.00  0.00    +0.000 C 
ENDROOT
BRANCH   1   6
ATOM      2  C   UNL     1      45.303   6.917  11.464  0.00  0.00    +0.000 A 
ATOM      3  C   UNL     1      44.398   7.960  11.197  0.00  0.00    +0.000 A 
ATOM      4  C   UNL     1      44.666   9.273  11.591  0.00  0.00    +0.000 A 
ATOM      5  C   UNL     1      45.846   9.575  12.267  0.00  0.00    +0.000 A 
ATOM      6  C   UNL     1      46.765   8.565  12.562  0.00  0.00    +0.000 A 
ATOM      7  C   UNL     1      46.478   7.250  12.160  0.00  0.00    +0.000 A 
BRANCH   2   9
ATOM      8  C   UNL     1      45.495   5.224   9.653  0.00  0.00    +0.000 C 
ATOM      9  C   UNL     1      44.946   5.471  11.074  0.00  0.00    +0.000 C 
ATOM     10  C   UNL     1      45.528   4.439  12.077  0.00  0.00    +0.000 C 
ATOM     11  C   UNL     1      44.393   4.011  13.021  0.00  0.00    +0.000 C 
ATOM     12  C   UNL     1      43.137   4.727  12.544  0.00  0.00    +0.000 C 
ATOM     13  C   UNL     1      43.440   5.105  11.098  0.00  0.00    +0.000 C 
BRANCH  12  14
ATOM     14  O   UNL     1      42.870   5.864  13.353  0.00  0.00    +0.000 OA
ATOM     15  H   UNL     1      43.690   6.123  13.810  0.00  0.00    +0.000 HD
ENDBRANCH  12  14
ENDBRANCH   2   9
ENDBRANCH   1   6
BRANCH   1  16
ATOM     16  C   UNL     1      49.034   7.697  13.295  0.00  0.00    +0.000 C 
BRANCH  16  17
ATOM     17  N   UNL     1      49.763   7.572  14.565  0.00  0.00    +0.000 N 
ATOM     18  C   UNL     1      49.233   6.550  15.376  0.00  0.00    +0.000 A 
ATOM     19  C   UNL     1      49.811   6.293  16.616  0.00  0.00    +0.000 A 
ATOM     20  C   UNL     1      49.291   5.265  17.411  0.00  0.00    +0.000 A 
ATOM     21  C   UNL     1      48.203   4.515  16.956  0.00  0.00    +0.000 A 
ATOM     22  C   UNL     1      47.702   4.837  15.708  0.00  0.00    +0.000 A 
ATOM     23  N   UNL     1      48.195   5.822  14.924  0.00  0.00    +0.000 NA
ATOM     24  H   UNL     1      49.765   8.439  15.097  0.00  0.00    +0.000 HD
BRANCH  21  25
ATOM     25  C   UNL     1      47.639   3.435  17.794  0.00  0.00    +0.000 C 
ATOM     26  N   UNL     1      48.272   3.090  18.956  0.00  0.00    +0.000 N 
ATOM     27  O   UNL     1      46.614   2.848  17.458  0.00  0.00    +0.000 OA
ATOM     28  H   UNL     1      49.115   3.505  19.325  0.00  0.00    +0.000 HD
ATOM     29  H   UNL     1      47.853   2.343  19.495  0.00  0.00    +0.000 HD
ENDBRANCH  21  25
ENDBRANCH  16  17
ENDBRANCH   1  16
TORSDOF 6
ENDMDL
MODEL 4
REMARK VINA RESULT:    -7.399      4.971      7.978
REMARK INTER + INTRA:         -10.038
REMARK INTER:                  -9.243
REMARK INTRA:                  -0.795
REMARK UNBOUND:                -0.260
REMARK  Name = 
REMARK  7 active torsions:
REMARK  status: ('A' for Active; 'I' for Inactive)
REMARK    1  A    between atoms: C_1  and  C_2
REMARK    2  A    between atoms: C_2  and  C_3
REMARK    3  A    between atoms: C_7  and  C_8
REMARK    4  A    between atoms: C_8  and  C_9
REMARK    5  A    between atoms: C_9  and  N_10
REMARK    6  A    between atoms: C_14  and  C_15
REMARK    7  A    between atoms: C_23  and  O_24
REMARK                            x       y       z     vdW  Elec       q    Type
REMARK                         _______ _______ _______ _____ _____    ______ ____
ROOT
ATOM      1  C   UNL     1      48.703   7.149  13.964  0.00  0.00    +0.000 C 
ENDROOT
BRANCH   1   6
ATOM      2  C   UNL     1      45.610   6.427  11.817  0.00  0.00    +0.000 A 
ATOM      3  C   UNL     1      44.961   7.673  11.888  0.00  0.00    +0.000 A 
ATOM      4  C   UNL     1      45.517   8.743  12.592  0.00  0.00    +0.000 A 
ATOM      5  C   UNL     1      46.737   8.593  13.248  0.00  0.00    +0.000 A 
ATOM      6  C   UNL     1      47.408   7.367  13.211  0.00  0.00    +0.000 A 
ATOM      7  C   UNL     1      46.832   6.302  12.500  0.00  0.00    +0.000 A 
BRANCH   2   9
ATOM      8  C   UNL     1      45.505   5.206   9.653  0.00  0.00    +0.000 C 
ATOM      9  C   UNL     1      44.937   5.250  11.087  0.00  0.00    +0.000 C 
ATOM     10  C   UNL     1      45.178   3.901  11.818  0.00  0.00    +0.000 C 
ATOM     11  C   UNL     1      43.911   3.570  12.621  0.00  0.00    +0.000 C 
ATOM     12  C   UNL     1      42.905   4.673  12.321  0.00  0.00    +0.000 C 
ATOM     13  C   UNL     1      43.389   5.284  11.011  0.00  0.00    +0.000 C 
BRANCH  12  14
ATOM     14  O   UNL     1      42.869   5.622  13.378  0.00  0.00    +0.000 OA
ATOM     15  H   UNL     1      42.174   5.362  14.008  0.00  0.00    +0.000 HD
ENDBRANCH  12  14
ENDBRANCH   2   9
ENDBRANCH   1   6
BRANCH   1  16
ATOM     16  C   UNL     1      48.530   7.204  15.481  0.00  0.00    +0.000 C 
BRANCH  16  17
ATOM     17  N   UNL     1      48.046   5.919  16.005  0.00  0.00    +0.000 N 
ATOM     18  C   UNL     1      49.083   5.166  16.589  0.00  0.00    +0.000 A 
ATOM     19  C   UNL     1      48.796   3.920  17.141  0.00  0.00    +0.000 A 
ATOM     20  C   UNL     1      49.828   3.184  17.734  0.00  0.00    +0.000 A 
ATOM     21  C   UNL     1      51.126   3.701  17.764  0.00  0.00    +0.000 A 
ATOM     22  C   UNL     1      51.313   4.949  17.199  0.00  0.00    +0.000 A 
ATOM     23  N   UNL     1      50.328   5.678  16.627  0.00  0.00    +0.000 NA
ATOM     24  H   UNL     1      47.600   5.352  15.287  0.00  0.00    +0.000 HD
BRANCH  21  25
ATOM     25  C   UNL     1      52.224   2.925  18.379  0.00  0.00    +0.000 C 
ATOM     26  N   UNL     1      52.841   3.411  19.499  0.00  0.00    +0.000 N 
ATOM     27  O   UNL     1      52.585   1.855  17.896  0.00  0.00    +0.000 OA
ATOM     28  H   UNL     1      52.624   4.273  19.976  0.00  0.00    +0.000 HD
ATOM     29  H   UNL     1      53.590   2.848  19.883  0.00  0.00    +0.000 HD
ENDBRANCH  21  25
ENDBRANCH  16  17
ENDBRANCH   1  16
TORSDOF 6
ENDMDL
MODEL 5
REMARK VINA RESULT:    -7.224      3.651      5.812
REMARK INTER + INTRA:          -9.807
REMARK INTER:                  -8.678
REMARK INTRA:                  -1.128
REMARK UNBOUND:                -0.260
REMARK  Name = 
REMARK  7 active torsions:
REMARK  status: ('A' for Active; 'I' for Inactive)
REMARK    1  A    between atoms: C_1  and  C_2
REMARK    2  A    between atoms: C_2  and  C_3
REMARK    3  A    between atoms: C_7  and  C_8
REMARK    4  A    between atoms: C_8  and  C_9
REMARK    5  A    between atoms: C_9  and  N_10
REMARK    6  A    between atoms: C_14  and  C_15
REMARK    7  A    between atoms: C_23  and  O_24
REMARK                            x       y       z     vdW  Elec       q    Type
REMARK                         _______ _______ _______ _____ _____    ______ ____
ROOT
ATOM      1  C   UNL     1      49.272   7.622  13.734  0.00  0.00    +0.000 C 
ENDROOT
BRANCH   1   6
ATOM      2  C   UNL     1      48.992   6.045  17.217  0.00  0.00    +0.000 A 
ATOM      3  C   UNL     1      50.146   6.573  17.823  0.00  0.00    +0.000 A 
ATOM      4  C   UNL     1      50.993   7.446  17.137  0.00  0.00    +0.000 A 
ATOM      5  C   UNL     1      50.709   7.810  15.823  0.00  0.00    +0.000 A 
ATOM      6  C   UNL     1      49.578   7.298  15.181  0.00  0.00    +0.000 A 
ATOM      7  C   UNL     1      48.739   6.420  15.886  0.00  0.00    +0.000 A 
BRANCH   2   9
ATOM      8  C   UNL     1      47.262   5.830  18.990  0.00  0.00    +0.000 C 
ATOM      9  C   UNL     1      48.117   5.034  17.981  0.00  0.00    +0.000 C 
ATOM     10  C   UNL     1      47.215   4.210  17.023  0.00  0.00    +0.000 C 
ATOM     11  C   UNL     1      47.875   2.837  16.824  0.00  0.00    +0.000 C 
ATOM     12  C   UNL     1      49.119   2.820  17.701  0.00  0.00    +0.000 C 
ATOM     13  C   UNL     1      48.868   3.910  18.738  0.00  0.00    +0.000 C 
BRANCH  12  14
ATOM     14  O   UNL     1      50.284   3.071  16.928  0.00  0.00    +0.000 OA
ATOM     15  H   UNL     1      51.065   2.795  17.441  0.00  0.00    +0.000 HD
ENDBRANCH  12  14
ENDBRANCH   2   9
ENDBRANCH   1   6
BRANCH   1  16
ATOM     16  C   UNL     1      47.806   7.987  13.500  0.00  0.00    +0.000 C 
BRANCH  16  17
ATOM     17  N   UNL     1      47.418   7.747  12.103  0.00  0.00    +0.000 N 
ATOM     18  C   UNL     1      46.582   6.621  11.975  0.00  0.00    +0.000 A 
ATOM     19  C   UNL     1      46.116   6.255  10.716  0.00  0.00    +0.000 A 
ATOM     20  C   UNL     1      45.273   5.145  10.597  0.00  0.00    +0.000 A 
ATOM     21  C   UNL     1      44.911   4.419  11.736  0.00  0.00    +0.000 A 
ATOM     22  C   UNL     1      45.415   4.863  12.944  0.00  0.00    +0.000 A 
ATOM     23  N   UNL     1      46.226   5.937  13.079  0.00  0.00    +0.000 NA
ATOM     24  H   UNL     1      48.224   7.622  11.493  0.00  0.00    +0.000 HD
BRANCH  21  25
ATOM     25  C   UNL     1      44.029   3.237  11.619  0.00  0.00    +0.000 C 
ATOM     26  N   UNL     1      43.828   2.443  12.714  0.00  0.00    +0.000 N 
ATOM     27  O   UNL     1      43.479   2.966  10.555  0.00  0.00    +0.000 OA
ATOM     28  H   UNL     1      44.227   2.574  13.631  0.00  0.00    +0.000 HD
ATOM     29  H   UNL     1      43.220   1.643  12.586  0.00  0.00    +0.000 HD
ENDBRANCH  21  25
ENDBRANCH  16  17
ENDBRANCH   1  16
TORSDOF 6
ENDMDL
MODEL 6
REMARK VINA RESULT:    -6.936      5.150      8.395
REMARK INTER + INTRA:          -9.426
REMARK INTER:                  -8.577
REMARK INTRA:                  -0.849
REMARK UNBOUND:                -0.260
REMARK  Name = 
REMARK  7 active torsions:
REMARK  status: ('A' for Active; 'I' for Inactive)
REMARK    1  A    between atoms: C_1  and  C_2
REMARK    2  A    between atoms: C_2  and  C_3
REMARK    3  A    between atoms: C_7  and  C_8
REMARK    4  A    between atoms: C_8  and  C_9
REMARK    5  A    between atoms: C_9  and  N_10
REMARK    6  A    between atoms: C_14  and  C_15
REMARK    7  A    between atoms: C_23  and  O_24
REMARK                            x       y       z     vdW  Elec       q    Type
REMARK                         _______ _______ _______ _____ _____    ______ ____
ROOT
ATOM      1  C   UNL     1      47.181   3.810  15.505  0.00  0.00    +0.000 C 
ENDROOT
BRANCH   1   6
ATOM      2  C   UNL     1      45.973   5.398  12.231  0.00  0.00    +0.000 A 
ATOM      3  C   UNL     1      46.663   6.623  12.279  0.00  0.00    +0.000 A 
ATOM      4  C   UNL     1      47.528   6.930  13.331  0.00  0.00    +0.000 A 
ATOM      5  C   UNL     1      47.721   6.020  14.368  0.00  0.00    +0.000 A 
ATOM      6  C   UNL     1      47.045   4.797  14.364  0.00  0.00    +0.000 A 
ATOM      7  C   UNL     1      46.178   4.506  13.298  0.00  0.00    +0.000 A 
BRANCH   2   9
ATOM      8  C   UNL     1      45.715   5.378   9.758  0.00  0.00    +0.000 C 
ATOM      9  C   UNL     1      44.978   5.121  11.089  0.00  0.00    +0.000 C 
ATOM     10  C   UNL     1      44.425   3.671  11.143  0.00  0.00    +0.000 C 
ATOM     11  C   UNL     1      43.025   3.726  11.774  0.00  0.00    +0.000 C 
ATOM     12  C   UNL     1      42.722   5.195  12.032  0.00  0.00    +0.000 C 
ATOM     13  C   UNL     1      43.667   5.949  11.103  0.00  0.00    +0.000 C 
BRANCH  12  14
ATOM     14  O   UNL     1      42.937   5.520  13.398  0.00  0.00    +0.000 OA
ATOM     15  H   UNL     1      43.874   5.753  13.521  0.00  0.00    +0.000 HD
ENDBRANCH  12  14
ENDBRANCH   2   9
ENDBRANCH   1   6
BRANCH   1  16
ATOM     16  C   UNL     1      47.813   4.423  16.753  0.00  0.00    +0.000 C 
BRANCH  16  17
ATOM     17  N   UNL     1      48.790   3.505  17.356  0.00  0.00    +0.000 N 
ATOM     18  C   UNL     1      50.087   4.053  17.370  0.00  0.00    +0.000 A 
ATOM     19  C   UNL     1      51.135   3.315  17.913  0.00  0.00    +0.000 A 
ATOM     20  C   UNL     1      52.419   3.872  17.939  0.00  0.00    +0.000 A 
ATOM     21  C   UNL     1      52.635   5.152  17.421  0.00  0.00    +0.000 A 
ATOM     22  C   UNL     1      51.532   5.811  16.910  0.00  0.00    +0.000 A 
ATOM     23  N   UNL     1      50.284   5.293  16.883  0.00  0.00    +0.000 NA
ATOM     24  H   UNL     1      48.824   2.607  16.878  0.00  0.00    +0.000 HD
BRANCH  21  25
ATOM     25  C   UNL     1      53.990   5.743  17.433  0.00  0.00    +0.000 C 
ATOM     26  N   UNL     1      54.766   5.660  16.310  0.00  0.00    +0.000 N 
ATOM     27  O   UNL     1      54.422   6.304  18.436  0.00  0.00    +0.000 OA
ATOM     28  H   UNL     1      54.511   5.225  15.436  0.00  0.00    +0.000 HD
ATOM     29  H   UNL     1      55.688   6.076  16.365  0.00  0.00    +0.000 HD
ENDBRANCH  21  25
ENDBRANCH  16  17
ENDBRANCH   1  16
TORSDOF 6
ENDMDL
MODEL 7
REMARK VINA RESULT:    -6.753      5.652      7.126
REMARK INTER + INTRA:          -9.184
REMARK INTER:                  -8.362
REMARK INTRA:                  -0.822
REMARK UNBOUND:                -0.260
REMARK  Name = 
REMARK  7 active torsions:
REMARK  status: ('A' for Active; 'I' for Inactive)
REMARK    1  A    between atoms: C_1  and  C_2
REMARK    2  A    between atoms: C_2  and  C_3
REMARK    3  A    between atoms: C_7  and  C_8
REMARK    4  A    between atoms: C_8  and  C_9
REMARK    5  A    between atoms: C_9  and  N_10
REMARK    6  A    between atoms: C_14  and  C_15
REMARK    7  A    between atoms: C_23  and  O_24
REMARK                            x       y       z     vdW  Elec       q    Type
REMARK                         _______ _______ _______ _____ _____    ______ ____
ROOT
ATOM      1  C   UNL     1      48.370   3.193  16.476  0.00  0.00    +0.000 C 
ENDROOT
BRANCH   1   6
ATOM      2  C   UNL     1      51.214   4.410  18.740  0.00  0.00    +0.000 A 
ATOM      3  C   UNL     1      50.479   4.818  19.868  0.00  0.00    +0.000 A 
ATOM      4  C   UNL     1      49.090   4.681  19.918  0.00  0.00    +0.000 A 
ATOM      5  C   UNL     1      48.399   4.137  18.837  0.00  0.00    +0.000 A 
ATOM      6  C   UNL     1      49.092   3.731  17.694  0.00  0.00    +0.000 A 
ATOM      7  C   UNL     1      50.489   3.877  17.661  0.00  0.00    +0.000 A 
BRANCH   2   9
ATOM      8  C   UNL     1      52.977   6.082  18.209  0.00  0.00    +0.000 C 
ATOM      9  C   UNL     1      52.737   4.636  18.693  0.00  0.00    +0.000 C 
ATOM     10  C   UNL     1      53.399   4.401  20.078  0.00  0.00    +0.000 C 
ATOM     11  C   UNL     1      54.037   3.003  20.061  0.00  0.00    +0.000 C 
ATOM     12  C   UNL     1      53.815   2.440  18.664  0.00  0.00    +0.000 C 
ATOM     13  C   UNL     1      53.548   3.667  17.797  0.00  0.00    +0.000 C 
BRANCH  12  14
ATOM     14  O   UNL     1      52.726   1.529  18.656  0.00  0.00    +0.000 OA
ATOM     15  H   UNL     1      52.228   1.629  19.487  0.00  0.00    +0.000 HD
ENDBRANCH  12  14
ENDBRANCH   2   9
ENDBRANCH   1   6
BRANCH   1  16
ATOM     16  C   UNL     1      47.100   3.975  16.141  0.00  0.00    +0.000 C 
BRANCH  16  17
ATOM     17  N   UNL     1      47.404   5.137  15.293  0.00  0.00    +0.000 N 
ATOM     18  C   UNL     1      46.753   5.061  14.046  0.00  0.00    +0.000 A 
ATOM     19  C   UNL     1      46.928   6.086  13.121  0.00  0.00    +0.000 A 
ATOM     20  C   UNL     1      46.266   6.014  11.890  0.00  0.00    +0.000 A 
ATOM     21  C   UNL     1      45.443   4.920  11.604  0.00  0.00    +0.000 A 
ATOM     22  C   UNL     1      45.324   3.956  12.588  0.00  0.00    +0.000 A 
ATOM     23  N   UNL     1      45.950   4.012  13.785  0.00  0.00    +0.000 NA
ATOM     24  H   UNL     1      48.403   5.246  15.130  0.00  0.00    +0.000 HD
BRANCH  21  25
ATOM     25  C   UNL     1      44.748   4.830  10.302  0.00  0.00    +0.000 C 
ATOM     26  N   UNL     1      45.446   5.083   9.153  0.00  0.00    +0.000 N 
ATOM     27  O   UNL     1      43.559   4.531  10.243  0.00  0.00    +0.000 OA
ATOM     28  H   UNL     1      46.421   5.334   9.087  0.00  0.00    +0.000 HD
ATOM     29  H   UNL     1      44.929   5.013   8.285  0.00  0.00    +0.000 HD
ENDBRANCH  21  25
ENDBRANCH  16  17
ENDBRANCH   1  16
TORSDOF 6
ENDMDL
MODEL 8
REMARK VINA RESULT:    -6.719      3.670      5.521
REMARK INTER + INTRA:          -9.139
REMARK INTER:                  -8.171
REMARK INTRA:                  -0.968
REMARK UNBOUND:                -0.260
REMARK  Name = 
REMARK  7 active torsions:
REMARK  status: ('A' for Active; 'I' for Inactive)
REMARK    1  A    between atoms: C_1  and  C_2
REMARK    2  A    between atoms: C_2  and  C_3
REMARK    3  A    between atoms: C_7  and  C_8
REMARK    4  A    between atoms: C_8  and  C_9
REMARK    5  A    between atoms: C_9  and  N_10
REMARK    6  A    between atoms: C_14  and  C_15
REMARK    7  A    between atoms: C_23  and  O_24
REMARK                            x       y       z     vdW  Elec       q    Type
REMARK                         _______ _______ _______ _____ _____    ______ ____
ROOT
ATOM      1  C   UNL     1      48.444   7.862  13.633  0.00  0.00    +0.000 C 
ENDROOT
BRANCH   1   6
ATOM      2  C   UNL     1      49.325   6.443  17.084  0.00  0.00    +0.000 A 
ATOM      3  C   UNL     1      49.023   7.553  17.894  0.00  0.00    +0.000 A 
ATOM      4  C   UNL     1      48.517   8.735  17.349  0.00  0.00    +0.000 A 
ATOM      5  C   UNL     1      48.305   8.839  15.977  0.00  0.00    +0.000 A 
ATOM      6  C   UNL     1      48.603   7.763  15.136  0.00  0.00    +0.000 A 
ATOM      7  C   UNL     1      49.113   6.583  15.702  0.00  0.00    +0.000 A 
BRANCH   2   9
ATOM      8  C   UNL     1      51.406   5.090  17.230  0.00  0.00    +0.000 C 
ATOM      9  C   UNL     1      49.943   5.180  17.711  0.00  0.00    +0.000 C 
ATOM     10  C   UNL     1      49.873   5.211  19.262  0.00  0.00    +0.000 C 
ATOM     11  C   UNL     1      48.692   4.328  19.696  0.00  0.00    +0.000 C 
ATOM     12  C   UNL     1      48.107   3.728  18.424  0.00  0.00    +0.000 C 
ATOM     13  C   UNL     1      49.231   3.839  17.399  0.00  0.00    +0.000 C 
BRANCH  12  14
ATOM     14  O   UNL     1      46.942   4.435  18.024  0.00  0.00    +0.000 OA
ATOM     15  H   UNL     1      46.377   3.837  17.503  0.00  0.00    +0.000 HD
ENDBRANCH  12  14
ENDBRANCH   2   9
ENDBRANCH   1   6
BRANCH   1  16
ATOM     16  C   UNL     1      46.983   7.840  13.184  0.00  0.00    +0.000 C 
BRANCH  16  17
ATOM     17  N   UNL     1      46.306   6.621  13.650  0.00  0.00    +0.000 N 
ATOM     18  C   UNL     1      45.880   5.815  12.577  0.00  0.00    +0.000 A 
ATOM     19  C   UNL     1      45.223   4.616  12.841  0.00  0.00    +0.000 A 
ATOM     20  C   UNL     1      44.817   3.811  11.771  0.00  0.00    +0.000 A 
ATOM     21  C   UNL     1      45.070   4.216  10.458  0.00  0.00    +0.000 A 
ATOM     22  C   UNL     1      45.736   5.417  10.294  0.00  0.00    +0.000 A 
ATOM     23  N   UNL     1      46.142   6.205  11.315  0.00  0.00    +0.000 NA
ATOM     24  H   UNL     1      45.502   6.826  14.239  0.00  0.00    +0.000 HD
BRANCH  21  25
ATOM     25  C   UNL     1      44.634   3.377   9.321  0.00  0.00    +0.000 C 
ATOM     26  N   UNL     1      44.616   2.017   9.462  0.00  0.00    +0.000 N 
ATOM     27  O   UNL     1      44.290   3.888   8.258  0.00  0.00    +0.000 OA
ATOM     28  H   UNL     1      44.875   1.497  10.287  0.00  0.00    +0.000 HD
ATOM     29  H   UNL     1      44.314   1.483   8.656  0.00  0.00    +0.000 HD
ENDBRANCH  21  25
ENDBRANCH  16  17
ENDBRANCH   1  16
TORSDOF 6
ENDMDL
MODEL 9
REMARK VINA RESULT:    -6.658      3.647      5.363
REMARK INTER + INTRA:          -9.059
REMARK INTER:                  -8.194
REMARK INTRA:                  -0.865
REMARK UNBOUND:                -0.260
REMARK  Name = 
REMARK  7 active torsions:
REMARK  status: ('A' for Active; 'I' for Inactive)
REMARK    1  A    between atoms: C_1  and  C_2
REMARK    2  A    between atoms: C_2  and  C_3
REMARK    3  A    between atoms: C_7  and  C_8
REMARK    4  A    between atoms: C_8  and  C_9
REMARK    5  A    between atoms: C_9  and  N_10
REMARK    6  A    between atoms: C_14  and  C_15
REMARK    7  A    between atoms: C_23  and  O_24
REMARK                            x       y       z     vdW  Elec       q    Type
REMARK                         _______ _______ _______ _____ _____    ______ ____
ROOT
ATOM      1  C   UNL     1      48.344   4.156  16.946  0.00  0.00    +0.000 C 
ENDROOT
BRANCH   1   6
ATOM      2  C   UNL     1      48.889   7.781  18.071  0.00  0.00    +0.000 A 
ATOM      3  C   UNL     1      47.937   7.867  19.104  0.00  0.00    +0.000 A 
ATOM      4  C   UNL     1      47.147   6.772  19.457  0.00  0.00    +0.000 A 
ATOM      5  C   UNL     1      47.285   5.561  18.783  0.00  0.00    +0.000 A 
ATOM      6  C   UNL     1      48.211   5.437  17.743  0.00  0.00    +0.000 A 
ATOM      7  C   UNL     1      48.995   6.550  17.400  0.00  0.00    +0.000 A 
BRANCH   2   9
ATOM      8  C   UNL     1      50.530   9.461  18.890  0.00  0.00    +0.000 C 
ATOM      9  C   UNL     1      49.696   9.027  17.665  0.00  0.00    +0.000 C 
ATOM     10  C   UNL     1      50.614   8.749  16.444  0.00  0.00    +0.000 C 
ATOM     11  C   UNL     1      49.921   9.319  15.197  0.00  0.00    +0.000 C 
ATOM     12  C   UNL     1      48.639   9.985  15.678  0.00  0.00    +0.000 C 
ATOM     13  C   UNL     1      48.877  10.243  17.162  0.00  0.00    +0.000 C 
BRANCH  12  14
ATOM     14  O   UNL     1      47.518   9.142  15.451  0.00  0.00    +0.000 OA
ATOM     15  H   UNL     1      46.810   9.389  16.072  0.00  0.00    +0.000 HD
ENDBRANCH  12  14
ENDBRANCH   2   9
ENDBRANCH   1   6
BRANCH   1  16
ATOM     16  C   UNL     1      47.235   3.978  15.912  0.00  0.00    +0.000 C 
BRANCH  16  17
ATOM     17  N   UNL     1      47.130   5.157  15.040  0.00  0.00    +0.000 N 
ATOM     18  C   UNL     1      46.465   4.862  13.834  0.00  0.00    +0.000 A 
ATOM     19  C   UNL     1      46.275   5.871  12.894  0.00  0.00    +0.000 A 
ATOM     20  C   UNL     1      45.599   5.576  11.705  0.00  0.00    +0.000 A 
ATOM     21  C   UNL     1      45.128   4.280  11.474  0.00  0.00    +0.000 A 
ATOM     22  C   UNL     1      45.356   3.347  12.469  0.00  0.00    +0.000 A 
ATOM     23  N   UNL     1      46.001   3.615  13.626  0.00  0.00    +0.000 NA
ATOM     24  H   UNL     1      48.039   5.557  14.819  0.00  0.00    +0.000 HD
BRANCH  21  25
ATOM     25  C   UNL     1      44.423   3.956  10.215  0.00  0.00    +0.000 C 
ATOM     26  N   UNL     1      44.528   4.809   9.151  0.00  0.00    +0.000 N 
ATOM     27  O   UNL     1      43.749   2.934  10.117  0.00  0.00    +0.000 OA
ATOM     28  H   UNL     1      45.054   5.670   9.123  0.00  0.00    +0.000 HD
ATOM     29  H   UNL     1      44.026   4.549   8.311  0.00  0.00    +0.000 HD
ENDBRANCH  21  25
ENDBRANCH  16  17
ENDBRANCH   1  16
TORSDOF 6
ENDMDL
