MODEL 1
REMARK VINA RESULT:    -7.569      0.000      0.000
REMARK INTER + INTRA:         -12.708
REMARK INTER:                 -11.330
REMARK INTRA:                  -1.378
REMARK UNBOUND:                -1.378
REMARK  Name = 
REMARK  9 active torsions:
REMARK  status: ('A' for Active; 'I' for Inactive)
REMARK    1  A    between atoms: C_2  and  C_4
REMARK    2  A    between atoms: C_7  and  N_8
REMARK    3  A    between atoms: N_8  and  C_9
REMARK    4  A    between atoms: C_9  and  C_10
REMARK    5  A    between atoms: C_9  and  C_14
REMARK    6  A    between atoms: C_10  and  C_11
REMARK    7  A    between atoms: C_11  and  C_12
REMARK    8  A    between atoms: C_12  and  O_13
REMARK    9  A    between atoms: C_18  and  C_19
REMARK                            x       y       z     vdW  Elec       q    Type
REMARK                         _______ _______ _______ _____ _____    ______ ____
ROOT
ATOM      1  C   UNL     1      45.155   5.336  11.411  0.00  0.00    +0.000 C 
ENDROOT
BRANCH   1   2
ATOM      2  C   UNL     1      46.295   5.975  12.240  0.00  0.00    +0.000 A 
ATOM      3  C   UNL     1      46.639   5.396  13.481  0.00  0.00    +0.000 A 
ATOM      4  C   UNL     1      47.750   5.823  14.216  0.00  0.00    +0.000 A 
ATOM      5  C   UNL     1      48.610   6.777  13.685  0.00  0.00    +0.000 A 
ATOM      6  C   UNL     1      48.324   7.353  12.445  0.00  0.00    +0.000 A 
ATOM      7  C   UNL     1      47.122   7.020  11.793  0.00  0.00    +0.000 A 
BRANCH   6   8
ATOM      8  C   UNL     1      49.341   8.234  11.757  0.00  0.00    +0.000 C 
ATOM      9  F   UNL     1      50.248   8.787  12.612  0.00  0.00    +0.000 F 
ATOM     10  F   UNL     1      50.079   7.552  10.836  0.00  0.00    +0.000 F 
ATOM     11  F   UNL     1      48.775   9.277  11.086  0.00  0.00    +0.000 F 
ENDBRANCH   6   8
ENDBRANCH   1   2
BRANCH   1  12
ATOM     12  N   UNL     1      45.235   5.456   9.942  0.00  0.00    +0.000 N 
ATOM     13  H   UNL     1      44.434   5.960   9.579  0.00  0.00    +0.000 HD
BRANCH  12  17
ATOM     14  C   UNL     1      46.448   2.268   7.737  0.00  0.00    +0.000 A 
ATOM     15  C   UNL     1      45.540   2.090   8.766  0.00  0.00    +0.000 A 
ATOM     16  N   UNL     1      44.975   3.130   9.432  0.00  0.00    +0.000 NA
ATOM     17  C   UNL     1      45.403   4.359   9.092  0.00  0.00    +0.000 A 
ATOM     18  C   UNL     1      46.232   4.521   7.967  0.00  0.00    +0.000 A 
ATOM     19  N   UNL     1      46.776   3.499   7.261  0.00  0.00    +0.000 NA
BRANCH  14  21
ATOM     20  N   UNL     1      46.846  -0.122   7.704  0.00  0.00    +0.000 N 
ATOM     21  C   UNL     1      47.215   1.102   7.220  0.00  0.00    +0.000 C 
ATOM     22  O   UNL     1      48.097   1.222   6.377  0.00  0.00    +0.000 OA
ATOM     23  H   UNL     1      47.252  -0.951   7.292  0.00  0.00    +0.000 HD
ATOM     24  H   UNL     1      46.057  -0.202   8.334  0.00  0.00    +0.000 HD
ENDBRANCH  14  21
ENDBRANCH  12  17
ENDBRANCH   1  12
BRANCH   1  25
ATOM     25  C   UNL     1      43.791   5.972  11.835  0.00  0.00    +0.000 C 
BRANCH  25  26
ATOM     26  C   UNL     1      42.732   4.971  12.314  0.00  0.00    +0.000 C 
BRANCH  26  27
ATOM     27  C   UNL     1      43.322   3.582  12.522  0.00  0.00    +0.000 C 
BRANCH  27  28
ATOM     28  O   UNL     1      42.799   2.698  11.541  0.00  0.00    +0.000 OA
ATOM     29  H   UNL     1      43.409   2.702  10.783  0.00  0.00    +0.000 HD
ENDBRANCH  27  28
ENDBRANCH  26  27
ENDBRANCH  25  26
ENDBRANCH   1  25
TORSDOF 9
ENDMDL
MODEL 2
REMARK VINA RESULT:    -7.527      1.113      1.615
REMARK INTER + INTRA:         -12.645
REMARK INTER:                 -11.386
REMARK INTRA:                  -1.259
REMARK UNBOUND:                -1.378
REMARK  Name = 
REMARK  9 active torsions:
REMARK  status: ('A' for Active; 'I' for Inactive)
REMARK    1  A    between atoms: C_2  and  C_4
REMARK    2  A    between atoms: C_7  and  N_8
REMARK    3  A    between atoms: N_8  and  C_9
REMARK    4  A    between atoms: C_9  and  C_10
REMARK    5  A    between atoms: C_9  and  C_14
REMARK    6  A    between atoms: C_10  and  C_11
REMARK    7  A    between atoms: C_11  and  C_12
REMARK    8  A    between atoms: C_12  and  O_13
REMARK    9  A    between atoms: C_18  and  C_19
REMARK                            x       y       z     vdW  Elec       q    Type
REMARK                         _______ _______ _______ _____ _____    ______ ____
ROOT
ATOM      1  C   UNL     1      44.706   5.330  11.208  0.00  0.00    +0.000 C 
ENDROOT
BRANCH   1   2
ATOM      2  C   UNL     1      45.561   6.592  11.473  0.00  0.00    +0.000 A 
ATOM      3  C   UNL     1      44.906   7.804  11.783  0.00  0.00    +0.000 A 
ATOM      4  C   UNL     1      45.609   8.947  12.179  0.00  0.00    +0.000 A 
ATOM      5  C   UNL     1      46.983   8.886  12.371  0.00  0.00    +0.000 A 
ATOM      6  C   UNL     1      47.667   7.696  12.106  0.00  0.00    +0.000 A 
ATOM      7  C   UNL     1      46.963   6.605  11.565  0.00  0.00    +0.000 A 
BRANCH   6   8
ATOM      8  C   UNL     1      49.118   7.543  12.500  0.00  0.00    +0.000 C 
ATOM      9  F   UNL     1      49.714   8.718  12.849  0.00  0.00    +0.000 F 
ATOM     10  F   UNL     1      49.279   6.721  13.576  0.00  0.00    +0.000 F 
ATOM     11  F   UNL     1      49.887   7.013  11.507  0.00  0.00    +0.000 F 
ENDBRANCH   6   8
ENDBRANCH   1   2
BRANCH   1  12
ATOM     12  N   UNL     1      44.218   5.116   9.831  0.00  0.00    +0.000 N 
ATOM     13  H   UNL     1      43.207   5.042   9.817  0.00  0.00    +0.000 HD
BRANCH  12  17
ATOM     14  C   UNL     1      46.215   2.194   7.841  0.00  0.00    +0.000 A 
ATOM     15  C   UNL     1      45.144   1.867   8.653  0.00  0.00    +0.000 A 
ATOM     16  N   UNL     1      44.338   2.805   9.215  0.00  0.00    +0.000 NA
ATOM     17  C   UNL     1      44.681   4.088   9.006  0.00  0.00    +0.000 A 
ATOM     18  C   UNL     1      45.697   4.395   8.083  0.00  0.00    +0.000 A 
ATOM     19  N   UNL     1      46.488   3.475   7.477  0.00  0.00    +0.000 NA
BRANCH  14  21
ATOM     20  N   UNL     1      46.840  -0.145   7.736  0.00  0.00    +0.000 N 
ATOM     21  C   UNL     1      47.201   1.145   7.463  0.00  0.00    +0.000 C 
ATOM     22  O   UNL     1      48.256   1.412   6.900  0.00  0.00    +0.000 OA
ATOM     23  H   UNL     1      47.418  -0.897   7.387  0.00  0.00    +0.000 HD
ATOM     24  H   UNL     1      45.924  -0.345   8.122  0.00  0.00    +0.000 HD
ENDBRANCH  14  21
ENDBRANCH  12  17
ENDBRANCH   1  12
BRANCH   1  25
ATOM     25  C   UNL     1      43.441   5.363  12.128  0.00  0.00    +0.000 C 
BRANCH  25  26
ATOM     26  C   UNL     1      43.300   4.165  13.076  0.00  0.00    +0.000 C 
BRANCH  26  27
ATOM     27  C   UNL     1      43.921   2.903  12.489  0.00  0.00    +0.000 C 
BRANCH  27  28
ATOM     28  O   UNL     1      42.943   2.211  11.725  0.00  0.00    +0.000 OA
ATOM     29  H   UNL     1      42.079   2.354  12.151  0.00  0.00    +0.000 HD
ENDBRANCH  27  28
ENDBRANCH  26  27
ENDBRANCH  25  26
ENDBRANCH   1  25
TORSDOF 9
ENDMDL
MODEL 3
REMARK VINA RESULT:    -7.488      2.835      3.519
REMARK INTER + INTRA:         -12.588
REMARK INTER:                 -11.118
REMARK INTRA:                  -1.470
REMARK UNBOUND:                -1.378
REMARK  Name = 
REMARK  9 active torsions:
REMARK  status: ('A' for Active; 'I' for Inactive)
REMARK    1  A    between atoms: C_2  and  C_4
REMARK    2  A    between atoms: C_7  and  N_8
REMARK    3  A    between atoms: N_8  and  C_9
REMARK    4  A    between atoms: C_9  and  C_10
REMARK    5  A    between atoms: C_9  and  C_14
REMARK    6  A    between atoms: C_10  and  C_11
REMARK    7  A    between atoms: C_11  and  C_12
REMARK    8  A    between atoms: C_12  and  O_13
REMARK    9  A    between atoms: C_18  and  C_19
REMARK                            x       y       z     vdW  Elec       q    Type
REMARK                         _______ _______ _______ _____ _____    ______ ____
ROOT
ATOM      1  C   UNL     1      45.547   5.667  11.193  0.00  0.00    +0.000 C 
ENDROOT
BRANCH   1   2
ATOM      2  C   UNL     1      45.339   7.144  11.606  0.00  0.00    +0.000 A 
ATOM      3  C   UNL     1      46.365   7.801  12.321  0.00  0.00    +0.000 A 
ATOM      4  C   UNL     1      46.316   9.171  12.599  0.00  0.00    +0.000 A 
ATOM      5  C   UNL     1      45.284   9.947  12.086  0.00  0.00    +0.000 A 
ATOM      6  C   UNL     1      44.264   9.342  11.346  0.00  0.00    +0.000 A 
ATOM      7  C   UNL     1      44.254   7.942  11.207  0.00  0.00    +0.000 A 
BRANCH   6   8
ATOM      8  C   UNL     1      43.249  10.186  10.609  0.00  0.00    +0.000 C 
ATOM      9  F   UNL     1      43.561  10.389   9.298  0.00  0.00    +0.000 F 
ATOM     10  F   UNL     1      42.010   9.618  10.604  0.00  0.00    +0.000 F 
ATOM     11  F   UNL     1      43.091  11.425  11.153  0.00  0.00    +0.000 F 
ENDBRANCH   6   8
ENDBRANCH   1   2
BRANCH   1  12
ATOM     12  N   UNL     1      44.636   5.113  10.172  0.00  0.00    +0.000 N 
ATOM     13  H   UNL     1      43.849   4.646  10.609  0.00  0.00    +0.000 HD
BRANCH  12  17
ATOM     14  C   UNL     1      46.556   2.679   7.548  0.00  0.00    +0.000 A 
ATOM     15  C   UNL     1      45.609   2.154   8.410  0.00  0.00    +0.000 A 
ATOM     16  N   UNL     1      44.820   2.935   9.194  0.00  0.00    +0.000 NA
ATOM     17  C   UNL     1      45.059   4.257   9.151  0.00  0.00    +0.000 A 
ATOM     18  C   UNL     1      45.939   4.775   8.184  0.00  0.00    +0.000 A 
ATOM     19  N   UNL     1      46.707   4.017   7.361  0.00  0.00    +0.000 NA
BRANCH  14  21
ATOM     20  N   UNL     1      48.625   2.387   6.321  0.00  0.00    +0.000 N 
ATOM     21  C   UNL     1      47.552   1.777   6.908  0.00  0.00    +0.000 C 
ATOM     22  O   UNL     1      47.443   0.557   6.940  0.00  0.00    +0.000 OA
ATOM     23  H   UNL     1      49.386   1.815   5.984  0.00  0.00    +0.000 HD
ATOM     24  H   UNL     1      48.734   3.393   6.384  0.00  0.00    +0.000 HD
ENDBRANCH  14  21
ENDBRANCH  12  17
ENDBRANCH   1  12
BRANCH   1  25
ATOM     25  C   UNL     1      45.408   4.755  12.456  0.00  0.00    +0.000 C 
BRANCH  25  26
ATOM     26  C   UNL     1      43.964   4.456  12.881  0.00  0.00    +0.000 C 
BRANCH  26  27
ATOM     27  C   UNL     1      43.579   3.010  12.598  0.00  0.00    +0.000 C 
BRANCH  27  28
ATOM     28  O   UNL     1      42.788   2.956  11.419  0.00  0.00    +0.000 OA
ATOM     29  H   UNL     1      43.394   2.886  10.660  0.00  0.00    +0.000 HD
ENDBRANCH  27  28
ENDBRANCH  26  27
ENDBRANCH  25  26
ENDBRANCH   1  25
TORSDOF 9
ENDMDL
MODEL 4
REMARK VINA RESULT:    -7.392      1.806      2.325
REMARK INTER + INTRA:         -12.443
REMARK INTER:                 -11.112
REMARK INTRA:                  -1.331
REMARK UNBOUND:                -1.378
REMARK  Name = 
REMARK  9 active torsions:
REMARK  status: ('A' for Active; 'I' for Inactive)
REMARK    1  A    between atoms: C_2  and  C_4
REMARK    2  A    between atoms: C_7  and  N_8
REMARK    3  A    between atoms: N_8  and  C_9
REMARK    4  A    between atoms: C_9  and  C_10
REMARK    5  A    between atoms: C_9  and  C_14
REMARK    6  A    between atoms: C_10  and  C_11
REMARK    7  A    between atoms: C_11  and  C_12
REMARK    8  A    between atoms: C_12  and  O_13
REMARK    9  A    between atoms: C_18  and  C_19
REMARK                            x       y       z     vdW  Elec       q    Type
REMARK                         _______ _______ _______ _____ _____    ______ ____
ROOT
ATOM      1  C   UNL     1      45.494   5.178  11.735  0.00  0.00    +0.000 C 
ENDROOT
BRANCH   1   2
ATOM      2  C   UNL     1      46.759   5.948  12.185  0.00  0.00    +0.000 A 
ATOM      3  C   UNL     1      47.233   7.006  11.379  0.00  0.00    +0.000 A 
ATOM      4  C   UNL     1      48.277   7.842  11.789  0.00  0.00    +0.000 A 
ATOM      5  C   UNL     1      48.815   7.706  13.062  0.00  0.00    +0.000 A 
ATOM      6  C   UNL     1      48.354   6.691  13.905  0.00  0.00    +0.000 A 
ATOM      7  C   UNL     1      47.411   5.768  13.416  0.00  0.00    +0.000 A 
BRANCH   6   8
ATOM      8  C   UNL     1      48.774   6.650  15.356  0.00  0.00    +0.000 C 
ATOM      9  F   UNL     1      48.359   7.733  16.073  0.00  0.00    +0.000 F 
ATOM     10  F   UNL     1      48.270   5.566  16.011  0.00  0.00    +0.000 F 
ATOM     11  F   UNL     1      50.126   6.590  15.518  0.00  0.00    +0.000 F 
ENDBRANCH   6   8
ENDBRANCH   1   2
BRANCH   1  12
ATOM     12  N   UNL     1      45.056   5.350  10.337  0.00  0.00    +0.000 N 
ATOM     13  H   UNL     1      44.064   5.554  10.295  0.00  0.00    +0.000 HD
BRANCH  12  17
ATOM     14  C   UNL     1      46.447   2.599   7.693  0.00  0.00    +0.000 A 
ATOM     15  C   UNL     1      45.577   2.212   8.697  0.00  0.00    +0.000 A 
ATOM     16  N   UNL     1      44.953   3.105   9.509  0.00  0.00    +0.000 NA
ATOM     17  C   UNL     1      45.284   4.397   9.340  0.00  0.00    +0.000 A 
ATOM     18  C   UNL     1      46.074   4.775   8.239  0.00  0.00    +0.000 A 
ATOM     19  N   UNL     1      46.674   3.905   7.390  0.00  0.00    +0.000 NA
BRANCH  14  21
ATOM     20  N   UNL     1      48.356   2.052   6.304  0.00  0.00    +0.000 N 
ATOM     21  C   UNL     1      47.285   1.576   7.008  0.00  0.00    +0.000 C 
ATOM     22  O   UNL     1      47.058   0.376   7.102  0.00  0.00    +0.000 OA
ATOM     23  H   UNL     1      49.023   1.392   5.927  0.00  0.00    +0.000 HD
ATOM     24  H   UNL     1      48.571   3.042   6.314  0.00  0.00    +0.000 HD
ENDBRANCH  14  21
ENDBRANCH  12  17
ENDBRANCH   1  12
BRANCH   1  25
ATOM     25  C   UNL     1      44.287   5.601  12.635  0.00  0.00    +0.000 C 
BRANCH  25  26
ATOM     26  C   UNL     1      43.046   4.707  12.514  0.00  0.00    +0.000 C 
BRANCH  26  27
ATOM     27  C   UNL     1      43.399   3.230  12.638  0.00  0.00    +0.000 C 
BRANCH  27  28
ATOM     28  O   UNL     1      42.852   2.522  11.534  0.00  0.00    +0.000 OA
ATOM     29  H   UNL     1      43.592   2.243  10.966  0.00  0.00    +0.000 HD
ENDBRANCH  27  28
ENDBRANCH  26  27
ENDBRANCH  25  26
ENDBRANCH   1  25
TORSDOF 9
ENDMDL
MODEL 5
REMARK VINA RESULT:    -6.853      1.487      2.078
REMARK INTER + INTRA:         -11.637
REMARK INTER:                 -10.678
REMARK INTRA:                  -0.959
REMARK UNBOUND:                -1.378
REMARK  Name = 
REMARK  9 active torsions:
REMARK  status: ('A' for Active; 'I' for Inactive)
REMARK    1  A    between atoms: C_2  and  C_4
REMARK    2  A    between atoms: C_7  and  N_8
REMARK    3  A    between atoms: N_8  and  C_9
REMARK    4  A    between atoms: C_9  and  C_10
REMARK    5  A    between atoms: C_9  and  C_14
REMARK    6  A    between atoms: C_10  and  C_11
REMARK    7  A    between atoms: C_11  and  C_12
REMARK    8  A    between atoms: C_12  and  O_13
REMARK    9  A    between atoms: C_18  and  C_19
REMARK                            x       y       z     vdW  Elec       q    Type
REMARK                         _______ _______ _______ _____ _____    ______ ____
ROOT
ATOM      1  C   UNL     1      45.661   5.533  11.353  0.00  0.00    +0.000 C 
ENDROOT
BRANCH   1   2
ATOM      2  C   UNL     1      46.389   6.889  11.511  0.00  0.00    +0.000 A 
ATOM      3  C   UNL     1      45.660   8.000  11.991  0.00  0.00    +0.000 A 
ATOM      4  C   UNL     1      46.278   9.216  12.301  0.00  0.00    +0.000 A 
ATOM      5  C   UNL     1      47.661   9.328  12.234  0.00  0.00    +0.000 A 
ATOM      6  C   UNL     1      48.425   8.243  11.794  0.00  0.00    +0.000 A 
ATOM      7  C   UNL     1      47.770   7.081  11.344  0.00  0.00    +0.000 A 
BRANCH   6   8
ATOM      8  C   UNL     1      49.931   8.270  11.907  0.00  0.00    +0.000 C 
ATOM      9  F   UNL     1      50.559   7.482  10.989  0.00  0.00    +0.000 F 
ATOM     10  F   UNL     1      50.442   9.520  11.723  0.00  0.00    +0.000 F 
ATOM     11  F   UNL     1      50.382   7.857  13.125  0.00  0.00    +0.000 F 
ENDBRANCH   6   8
ENDBRANCH   1   2
BRANCH   1  12
ATOM     12  N   UNL     1      44.889   5.317  10.113  0.00  0.00    +0.000 N 
ATOM     13  H   UNL     1      43.895   5.290  10.310  0.00  0.00    +0.000 HD
BRANCH  12  17
ATOM     14  C   UNL     1      46.296   2.252   7.852  0.00  0.00    +0.000 A 
ATOM     15  C   UNL     1      45.375   2.003   8.854  0.00  0.00    +0.000 A 
ATOM     16  N   UNL     1      44.747   2.998   9.534  0.00  0.00    +0.000 NA
ATOM     17  C   UNL     1      45.126   4.253   9.238  0.00  0.00    +0.000 A 
ATOM     18  C   UNL     1      45.972   4.485   8.138  0.00  0.00    +0.000 A 
ATOM     19  N   UNL     1      46.578   3.509   7.418  0.00  0.00    +0.000 NA
BRANCH  14  21
ATOM     20  N   UNL     1      46.769  -0.122   7.718  0.00  0.00    +0.000 N 
ATOM     21  C   UNL     1      47.128   1.137   7.322  0.00  0.00    +0.000 C 
ATOM     22  O   UNL     1      48.054   1.326   6.542  0.00  0.00    +0.000 OA
ATOM     23  H   UNL     1      47.223  -0.916   7.288  0.00  0.00    +0.000 HD
ATOM     24  H   UNL     1      45.946  -0.257   8.294  0.00  0.00    +0.000 HD
ENDBRANCH  14  21
ENDBRANCH  12  17
ENDBRANCH   1  12
BRANCH   1  25
ATOM     25  C   UNL     1      44.659   5.344  12.539  0.00  0.00    +0.000 C 
BRANCH  25  26
ATOM     26  C   UNL     1      45.111   4.347  13.614  0.00  0.00    +0.000 C 
BRANCH  26  27
ATOM     27  C   UNL     1      46.589   4.505  13.946  0.00  0.00    +0.000 C 
BRANCH  27  28
ATOM     28  O   UNL     1      47.198   3.223  14.001  0.00  0.00    +0.000 OA
ATOM     29  H   UNL     1      46.561   2.610  14.408  0.00  0.00    +0.000 HD
ENDBRANCH  27  28
ENDBRANCH  26  27
ENDBRANCH  25  26
ENDBRANCH   1  25
TORSDOF 9
ENDMDL
MODEL 6
REMARK VINA RESULT:    -6.629      5.399      7.642
REMARK INTER + INTRA:         -11.301
REMARK INTER:                  -9.951
REMARK INTRA:                  -1.350
REMARK UNBOUND:                -1.378
REMARK  Name = 
REMARK  9 active torsions:
REMARK  status: ('A' for Active; 'I' for Inactive)
REMARK    1  A    between atoms: C_2  and  C_4
REMARK    2  A    between atoms: C_7  and  N_8
REMARK    3  A    between atoms: N_8  and  C_9
REMARK    4  A    between atoms: C_9  and  C_10
REMARK    5  A    between atoms: C_9  and  C_14
REMARK    6  A    between atoms: C_10  and  C_11
REMARK    7  A    between atoms: C_11  and  C_12
REMARK    8  A    between atoms: C_12  and  O_13
REMARK    9  A    between atoms: C_18  and  C_19
REMARK                            x       y       z     vdW  Elec       q    Type
REMARK                         _______ _______ _______ _____ _____    ______ ____
ROOT
ATOM      1  C   UNL     1      46.801   4.987  13.583  0.00  0.00    +0.000 C 
ENDROOT
BRANCH   1   2
ATOM      2  C   UNL     1      45.532   4.475  12.861  0.00  0.00    +0.000 A 
ATOM      3  C   UNL     1      44.297   5.105  13.129  0.00  0.00    +0.000 A 
ATOM      4  C   UNL     1      43.137   4.798  12.409  0.00  0.00    +0.000 A 
ATOM      5  C   UNL     1      43.198   3.922  11.333  0.00  0.00    +0.000 A 
ATOM      6  C   UNL     1      44.408   3.300  11.014  0.00  0.00    +0.000 A 
ATOM      7  C   UNL     1      45.526   3.506  11.843  0.00  0.00    +0.000 A 
BRANCH   6   8
ATOM      8  C   UNL     1      44.548   2.509   9.734  0.00  0.00    +0.000 C 
ATOM      9  F   UNL     1      45.828   2.119   9.474  0.00  0.00    +0.000 F 
ATOM     10  F   UNL     1      43.815   1.360   9.753  0.00  0.00    +0.000 F 
ATOM     11  F   UNL     1      44.136   3.198   8.633  0.00  0.00    +0.000 F 
ENDBRANCH   6   8
ENDBRANCH   1   2
BRANCH   1  12
ATOM     12  N   UNL     1      46.745   5.107  15.053  0.00  0.00    +0.000 N 
ATOM     13  H   UNL     1      46.913   6.064  15.342  0.00  0.00    +0.000 HD
BRANCH  12  17
ATOM     14  C   UNL     1      49.509   2.871  17.016  0.00  0.00    +0.000 A 
ATOM     15  C   UNL     1      49.150   4.113  17.510  0.00  0.00    +0.000 A 
ATOM     16  N   UNL     1      48.121   4.836  16.995  0.00  0.00    +0.000 NA
ATOM     17  C   UNL     1      47.509   4.316  15.916  0.00  0.00    +0.000 A 
ATOM     18  C   UNL     1      47.811   3.004  15.509  0.00  0.00    +0.000 A 
ATOM     19  N   UNL     1      48.806   2.247  16.035  0.00  0.00    +0.000 NA
BRANCH  14  21
ATOM     20  N   UNL     1      51.591   3.015  18.249  0.00  0.00    +0.000 N 
ATOM     21  C   UNL     1      50.788   2.247  17.452  0.00  0.00    +0.000 C 
ATOM     22  O   UNL     1      51.088   1.097  17.155  0.00  0.00    +0.000 OA
ATOM     23  H   UNL     1      52.407   2.593  18.670  0.00  0.00    +0.000 HD
ATOM     24  H   UNL     1      51.279   3.931  18.551  0.00  0.00    +0.000 HD
ENDBRANCH  14  21
ENDBRANCH  12  17
ENDBRANCH   1  12
BRANCH   1  25
ATOM     25  C   UNL     1      47.168   6.405  13.035  0.00  0.00    +0.000 C 
BRANCH  25  26
ATOM     26  C   UNL     1      48.666   6.642  12.806  0.00  0.00    +0.000 C 
BRANCH  26  27
ATOM     27  C   UNL     1      49.293   7.439  13.943  0.00  0.00    +0.000 C 
BRANCH  27  28
ATOM     28  O   UNL     1      49.755   6.544  14.945  0.00  0.00    +0.000 OA
ATOM     29  H   UNL     1      49.060   5.876  15.088  0.00  0.00    +0.000 HD
ENDBRANCH  27  28
ENDBRANCH  26  27
ENDBRANCH  25  26
ENDBRANCH   1  25
TORSDOF 9
ENDMDL
MODEL 7
REMARK VINA RESULT:    -6.540      4.419      6.865
REMARK INTER + INTRA:         -11.168
REMARK INTER:                 -10.330
REMARK INTRA:                  -0.838
REMARK UNBOUND:                -1.378
REMARK  Name = 
REMARK  9 active torsions:
REMARK  status: ('A' for Active; 'I' for Inactive)
REMARK    1  A    between atoms: C_2  and  C_4
REMARK    2  A    between atoms: C_7  and  N_8
REMARK    3  A    between atoms: N_8  and  C_9
REMARK    4  A    between atoms: C_9  and  C_10
REMARK    5  A    between atoms: C_9  and  C_14
REMARK    6  A    between atoms: C_10  and  C_11
REMARK    7  A    between atoms: C_11  and  C_12
REMARK    8  A    between atoms: C_12  and  O_13
REMARK    9  A    between atoms: C_18  and  C_19
REMARK                            x       y       z     vdW  Elec       q    Type
REMARK                         _______ _______ _______ _____ _____    ______ ____
ROOT
ATOM      1  C   UNL     1      46.455   7.197  11.778  0.00  0.00    +0.000 C 
ENDROOT
BRANCH   1   2
ATOM      2  C   UNL     1      45.564   6.073  11.198  0.00  0.00    +0.000 A 
ATOM      3  C   UNL     1      44.208   6.013  11.585  0.00  0.00    +0.000 A 
ATOM      4  C   UNL     1      43.306   5.121  10.994  0.00  0.00    +0.000 A 
ATOM      5  C   UNL     1      43.711   4.329   9.927  0.00  0.00    +0.000 A 
ATOM      6  C   UNL     1      45.038   4.380   9.491  0.00  0.00    +0.000 A 
ATOM      7  C   UNL     1      45.963   5.171  10.198  0.00  0.00    +0.000 A 
BRANCH   6   8
ATOM      8  C   UNL     1      45.452   3.687   8.213  0.00  0.00    +0.000 C 
ATOM      9  F   UNL     1      46.464   4.320   7.555  0.00  0.00    +0.000 F 
ATOM     10  F   UNL     1      45.899   2.418   8.433  0.00  0.00    +0.000 F 
ATOM     11  F   UNL     1      44.433   3.575   7.314  0.00  0.00    +0.000 F 
ENDBRANCH   6   8
ENDBRANCH   1   2
BRANCH   1  12
ATOM     12  N   UNL     1      47.742   6.801  12.383  0.00  0.00    +0.000 N 
ATOM     13  H   UNL     1      48.369   6.429  11.678  0.00  0.00    +0.000 HD
BRANCH  12  17
ATOM     14  C   UNL     1      47.503   4.725  15.865  0.00  0.00    +0.000 A 
ATOM     15  C   UNL     1      47.026   4.165  14.694  0.00  0.00    +0.000 A 
ATOM     16  N   UNL     1      47.221   4.735  13.476  0.00  0.00    +0.000 NA
ATOM     17  C   UNL     1      47.841   5.928  13.470  0.00  0.00    +0.000 A 
ATOM     18  C   UNL     1      48.421   6.418  14.654  0.00  0.00    +0.000 A 
ATOM     19  N   UNL     1      48.276   5.844  15.874  0.00  0.00    +0.000 NA
BRANCH  14  21
ATOM     20  N   UNL     1      46.978   5.095  18.202  0.00  0.00    +0.000 N 
ATOM     21  C   UNL     1      47.047   4.192  17.178  0.00  0.00    +0.000 C 
ATOM     22  O   UNL     1      46.711   3.023  17.327  0.00  0.00    +0.000 OA
ATOM     23  H   UNL     1      46.557   4.810  19.075  0.00  0.00    +0.000 HD
ATOM     24  H   UNL     1      47.179   6.074  18.030  0.00  0.00    +0.000 HD
ENDBRANCH  14  21
ENDBRANCH  12  17
ENDBRANCH   1  12
BRANCH   1  25
ATOM     25  C   UNL     1      45.661   7.964  12.886  0.00  0.00    +0.000 C 
BRANCH  25  26
ATOM     26  C   UNL     1      45.644   9.490  12.730  0.00  0.00    +0.000 C 
BRANCH  26  27
ATOM     27  C   UNL     1      44.644   9.939  11.673  0.00  0.00    +0.000 C 
BRANCH  27  28
ATOM     28  O   UNL     1      43.457  10.391  12.311  0.00  0.00    +0.000 OA
ATOM     29  H   UNL     1      43.508  10.131  13.248  0.00  0.00    +0.000 HD
ENDBRANCH  27  28
ENDBRANCH  26  27
ENDBRANCH  25  26
ENDBRANCH   1  25
TORSDOF 9
ENDMDL
MODEL 8
REMARK VINA RESULT:    -6.334      5.727      7.828
REMARK INTER + INTRA:         -10.860
REMARK INTER:                  -9.381
REMARK INTRA:                  -1.478
REMARK UNBOUND:                -1.378
REMARK  Name = 
REMARK  9 active torsions:
REMARK  status: ('A' for Active; 'I' for Inactive)
REMARK    1  A    between atoms: C_2  and  C_4
REMARK    2  A    between atoms: C_7  and  N_8
REMARK    3  A    between atoms: N_8  and  C_9
REMARK    4  A    between atoms: C_9  and  C_10
REMARK    5  A    between atoms: C_9  and  C_14
REMARK    6  A    between atoms: C_10  and  C_11
REMARK    7  A    between atoms: C_11  and  C_12
REMARK    8  A    between atoms: C_12  and  O_13
REMARK    9  A    between atoms: C_18  and  C_19
REMARK                            x       y       z     vdW  Elec       q    Type
REMARK                         _______ _______ _______ _____ _____    ______ ____
ROOT
ATOM      1  C   UNL     1      47.587   5.517  14.244  0.00  0.00    +0.000 C 
ENDROOT
BRANCH   1   2
ATOM      2  C   UNL     1      46.576   5.514  13.072  0.00  0.00    +0.000 A 
ATOM      3  C   UNL     1      46.832   6.334  11.952  0.00  0.00    +0.000 A 
ATOM      4  C   UNL     1      46.049   6.275  10.794  0.00  0.00    +0.000 A 
ATOM      5  C   UNL     1      45.044   5.323  10.683  0.00  0.00    +0.000 A 
ATOM      6  C   UNL     1      44.777   4.469  11.757  0.00  0.00    +0.000 A 
ATOM      7  C   UNL     1      45.476   4.647  12.966  0.00  0.00    +0.000 A 
BRANCH   6   8
ATOM      8  C   UNL     1      43.835   3.299  11.590  0.00  0.00    +0.000 C 
ATOM      9  F   UNL     1      43.788   2.480  12.678  0.00  0.00    +0.000 F 
ATOM     10  F   UNL     1      42.549   3.696  11.377  0.00  0.00    +0.000 F 
ATOM     11  F   UNL     1      44.160   2.500  10.534  0.00  0.00    +0.000 F 
ENDBRANCH   6   8
ENDBRANCH   1   2
BRANCH   1  12
ATOM     12  N   UNL     1      47.136   4.950  15.531  0.00  0.00    +0.000 N 
ATOM     13  H   UNL     1      46.822   5.684  16.155  0.00  0.00    +0.000 HD
BRANCH  12  17
ATOM     14  C   UNL     1      49.963   2.601  17.256  0.00  0.00    +0.000 A 
ATOM     15  C   UNL     1      49.609   3.801  17.847  0.00  0.00    +0.000 A 
ATOM     16  N   UNL     1      48.563   4.551  17.411  0.00  0.00    +0.000 NA
ATOM     17  C   UNL     1      47.927   4.106  16.314  0.00  0.00    +0.000 A 
ATOM     18  C   UNL     1      48.226   2.828  15.806  0.00  0.00    +0.000 A 
ATOM     19  N   UNL     1      49.238   2.043  16.251  0.00  0.00    +0.000 NA
BRANCH  14  21
ATOM     20  N   UNL     1      51.229   0.597  17.762  0.00  0.00    +0.000 N 
ATOM     21  C   UNL     1      51.257   1.956  17.614  0.00  0.00    +0.000 C 
ATOM     22  O   UNL     1      52.296   2.595  17.726  0.00  0.00    +0.000 OA
ATOM     23  H   UNL     1      52.103   0.103  17.881  0.00  0.00    +0.000 HD
ATOM     24  H   UNL     1      50.375   0.084  17.578  0.00  0.00    +0.000 HD
ENDBRANCH  14  21
ENDBRANCH  12  17
ENDBRANCH   1  12
BRANCH   1  25
ATOM     25  C   UNL     1      48.030   6.988  14.537  0.00  0.00    +0.000 C 
BRANCH  25  26
ATOM     26  C   UNL     1      49.464   7.139  15.061  0.00  0.00    +0.000 C 
BRANCH  26  27
ATOM     27  C   UNL     1      49.498   7.799  16.434  0.00  0.00    +0.000 C 
BRANCH  27  28
ATOM     28  O   UNL     1      48.282   7.526  17.116  0.00  0.00    +0.000 OA
ATOM     29  H   UNL     1      48.322   6.608  17.437  0.00  0.00    +0.000 HD
ENDBRANCH  27  28
ENDBRANCH  26  27
ENDBRANCH  25  26
ENDBRANCH   1  25
TORSDOF 9
ENDMDL
MODEL 9
REMARK VINA RESULT:    -6.061      5.047      7.559
REMARK INTER + INTRA:         -10.451
REMARK INTER:                  -9.432
REMARK INTRA:                  -1.018
REMARK UNBOUND:                -1.378
REMARK  Name = 
REMARK  9 active torsions:
REMARK  status: ('A' for Active; 'I' for Inactive)
REMARK    1  A    between atoms: C_2  and  C_4
REMARK    2  A    between atoms: C_7  and  N_8
REMARK    3  A    between atoms: N_8  and  C_9
REMARK    4  A    between atoms: C_9  and  C_10
REMARK    5  A    between atoms: C_9  and  C_14
REMARK    6  A    between atoms: C_10  and  C_11
REMARK    7  A    between atoms: C_11  and  C_12
REMARK    8  A    between atoms: C_12  and  O_13
REMARK    9  A    between atoms: C_18  and  C_19
REMARK                            x       y       z     vdW  Elec       q    Type
REMARK                         _______ _______ _______ _____ _____    ______ ____
ROOT
ATOM      1  C   UNL     1      46.716   5.579  12.610  0.00  0.00    +0.000 C 
ENDROOT
BRANCH   1   2
ATOM      2  C   UNL     1      45.622   4.581  12.159  0.00  0.00    +0.000 A 
ATOM      3  C   UNL     1      44.353   4.639  12.777  0.00  0.00    +0.000 A 
ATOM      4  C   UNL     1      43.272   3.875  12.324  0.00  0.00    +0.000 A 
ATOM      5  C   UNL     1      43.400   3.102  11.177  0.00  0.00    +0.000 A 
ATOM      6  C   UNL     1      44.630   3.040  10.516  0.00  0.00    +0.000 A 
ATOM      7  C   UNL     1      45.743   3.696  11.075  0.00  0.00    +0.000 A 
BRANCH   6   8
ATOM      8  C   UNL     1      44.740   2.376   9.164  0.00  0.00    +0.000 C 
ATOM      9  F   UNL     1      46.027   2.168   8.764  0.00  0.00    +0.000 F 
ATOM     10  F   UNL     1      44.149   1.148   9.140  0.00  0.00    +0.000 F 
ATOM     11  F   UNL     1      44.151   3.095   8.167  0.00  0.00    +0.000 F 
ENDBRANCH   6   8
ENDBRANCH   1   2
BRANCH   1  12
ATOM     12  N   UNL     1      46.764   5.933  14.042  0.00  0.00    +0.000 N 
ATOM     13  H   UNL     1      47.019   6.906  14.162  0.00  0.00    +0.000 HD
BRANCH  12  17
ATOM     14  C   UNL     1      48.652   4.369  17.280  0.00  0.00    +0.000 A 
ATOM     15  C   UNL     1      47.684   3.631  16.622  0.00  0.00    +0.000 A 
ATOM     16  N   UNL     1      47.134   4.028  15.445  0.00  0.00    +0.000 NA
ATOM     17  C   UNL     1      47.522   5.228  14.981  0.00  0.00    +0.000 A 
ATOM     18  C   UNL     1      48.590   5.902  15.600  0.00  0.00    +0.000 A 
ATOM     19  N   UNL     1      49.183   5.504  16.753  0.00  0.00    +0.000 NA
BRANCH  14  21
ATOM     20  N   UNL     1      48.275   3.043  19.273  0.00  0.00    +0.000 N 
ATOM     21  C   UNL     1      49.030   4.013  18.675  0.00  0.00    +0.000 C 
ATOM     22  O   UNL     1      49.987   4.525  19.243  0.00  0.00    +0.000 OA
ATOM     23  H   UNL     1      48.569   2.681  20.169  0.00  0.00    +0.000 HD
ATOM     24  H   UNL     1      47.544   2.575  18.750  0.00  0.00    +0.000 HD
ENDBRANCH  14  21
ENDBRANCH  12  17
ENDBRANCH   1  12
BRANCH   1  25
ATOM     25  C   UNL     1      46.545   6.921  11.825  0.00  0.00    +0.000 C 
BRANCH  25  26
ATOM     26  C   UNL     1      46.627   8.188  12.686  0.00  0.00    +0.000 C 
BRANCH  26  27
ATOM     27  C   UNL     1      45.275   8.880  12.803  0.00  0.00    +0.000 C 
BRANCH  27  28
ATOM     28  O   UNL     1      44.423   8.425  11.761  0.00  0.00    +0.000 OA
ATOM     29  H   UNL     1      43.507   8.467  12.089  0.00  0.00    +0.000 HD
ENDBRANCH  27  28
ENDBRANCH  26  27
ENDBRANCH  25  26
ENDBRANCH   1  25
TORSDOF 9
ENDMDL
