MODEL 1
REMARK VINA RESULT:    -8.448      0.000      0.000
REMARK INTER + INTRA:         -12.332
REMARK INTER:                 -11.658
REMARK INTRA:                  -0.674
REMARK UNBOUND:                -0.674
REMARK  Name = 
REMARK  10 active torsions:
REMARK  status: ('A' for Active; 'I' for Inactive)
REMARK    1  A    between atoms: C_1  and  C_2
REMARK    2  A    between atoms: C_2  and  C_3
REMARK    3  A    between atoms: C_2  and  C_4
REMARK    4  A    between atoms: C_2  and  C_5
REMARK    5  A    between atoms: N_7  and  C_8
REMARK    6  A    between atoms: C_8  and  C_9
REMARK    7  A    between atoms: C_12  and  C_13
REMARK    8  A    between atoms: C_13  and  C_14
REMARK    9  A    between atoms: C_14  and  N_15
REMARK   10  A    between atoms: C_21  and  C_22
REMARK                            x       y       z     vdW  Elec       q    Type
REMARK                         _______ _______ _______ _____ _____    ______ ____
ROOT
ATOM      1  C   UNL     1      46.266   7.155  12.232  0.00  0.00    +0.000 A 
ATOM      2  C   UNL     1      45.301   6.918  11.270  0.00  0.00    +0.000 A 
ATOM      3  N   UNL     1      44.904   5.604  11.330  0.00  0.00    +0.000 N 
ATOM      4  C   UNL     1      45.568   4.963  12.357  0.00  0.00    +0.000 A 
ATOM      5  C   UNL     1      45.493   3.652  12.837  0.00  0.00    +0.000 A 
ATOM      6  N   UNL     1      46.275   3.263  13.879  0.00  0.00    +0.000 NA
ATOM      7  C   UNL     1      47.120   4.177  14.424  0.00  0.00    +0.000 A 
ATOM      8  C   UNL     1      47.248   5.484  13.996  0.00  0.00    +0.000 A 
ATOM      9  C   UNL     1      46.434   5.904  12.929  0.00  0.00    +0.000 A 
ENDROOT
BRANCH   7  10
ATOM     10  C   UNL     1      47.966   3.730  15.588  0.00  0.00    +0.000 C 
ATOM     11  N   UNL     1      48.219   4.674  16.544  0.00  0.00    +0.000 N 
ATOM     12  O   UNL     1      48.412   2.591  15.687  0.00  0.00    +0.000 OA
ATOM     13  H   UNL     1      47.858   5.613  16.435  0.00  0.00    +0.000 HD
ATOM     14  H   UNL     1      48.801   4.433  17.334  0.00  0.00    +0.000 HD
ENDBRANCH   7  10
BRANCH   1  16
ATOM     15  C   UNL     1      47.274   8.715  13.983  0.00  0.00    +0.000 C 
ATOM     16  C   UNL     1      47.010   8.471  12.478  0.00  0.00    +0.000 C 
ATOM     17  C   UNL     1      46.164   9.653  11.963  0.00  0.00    +0.000 C 
ATOM     18  C   UNL     1      48.385   8.471  11.778  0.00  0.00    +0.000 C 
ENDBRANCH   1  16
BRANCH   3  19
ATOM     19  C   UNL     1      43.961   5.003  10.383  0.00  0.00    +0.000 C 
BRANCH  19  20
ATOM     20  C   UNL     1      44.648   4.043   9.445  0.00  0.00    +0.000 A 
ATOM     21  C   UNL     1      44.462   2.659   9.568  0.00  0.00    +0.000 A 
ATOM     22  C   UNL     1      45.224   1.768   8.812  0.00  0.00    +0.000 A 
ATOM     23  C   UNL     1      46.176   2.243   7.905  0.00  0.00    +0.000 A 
ATOM     24  C   UNL     1      46.277   3.623   7.690  0.00  0.00    +0.000 A 
ATOM     25  C   UNL     1      45.520   4.516   8.454  0.00  0.00    +0.000 A 
BRANCH  23  26
ATOM     26  C   UNL     1      47.128   1.284   7.232  0.00  0.00    +0.000 C 
BRANCH  26  27
ATOM     27  C   UNL     1      48.386   1.949   6.674  0.00  0.00    +0.000 C 
BRANCH  27  28
ATOM     28  N   UNL     1      48.383   1.906   5.212  0.00  0.00    +0.000 NA
ATOM     29  H   UNL     1      49.016   2.616   4.844  0.00  0.00    +0.000 HD
ATOM     30  H   UNL     1      47.455   2.144   4.866  0.00  0.00    +0.000 HD
ENDBRANCH  27  28
ENDBRANCH  26  27
ENDBRANCH  23  26
ENDBRANCH  19  20
ENDBRANCH   3  19
TORSDOF 7
ENDMDL
MODEL 2
REMARK VINA RESULT:    -6.783      1.633      2.127
REMARK INTER + INTRA:         -10.034
REMARK INTER:                  -9.683
REMARK INTRA:                  -0.351
REMARK UNBOUND:                -0.674
REMARK  Name = 
REMARK  10 active torsions:
REMARK  status: ('A' for Active; 'I' for Inactive)
REMARK    1  A    between atoms: C_1  and  C_2
REMARK    2  A    between atoms: C_2  and  C_3
REMARK    3  A    between atoms: C_2  and  C_4
REMARK    4  A    between atoms: C_2  and  C_5
REMARK    5  A    between atoms: N_7  and  C_8
REMARK    6  A    between atoms: C_8  and  C_9
REMARK    7  A    between atoms: C_12  and  C_13
REMARK    8  A    between atoms: C_13  and  C_14
REMARK    9  A    between atoms: C_14  and  N_15
REMARK   10  A    between atoms: C_21  and  C_22
REMARK                            x       y       z     vdW  Elec       q    Type
REMARK                         _______ _______ _______ _____ _____    ______ ____
ROOT
ATOM      1  C   UNL     1      44.841   8.144  11.567  0.00  0.00    +0.000 A 
ATOM      2  C   UNL     1      43.880   7.285  11.066  0.00  0.00    +0.000 A 
ATOM      3  N   UNL     1      44.190   5.993  11.414  0.00  0.00    +0.000 N 
ATOM      4  C   UNL     1      45.336   5.980  12.186  0.00  0.00    +0.000 A 
ATOM      5  C   UNL     1      46.030   4.934  12.801  0.00  0.00    +0.000 A 
ATOM      6  N   UNL     1      47.158   5.194  13.514  0.00  0.00    +0.000 NA
ATOM      7  C   UNL     1      47.581   6.483  13.601  0.00  0.00    +0.000 A 
ATOM      8  C   UNL     1      46.946   7.561  13.014  0.00  0.00    +0.000 A 
ATOM      9  C   UNL     1      45.770   7.308  12.287  0.00  0.00    +0.000 A 
ENDROOT
BRANCH   7  10
ATOM     10  C   UNL     1      48.823   6.750  14.409  0.00  0.00    +0.000 C 
ATOM     11  N   UNL     1      49.679   7.688  13.902  0.00  0.00    +0.000 N 
ATOM     12  O   UNL     1      49.071   6.169  15.461  0.00  0.00    +0.000 OA
ATOM     13  H   UNL     1      49.468   8.143  13.023  0.00  0.00    +0.000 HD
ATOM     14  H   UNL     1      50.539   7.889  14.393  0.00  0.00    +0.000 HD
ENDBRANCH   7  10
BRANCH   1  16
ATOM     15  C   UNL     1      46.295  10.235  11.731  0.00  0.00    +0.000 C 
ATOM     16  C   UNL     1      44.904   9.661  11.373  0.00  0.00    +0.000 C 
ATOM     17  C   UNL     1      43.874  10.349  12.293  0.00  0.00    +0.000 C 
ATOM     18  C   UNL     1      44.627  10.044   9.904  0.00  0.00    +0.000 C 
ENDBRANCH   1  16
BRANCH   3  19
ATOM     19  C   UNL     1      43.425   4.829  10.958  0.00  0.00    +0.000 C 
BRANCH  19  20
ATOM     20  C   UNL     1      44.187   4.027   9.934  0.00  0.00    +0.000 A 
ATOM     21  C   UNL     1      44.174   2.625   9.963  0.00  0.00    +0.000 A 
ATOM     22  C   UNL     1      45.010   1.888   9.124  0.00  0.00    +0.000 A 
ATOM     23  C   UNL     1      45.863   2.537   8.225  0.00  0.00    +0.000 A 
ATOM     24  C   UNL     1      45.787   3.930   8.107  0.00  0.00    +0.000 A 
ATOM     25  C   UNL     1      44.958   4.669   8.955  0.00  0.00    +0.000 A 
BRANCH  23  26
ATOM     26  C   UNL     1      46.897   1.750   7.458  0.00  0.00    +0.000 C 
BRANCH  26  27
ATOM     27  C   UNL     1      47.297   2.386   6.126  0.00  0.00    +0.000 C 
BRANCH  27  28
ATOM     28  N   UNL     1      48.567   1.832   5.656  0.00  0.00    +0.000 NA
ATOM     29  H   UNL     1      48.879   1.097   6.290  0.00  0.00    +0.000 HD
ATOM     30  H   UNL     1      49.284   2.555   5.682  0.00  0.00    +0.000 HD
ENDBRANCH  27  28
ENDBRANCH  26  27
ENDBRANCH  23  26
ENDBRANCH  19  20
ENDBRANCH   3  19
TORSDOF 7
ENDMDL
MODEL 3
REMARK VINA RESULT:    -6.403      3.182      7.331
REMARK INTER + INTRA:          -9.510
REMARK INTER:                  -8.939
REMARK INTRA:                  -0.571
REMARK UNBOUND:                -0.674
REMARK  Name = 
REMARK  10 active torsions:
REMARK  status: ('A' for Active; 'I' for Inactive)
REMARK    1  A    between atoms: C_1  and  C_2
REMARK    2  A    between atoms: C_2  and  C_3
REMARK    3  A    between atoms: C_2  and  C_4
REMARK    4  A    between atoms: C_2  and  C_5
REMARK    5  A    between atoms: N_7  and  C_8
REMARK    6  A    between atoms: C_8  and  C_9
REMARK    7  A    between atoms: C_12  and  C_13
REMARK    8  A    between atoms: C_13  and  C_14
REMARK    9  A    between atoms: C_14  and  N_15
REMARK   10  A    between atoms: C_21  and  C_22
REMARK                            x       y       z     vdW  Elec       q    Type
REMARK                         _______ _______ _______ _____ _____    ______ ____
ROOT
ATOM      1  C   UNL     1      48.392   6.818  13.838  0.00  0.00    +0.000 A 
ATOM      2  C   UNL     1      48.477   6.252  15.097  0.00  0.00    +0.000 A 
ATOM      3  N   UNL     1      47.543   5.250  15.214  0.00  0.00    +0.000 N 
ATOM      4  C   UNL     1      46.857   5.111  14.024  0.00  0.00    +0.000 A 
ATOM      5  C   UNL     1      45.847   4.227  13.632  0.00  0.00    +0.000 A 
ATOM      6  N   UNL     1      45.324   4.305  12.379  0.00  0.00    +0.000 NA
ATOM      7  C   UNL     1      45.807   5.258  11.539  0.00  0.00    +0.000 A 
ATOM      8  C   UNL     1      46.798   6.165  11.865  0.00  0.00    +0.000 A 
ATOM      9  C   UNL     1      47.358   6.085  13.152  0.00  0.00    +0.000 A 
ENDROOT
BRANCH   7  10
ATOM     10  C   UNL     1      45.226   5.317  10.151  0.00  0.00    +0.000 C 
ATOM     11  N   UNL     1      43.873   5.138  10.058  0.00  0.00    +0.000 N 
ATOM     12  O   UNL     1      45.910   5.509   9.151  0.00  0.00    +0.000 OA
ATOM     13  H   UNL     1      43.328   4.961  10.892  0.00  0.00    +0.000 HD
ATOM     14  H   UNL     1      43.436   5.145   9.147  0.00  0.00    +0.000 HD
ENDBRANCH   7  10
BRANCH   1  16
ATOM     15  C   UNL     1      49.821   7.696  11.914  0.00  0.00    +0.000 C 
ATOM     16  C   UNL     1      49.217   7.994  13.307  0.00  0.00    +0.000 C 
ATOM     17  C   UNL     1      50.392   8.283  14.263  0.00  0.00    +0.000 C 
ATOM     18  C   UNL     1      48.346   9.259  13.155  0.00  0.00    +0.000 C 
ENDBRANCH   1  16
BRANCH   3  19
ATOM     19  C   UNL     1      47.306   4.511  16.457  0.00  0.00    +0.000 C 
BRANCH  19  20
ATOM     20  C   UNL     1      48.564   3.848  16.961  0.00  0.00    +0.000 A 
ATOM     21  C   UNL     1      49.490   4.559  17.737  0.00  0.00    +0.000 A 
ATOM     22  C   UNL     1      50.727   3.998  18.060  0.00  0.00    +0.000 A 
ATOM     23  C   UNL     1      51.055   2.709  17.627  0.00  0.00    +0.000 A 
ATOM     24  C   UNL     1      50.085   1.953  16.958  0.00  0.00    +0.000 A 
ATOM     25  C   UNL     1      48.850   2.517  16.627  0.00  0.00    +0.000 A 
BRANCH  23  26
ATOM     26  C   UNL     1      52.456   2.181  17.812  0.00  0.00    +0.000 C 
BRANCH  26  27
ATOM     27  C   UNL     1      52.654   0.755  17.295  0.00  0.00    +0.000 C 
BRANCH  27  28
ATOM     28  N   UNL     1      52.842  -0.172  18.411  0.00  0.00    +0.000 NA
ATOM     29  H   UNL     1      52.773  -1.133  18.077  0.00  0.00    +0.000 HD
ATOM     30  H   UNL     1      52.089  -0.050  19.086  0.00  0.00    +0.000 HD
ENDBRANCH  27  28
ENDBRANCH  26  27
ENDBRANCH  23  26
ENDBRANCH  19  20
ENDBRANCH   3  19
TORSDOF 7
ENDMDL
MODEL 4
REMARK VINA RESULT:    -6.292      3.495      7.591
REMARK INTER + INTRA:          -9.356
REMARK INTER:                  -8.603
REMARK INTRA:                  -0.753
REMARK UNBOUND:                -0.674
REMARK  Name = 
REMARK  10 active torsions:
REMARK  status: ('A' for Active; 'I' for Inactive)
REMARK    1  A    between atoms: C_1  and  C_2
REMARK    2  A    between atoms: C_2  and  C_3
REMARK    3  A    between atoms: C_2  and  C_4
REMARK    4  A    between atoms: C_2  and  C_5
REMARK    5  A    between atoms: N_7  and  C_8
REMARK    6  A    between atoms: C_8  and  C_9
REMARK    7  A    between atoms: C_12  and  C_13
REMARK    8  A    between atoms: C_13  and  C_14
REMARK    9  A    between atoms: C_14  and  N_15
REMARK   10  A    between atoms: C_21  and  C_22
REMARK                            x       y       z     vdW  Elec       q    Type
REMARK                         _______ _______ _______ _____ _____    ______ ____
ROOT
ATOM      1  C   UNL     1      48.733   7.374  13.883  0.00  0.00    +0.000 A 
ATOM      2  C   UNL     1      49.336   7.333  15.127  0.00  0.00    +0.000 A 
ATOM      3  N   UNL     1      48.820   6.287  15.854  0.00  0.00    +0.000 N 
ATOM      4  C   UNL     1      47.901   5.596  15.090  0.00  0.00    +0.000 A 
ATOM      5  C   UNL     1      47.136   4.457  15.360  0.00  0.00    +0.000 A 
ATOM      6  N   UNL     1      46.283   3.972  14.419  0.00  0.00    +0.000 NA
ATOM      7  C   UNL     1      46.198   4.625  13.230  0.00  0.00    +0.000 A 
ATOM      8  C   UNL     1      46.920   5.757  12.901  0.00  0.00    +0.000 A 
ATOM      9  C   UNL     1      47.817   6.260  13.859  0.00  0.00    +0.000 A 
ENDROOT
BRANCH   7  10
ATOM     10  C   UNL     1      45.259   4.062  12.196  0.00  0.00    +0.000 C 
ATOM     11  N   UNL     1      44.754   2.819  12.456  0.00  0.00    +0.000 N 
ATOM     12  O   UNL     1      44.956   4.668  11.173  0.00  0.00    +0.000 OA
ATOM     13  H   UNL     1      45.031   2.326  13.296  0.00  0.00    +0.000 HD
ATOM     14  H   UNL     1      44.138   2.385  11.784  0.00  0.00    +0.000 HD
ENDBRANCH   7  10
BRANCH   1  16
ATOM     15  C   UNL     1      47.671   9.097  12.328  0.00  0.00    +0.000 C 
ATOM     16  C   UNL     1      48.980   8.406  12.780  0.00  0.00    +0.000 C 
ATOM     17  C   UNL     1      49.583   7.713  11.541  0.00  0.00    +0.000 C 
ATOM     18  C   UNL     1      49.930   9.521  13.265  0.00  0.00    +0.000 C 
ENDBRANCH   1  16
BRANCH   3  19
ATOM     19  C   UNL     1      49.178   6.023  17.251  0.00  0.00    +0.000 C 
BRANCH  19  20
ATOM     20  C   UNL     1      50.243   4.961  17.363  0.00  0.00    +0.000 A 
ATOM     21  C   UNL     1      49.901   3.603  17.431  0.00  0.00    +0.000 A 
ATOM     22  C   UNL     1      50.870   2.637  17.702  0.00  0.00    +0.000 A 
ATOM     23  C   UNL     1      52.205   3.008  17.893  0.00  0.00    +0.000 A 
ATOM     24  C   UNL     1      52.569   4.347  17.703  0.00  0.00    +0.000 A 
ATOM     25  C   UNL     1      51.597   5.316  17.441  0.00  0.00    +0.000 A 
BRANCH  23  26
ATOM     26  C   UNL     1      53.213   1.992  18.372  0.00  0.00    +0.000 C 
BRANCH  26  27
ATOM     27  C   UNL     1      53.200   0.685  17.579  0.00  0.00    +0.000 C 
BRANCH  27  28
ATOM     28  N   UNL     1      52.808  -0.431  18.439  0.00  0.00    +0.000 NA
ATOM     29  H   UNL     1      53.480  -1.193  18.344  0.00  0.00    +0.000 HD
ATOM     30  H   UNL     1      51.911  -0.801  18.130  0.00  0.00    +0.000 HD
ENDBRANCH  27  28
ENDBRANCH  26  27
ENDBRANCH  23  26
ENDBRANCH  19  20
ENDBRANCH   3  19
TORSDOF 7
ENDMDL
MODEL 5
REMARK VINA RESULT:    -6.160      3.109      5.771
REMARK INTER + INTRA:          -9.174
REMARK INTER:                  -8.450
REMARK INTRA:                  -0.724
REMARK UNBOUND:                -0.674
REMARK  Name = 
REMARK  10 active torsions:
REMARK  status: ('A' for Active; 'I' for Inactive)
REMARK    1  A    between atoms: C_1  and  C_2
REMARK    2  A    between atoms: C_2  and  C_3
REMARK    3  A    between atoms: C_2  and  C_4
REMARK    4  A    between atoms: C_2  and  C_5
REMARK    5  A    between atoms: N_7  and  C_8
REMARK    6  A    between atoms: C_8  and  C_9
REMARK    7  A    between atoms: C_12  and  C_13
REMARK    8  A    between atoms: C_13  and  C_14
REMARK    9  A    between atoms: C_14  and  N_15
REMARK   10  A    between atoms: C_21  and  C_22
REMARK                            x       y       z     vdW  Elec       q    Type
REMARK                         _______ _______ _______ _____ _____    ______ ____
ROOT
ATOM      1  C   UNL     1      46.061   5.677  12.669  0.00  0.00    +0.000 A 
ATOM      2  C   UNL     1      46.551   6.870  12.171  0.00  0.00    +0.000 A 
ATOM      3  N   UNL     1      47.516   7.360  13.018  0.00  0.00    +0.000 N 
ATOM      4  C   UNL     1      47.708   6.480  14.065  0.00  0.00    +0.000 A 
ATOM      5  C   UNL     1      48.585   6.509  15.154  0.00  0.00    +0.000 A 
ATOM      6  N   UNL     1      48.569   5.500  16.066  0.00  0.00    +0.000 NA
ATOM      7  C   UNL     1      47.683   4.485  15.887  0.00  0.00    +0.000 A 
ATOM      8  C   UNL     1      46.787   4.399  14.838  0.00  0.00    +0.000 A 
ATOM      9  C   UNL     1      46.804   5.427  13.879  0.00  0.00    +0.000 A 
ENDROOT
BRANCH   7  10
ATOM     10  C   UNL     1      47.693   3.371  16.900  0.00  0.00    +0.000 C 
ATOM     11  N   UNL     1      48.920   2.858  17.217  0.00  0.00    +0.000 N 
ATOM     12  O   UNL     1      46.670   2.934  17.417  0.00  0.00    +0.000 OA
ATOM     13  H   UNL     1      49.751   3.219  16.765  0.00  0.00    +0.000 HD
ATOM     14  H   UNL     1      48.981   2.093  17.874  0.00  0.00    +0.000 HD
ENDBRANCH   7  10
BRANCH   1  16
ATOM     15  C   UNL     1      44.702   5.156  10.572  0.00  0.00    +0.000 C 
ATOM     16  C   UNL     1      44.944   4.822  12.063  0.00  0.00    +0.000 C 
ATOM     17  C   UNL     1      43.621   5.082  12.812  0.00  0.00    +0.000 C 
ATOM     18  C   UNL     1      45.295   3.321  12.133  0.00  0.00    +0.000 C 
ENDBRANCH   1  16
BRANCH   3  19
ATOM     19  C   UNL     1      48.170   8.658  12.829  0.00  0.00    +0.000 C 
BRANCH  19  20
ATOM     20  C   UNL     1      49.561   8.505  12.267  0.00  0.00    +0.000 A 
ATOM     21  C   UNL     1      49.789   7.756  11.103  0.00  0.00    +0.000 A 
ATOM     22  C   UNL     1      51.088   7.477  10.680  0.00  0.00    +0.000 A 
ATOM     23  C   UNL     1      52.187   7.955  11.402  0.00  0.00    +0.000 A 
ATOM     24  C   UNL     1      51.962   8.805  12.491  0.00  0.00    +0.000 A 
ATOM     25  C   UNL     1      50.660   9.077  12.922  0.00  0.00    +0.000 A 
BRANCH  23  26
ATOM     26  C   UNL     1      53.581   7.495  11.054  0.00  0.00    +0.000 C 
BRANCH  26  27
ATOM     27  C   UNL     1      53.624   6.394   9.994  0.00  0.00    +0.000 C 
BRANCH  27  28
ATOM     28  N   UNL     1      53.882   5.095  10.615  0.00  0.00    +0.000 NA
ATOM     29  H   UNL     1      52.999   4.633  10.831  0.00  0.00    +0.000 HD
ATOM     30  H   UNL     1      54.358   5.231  11.505  0.00  0.00    +0.000 HD
ENDBRANCH  27  28
ENDBRANCH  26  27
ENDBRANCH  23  26
ENDBRANCH  19  20
ENDBRANCH   3  19
TORSDOF 7
ENDMDL
MODEL 6
REMARK VINA RESULT:    -5.923      3.805      8.385
REMARK INTER + INTRA:          -8.848
REMARK INTER:                  -8.239
REMARK INTRA:                  -0.608
REMARK UNBOUND:                -0.674
REMARK  Name = 
REMARK  10 active torsions:
REMARK  status: ('A' for Active; 'I' for Inactive)
REMARK    1  A    between atoms: C_1  and  C_2
REMARK    2  A    between atoms: C_2  and  C_3
REMARK    3  A    between atoms: C_2  and  C_4
REMARK    4  A    between atoms: C_2  and  C_5
REMARK    5  A    between atoms: N_7  and  C_8
REMARK    6  A    between atoms: C_8  and  C_9
REMARK    7  A    between atoms: C_12  and  C_13
REMARK    8  A    between atoms: C_13  and  C_14
REMARK    9  A    between atoms: C_14  and  N_15
REMARK   10  A    between atoms: C_21  and  C_22
REMARK                            x       y       z     vdW  Elec       q    Type
REMARK                         _______ _______ _______ _____ _____    ______ ____
ROOT
ATOM      1  C   UNL     1      45.722   5.683  12.489  0.00  0.00    +0.000 A 
ATOM      2  C   UNL     1      46.864   5.427  13.226  0.00  0.00    +0.000 A 
ATOM      3  N   UNL     1      47.502   6.609  13.512  0.00  0.00    +0.000 N 
ATOM      4  C   UNL     1      46.772   7.668  13.008  0.00  0.00    +0.000 A 
ATOM      5  C   UNL     1      46.979   9.049  13.062  0.00  0.00    +0.000 A 
ATOM      6  N   UNL     1      46.095   9.893  12.467  0.00  0.00    +0.000 NA
ATOM      7  C   UNL     1      45.025   9.355  11.825  0.00  0.00    +0.000 A 
ATOM      8  C   UNL     1      44.764   8.001  11.730  0.00  0.00    +0.000 A 
ATOM      9  C   UNL     1      45.662   7.118  12.354  0.00  0.00    +0.000 A 
ENDROOT
BRANCH   7  10
ATOM     10  C   UNL     1      44.049  10.308  11.186  0.00  0.00    +0.000 C 
ATOM     11  N   UNL     1      43.612   9.971   9.935  0.00  0.00    +0.000 N 
ATOM     12  O   UNL     1      43.661  11.332  11.739  0.00  0.00    +0.000 OA
ATOM     13  H   UNL     1      43.958   9.133   9.487  0.00  0.00    +0.000 HD
ATOM     14  H   UNL     1      42.974  10.588   9.453  0.00  0.00    +0.000 HD
ENDBRANCH   7  10
BRANCH   1  16
ATOM     15  C   UNL     1      45.198   3.200  12.223  0.00  0.00    +0.000 C 
ATOM     16  C   UNL     1      44.745   4.648  11.924  0.00  0.00    +0.000 C 
ATOM     17  C   UNL     1      44.660   4.794  10.390  0.00  0.00    +0.000 C 
ATOM     18  C   UNL     1      43.341   4.815  12.541  0.00  0.00    +0.000 C 
ENDBRANCH   1  16
BRANCH   3  19
ATOM     19  C   UNL     1      48.795   6.681  14.199  0.00  0.00    +0.000 C 
BRANCH  19  20
ATOM     20  C   UNL     1      48.648   6.485  15.687  0.00  0.00    +0.000 A 
ATOM     21  C   UNL     1      48.314   5.231  16.217  0.00  0.00    +0.000 A 
ATOM     22  C   UNL     1      48.015   5.088  17.573  0.00  0.00    +0.000 A 
ATOM     23  C   UNL     1      48.061   6.194  18.429  0.00  0.00    +0.000 A 
ATOM     24  C   UNL     1      48.514   7.420  17.926  0.00  0.00    +0.000 A 
ATOM     25  C   UNL     1      48.804   7.565  16.566  0.00  0.00    +0.000 A 
BRANCH  23  26
ATOM     26  C   UNL     1      47.556   6.077  19.846  0.00  0.00    +0.000 C 
BRANCH  26  27
ATOM     27  C   UNL     1      48.568   5.468  20.816  0.00  0.00    +0.000 C 
BRANCH  27  28
ATOM     28  N   UNL     1      48.371   4.022  20.920  0.00  0.00    +0.000 NA
ATOM     29  H   UNL     1      47.378   3.802  20.841  0.00  0.00    +0.000 HD
ATOM     30  H   UNL     1      48.662   3.704  21.843  0.00  0.00    +0.000 HD
ENDBRANCH  27  28
ENDBRANCH  26  27
ENDBRANCH  23  26
ENDBRANCH  19  20
ENDBRANCH   3  19
TORSDOF 7
ENDMDL
MODEL 7
REMARK VINA RESULT:    -5.871      3.693      5.577
REMARK INTER + INTRA:          -8.775
REMARK INTER:                  -8.057
REMARK INTRA:                  -0.718
REMARK UNBOUND:                -0.674
REMARK  Name = 
REMARK  10 active torsions:
REMARK  status: ('A' for Active; 'I' for Inactive)
REMARK    1  A    between atoms: C_1  and  C_2
REMARK    2  A    between atoms: C_2  and  C_3
REMARK    3  A    between atoms: C_2  and  C_4
REMARK    4  A    between atoms: C_2  and  C_5
REMARK    5  A    between atoms: N_7  and  C_8
REMARK    6  A    between atoms: C_8  and  C_9
REMARK    7  A    between atoms: C_12  and  C_13
REMARK    8  A    between atoms: C_13  and  C_14
REMARK    9  A    between atoms: C_14  and  N_15
REMARK   10  A    between atoms: C_21  and  C_22
REMARK                            x       y       z     vdW  Elec       q    Type
REMARK                         _______ _______ _______ _____ _____    ______ ____
ROOT
ATOM      1  C   UNL     1      49.247   7.978  16.487  0.00  0.00    +0.000 A 
ATOM      2  C   UNL     1      49.236   8.494  15.204  0.00  0.00    +0.000 A 
ATOM      3  N   UNL     1      48.744   7.552  14.333  0.00  0.00    +0.000 N 
ATOM      4  C   UNL     1      48.384   6.415  15.030  0.00  0.00    +0.000 A 
ATOM      5  C   UNL     1      47.816   5.209  14.610  0.00  0.00    +0.000 A 
ATOM      6  N   UNL     1      47.560   4.226  15.515  0.00  0.00    +0.000 NA
ATOM      7  C   UNL     1      47.875   4.454  16.817  0.00  0.00    +0.000 A 
ATOM      8  C   UNL     1      48.443   5.619  17.297  0.00  0.00    +0.000 A 
ATOM      9  C   UNL     1      48.698   6.649  16.375  0.00  0.00    +0.000 A 
ENDROOT
BRANCH   7  10
ATOM     10  C   UNL     1      47.569   3.359  17.805  0.00  0.00    +0.000 C 
ATOM     11  N   UNL     1      48.391   3.287  18.895  0.00  0.00    +0.000 N 
ATOM     12  O   UNL     1      46.643   2.568  17.656  0.00  0.00    +0.000 OA
ATOM     13  H   UNL     1      49.162   3.935  18.991  0.00  0.00    +0.000 HD
ATOM     14  H   UNL     1      48.243   2.556  19.577  0.00  0.00    +0.000 HD
ENDBRANCH   7  10
BRANCH   1  16
ATOM     15  C   UNL     1      50.908   7.888  18.422  0.00  0.00    +0.000 C 
ATOM     16  C   UNL     1      49.758   8.675  17.750  0.00  0.00    +0.000 C 
ATOM     17  C   UNL     1      48.618   8.790  18.782  0.00  0.00    +0.000 C 
ATOM     18  C   UNL     1      50.308  10.080  17.425  0.00  0.00    +0.000 C 
ENDBRANCH   1  16
BRANCH   3  19
ATOM     19  C   UNL     1      48.689   7.747  12.882  0.00  0.00    +0.000 C 
BRANCH  19  20
ATOM     20  C   UNL     1      47.298   7.532  12.342  0.00  0.00    +0.000 A 
ATOM     21  C   UNL     1      46.217   8.290  12.815  0.00  0.00    +0.000 A 
ATOM     22  C   UNL     1      44.910   7.978  12.440  0.00  0.00    +0.000 A 
ATOM     23  C   UNL     1      44.658   6.912  11.570  0.00  0.00    +0.000 A 
ATOM     24  C   UNL     1      45.742   6.233  11.000  0.00  0.00    +0.000 A 
ATOM     25  C   UNL     1      47.051   6.539  11.383  0.00  0.00    +0.000 A 
BRANCH  23  26
ATOM     26  C   UNL     1      43.241   6.458  11.318  0.00  0.00    +0.000 C 
BRANCH  26  27
ATOM     27  C   UNL     1      42.888   5.130  11.989  0.00  0.00    +0.000 C 
BRANCH  27  28
ATOM     28  N   UNL     1      42.685   5.320  13.425  0.00  0.00    +0.000 NA
ATOM     29  H   UNL     1      42.084   6.128  13.585  0.00  0.00    +0.000 HD
ATOM     30  H   UNL     1      43.576   5.534  13.870  0.00  0.00    +0.000 HD
ENDBRANCH  27  28
ENDBRANCH  26  27
ENDBRANCH  23  26
ENDBRANCH  19  20
ENDBRANCH   3  19
TORSDOF 7
ENDMDL
MODEL 8
REMARK VINA RESULT:    -5.757      3.407      6.371
REMARK INTER + INTRA:          -8.618
REMARK INTER:                  -7.928
REMARK INTRA:                  -0.690
REMARK UNBOUND:                -0.674
REMARK  Name = 
REMARK  10 active torsions:
REMARK  status: ('A' for Active; 'I' for Inactive)
REMARK    1  A    between atoms: C_1  and  C_2
REMARK    2  A    between atoms: C_2  and  C_3
REMARK    3  A    between atoms: C_2  and  C_4
REMARK    4  A    between atoms: C_2  and  C_5
REMARK    5  A    between atoms: N_7  and  C_8
REMARK    6  A    between atoms: C_8  and  C_9
REMARK    7  A    between atoms: C_12  and  C_13
REMARK    8  A    between atoms: C_13  and  C_14
REMARK    9  A    between atoms: C_14  and  N_15
REMARK   10  A    between atoms: C_21  and  C_22
REMARK                            x       y       z     vdW  Elec       q    Type
REMARK                         _______ _______ _______ _____ _____    ______ ____
ROOT
ATOM      1  C   UNL     1      48.004   5.463  15.513  0.00  0.00    +0.000 A 
ATOM      2  C   UNL     1      48.549   6.727  15.379  0.00  0.00    +0.000 A 
ATOM      3  N   UNL     1      48.111   7.294  14.206  0.00  0.00    +0.000 N 
ATOM      4  C   UNL     1      47.240   6.433  13.568  0.00  0.00    +0.000 A 
ATOM      5  C   UNL     1      46.515   6.557  12.379  0.00  0.00    +0.000 A 
ATOM      6  N   UNL     1      45.717   5.539  11.960  0.00  0.00    +0.000 NA
ATOM      7  C   UNL     1      45.654   4.416  12.722  0.00  0.00    +0.000 A 
ATOM      8  C   UNL     1      46.348   4.226  13.903  0.00  0.00    +0.000 A 
ATOM      9  C   UNL     1      47.165   5.277  14.355  0.00  0.00    +0.000 A 
ENDROOT
BRANCH   7  10
ATOM     10  C   UNL     1      44.752   3.307  12.249  0.00  0.00    +0.000 C 
ATOM     11  N   UNL     1      45.000   2.824  10.994  0.00  0.00    +0.000 N 
ATOM     12  O   UNL     1      43.841   2.853  12.934  0.00  0.00    +0.000 OA
ATOM     13  H   UNL     1      45.744   3.225  10.436  0.00  0.00    +0.000 HD
ATOM     14  H   UNL     1      44.409   2.096  10.619  0.00  0.00    +0.000 HD
ENDBRANCH   7  10
BRANCH   1  16
ATOM     15  C   UNL     1      48.269   3.005  16.150  0.00  0.00    +0.000 C 
ATOM     16  C   UNL     1      48.266   4.470  16.649  0.00  0.00    +0.000 C 
ATOM     17  C   UNL     1      47.156   4.589  17.713  0.00  0.00    +0.000 C 
ATOM     18  C   UNL     1      49.641   4.722  17.301  0.00  0.00    +0.000 C 
ENDBRANCH   1  16
BRANCH   3  19
ATOM     19  C   UNL     1      48.578   8.595  13.717  0.00  0.00    +0.000 C 
BRANCH  19  20
ATOM     20  C   UNL     1      49.815   8.459  12.865  0.00  0.00    +0.000 A 
ATOM     21  C   UNL     1      49.735   7.978  11.551  0.00  0.00    +0.000 A 
ATOM     22  C   UNL     1      50.892   7.696  10.825  0.00  0.00    +0.000 A 
ATOM     23  C   UNL     1      52.154   7.905  11.392  0.00  0.00    +0.000 A 
ATOM     24  C   UNL     1      52.236   8.501  12.656  0.00  0.00    +0.000 A 
ATOM     25  C   UNL     1      51.077   8.775  13.388  0.00  0.00    +0.000 A 
BRANCH  23  26
ATOM     26  C   UNL     1      53.394   7.423  10.681  0.00  0.00    +0.000 C 
BRANCH  26  27
ATOM     27  C   UNL     1      53.196   6.121   9.905  0.00  0.00    +0.000 C 
BRANCH  27  28
ATOM     28  N   UNL     1      53.830   5.005  10.608  0.00  0.00    +0.000 NA
ATOM     29  H   UNL     1      54.469   5.362  11.318  0.00  0.00    +0.000 HD
ATOM     30  H   UNL     1      54.399   4.469   9.955  0.00  0.00    +0.000 HD
ENDBRANCH  27  28
ENDBRANCH  26  27
ENDBRANCH  23  26
ENDBRANCH  19  20
ENDBRANCH   3  19
TORSDOF 7
ENDMDL
MODEL 9
REMARK VINA RESULT:    -5.538      3.777      6.999
REMARK INTER + INTRA:          -8.316
REMARK INTER:                  -7.694
REMARK INTRA:                  -0.623
REMARK UNBOUND:                -0.674
REMARK  Name = 
REMARK  10 active torsions:
REMARK  status: ('A' for Active; 'I' for Inactive)
REMARK    1  A    between atoms: C_1  and  C_2
REMARK    2  A    between atoms: C_2  and  C_3
REMARK    3  A    between atoms: C_2  and  C_4
REMARK    4  A    between atoms: C_2  and  C_5
REMARK    5  A    between atoms: N_7  and  C_8
REMARK    6  A    between atoms: C_8  and  C_9
REMARK    7  A    between atoms: C_12  and  C_13
REMARK    8  A    between atoms: C_13  and  C_14
REMARK    9  A    between atoms: C_14  and  N_15
REMARK   10  A    between atoms: C_21  and  C_22
REMARK                            x       y       z     vdW  Elec       q    Type
REMARK                         _______ _______ _______ _____ _____    ______ ____
ROOT
ATOM      1  C   UNL     1      45.498   5.735  12.205  0.00  0.00    +0.000 A 
ATOM      2  C   UNL     1      46.612   5.664  13.021  0.00  0.00    +0.000 A 
ATOM      3  N   UNL     1      47.048   6.934  13.315  0.00  0.00    +0.000 N 
ATOM      4  C   UNL     1      46.206   7.863  12.735  0.00  0.00    +0.000 A 
ATOM      5  C   UNL     1      46.204   9.260  12.763  0.00  0.00    +0.000 A 
ATOM      6  N   UNL     1      45.248   9.952  12.087  0.00  0.00    +0.000 NA
ATOM      7  C   UNL     1      44.315   9.249  11.393  0.00  0.00    +0.000 A 
ATOM      8  C   UNL     1      44.264   7.870  11.319  0.00  0.00    +0.000 A 
ATOM      9  C   UNL     1      45.237   7.142  12.025  0.00  0.00    +0.000 A 
ENDROOT
BRANCH   7  10
ATOM     10  C   UNL     1      43.256  10.034  10.665  0.00  0.00    +0.000 C 
ATOM     11  N   UNL     1      42.131  10.334  11.381  0.00  0.00    +0.000 N 
ATOM     12  O   UNL     1      43.377  10.391   9.497  0.00  0.00    +0.000 OA
ATOM     13  H   UNL     1      42.041  10.014  12.338  0.00  0.00    +0.000 HD
ATOM     14  H   UNL     1      41.380  10.839  10.933  0.00  0.00    +0.000 HD
ENDBRANCH   7  10
BRANCH   1  16
ATOM     15  C   UNL     1      43.217   4.620  11.942  0.00  0.00    +0.000 C 
ATOM     16  C   UNL     1      44.725   4.556  11.606  0.00  0.00    +0.000 C 
ATOM     17  C   UNL     1      45.267   3.231  12.180  0.00  0.00    +0.000 C 
ATOM     18  C   UNL     1      44.840   4.542  10.067  0.00  0.00    +0.000 C 
ENDBRANCH   1  16
BRANCH   3  19
ATOM     19  C   UNL     1      48.265   7.210  14.082  0.00  0.00    +0.000 C 
BRANCH  19  20
ATOM     20  C   UNL     1      49.396   7.658  13.191  0.00  0.00    +0.000 A 
ATOM     21  C   UNL     1      49.345   7.452  11.805  0.00  0.00    +0.000 A 
ATOM     22  C   UNL     1      50.458   7.714  11.005  0.00  0.00    +0.000 A 
ATOM     23  C   UNL     1      51.639   8.203  11.573  0.00  0.00    +0.000 A 
ATOM     24  C   UNL     1      51.652   8.526  12.935  0.00  0.00    +0.000 A 
ATOM     25  C   UNL     1      50.541   8.255  13.738  0.00  0.00    +0.000 A 
BRANCH  23  26
ATOM     26  C   UNL     1      52.895   8.303  10.742  0.00  0.00    +0.000 C 
BRANCH  26  27
ATOM     27  C   UNL     1      53.110   7.119   9.799  0.00  0.00    +0.000 C 
BRANCH  27  28
ATOM     28  N   UNL     1      53.571   5.948  10.545  0.00  0.00    +0.000 NA
ATOM     29  H   UNL     1      53.627   6.172  11.539  0.00  0.00    +0.000 HD
ATOM     30  H   UNL     1      54.516   5.707  10.252  0.00  0.00    +0.000 HD
ENDBRANCH  27  28
ENDBRANCH  26  27
ENDBRANCH  23  26
ENDBRANCH  19  20
ENDBRANCH   3  19
TORSDOF 7
ENDMDL
