MODEL 1
REMARK VINA RESULT:    -8.778      0.000      0.000
REMARK INTER + INTRA:         -13.658
REMARK INTER:                 -12.370
REMARK INTRA:                  -1.288
REMARK UNBOUND:                -1.288
REMARK  Name = 
REMARK  7 active torsions:
REMARK  status: ('A' for Active; 'I' for Inactive)
REMARK    1  A    between atoms: C_2  and  C_3
REMARK    2  A    between atoms: C_5  and  C_6
REMARK    3  A    between atoms: C_6  and  N_7
REMARK    4  A    between atoms: C_8  and  C_10
REMARK    5  A    between atoms: C_22  and  C_23
REMARK    6  A    between atoms: C_23  and  O_24
REMARK    7  A    between atoms: O_24  and  C_25
REMARK                            x       y       z     vdW  Elec       q    Type
REMARK                         _______ _______ _______ _____ _____    ______ ____
ROOT
ATOM      1  C   UNL     1      44.706   4.437  11.751  0.00  0.00    +0.000 A 
ATOM      2  C   UNL     1      45.227   5.462  12.565  0.00  0.00    +0.000 A 
ATOM      3  C   UNL     1      45.964   6.520  12.016  0.00  0.00    +0.000 A 
ATOM      4  C   UNL     1      46.187   6.535  10.638  0.00  0.00    +0.000 A 
ATOM      5  C   UNL     1      45.671   5.524   9.821  0.00  0.00    +0.000 A 
ATOM      6  C   UNL     1      44.936   4.453  10.362  0.00  0.00    +0.000 A 
ENDROOT
BRANCH   1   8
ATOM      7  N   UNL     1      43.390   2.513  12.895  0.00  0.00    +0.000 NA
ATOM      8  C   UNL     1      43.962   3.390  12.403  0.00  0.00    +0.000 C 
ENDBRANCH   1   8
BRANCH   3   9
ATOM      9  C   UNL     1      46.536   7.605  12.889  0.00  0.00    +0.000 C 
BRANCH   9  10
ATOM     10  N   UNL     1      47.062   7.070  14.120  0.00  0.00    +0.000 N 
ATOM     11  C   UNL     1      48.337   6.580  14.235  0.00  0.00    +0.000 C 
ATOM     12  O   UNL     1      49.118   6.548  13.288  0.00  0.00    +0.000 OA
ATOM     13  H   UNL     1      46.390   6.878  14.854  0.00  0.00    +0.000 HD
BRANCH  11  14
ATOM     14  C   UNL     1      48.746   6.158  15.581  0.00  0.00    +0.000 A 
ATOM     15  C   UNL     1      49.703   6.889  16.272  0.00  0.00    +0.000 A 
ATOM     16  S   UNL     1      50.038   6.279  17.830  0.00  0.00    +0.000 S 
ATOM     17  C   UNL     1      48.942   4.995  17.623  0.00  0.00    +0.000 A 
ATOM     18  N   UNL     1      48.763   4.063  18.596  0.00  0.00    +0.000 NA
ATOM     19  C   UNL     1      47.920   3.131  18.296  0.00  0.00    +0.000 A 
ATOM     20  N   UNL     1      47.232   3.053  17.113  0.00  0.00    +0.000 N 
ATOM     21  C   UNL     1      47.343   3.999  16.122  0.00  0.00    +0.000 A 
ATOM     22  O   UNL     1      46.640   3.950  15.117  0.00  0.00    +0.000 OA
ATOM     23  C   UNL     1      48.307   5.047  16.394  0.00  0.00    +0.000 A 
ATOM     24  H   UNL     1      46.565   2.313  16.951  0.00  0.00    +0.000 HD
ENDBRANCH  11  14
ENDBRANCH   9  10
ENDBRANCH   3   9
BRANCH   6  25
ATOM     25  C   UNL     1      44.405   3.387   9.421  0.00  0.00    +0.000 C 
BRANCH  25  26
ATOM     26  O   UNL     1      44.760   3.750   8.090  0.00  0.00    +0.000 OA
BRANCH  26  27
ATOM     27  C   UNL     1      45.769   3.051   7.482  0.00  0.00    +0.000 A 
ATOM     28  C   UNL     1      46.523   3.458   6.381  0.00  0.00    +0.000 A 
ATOM     29  C   UNL     1      47.532   2.628   5.876  0.00  0.00    +0.000 A 
ATOM     30  C   UNL     1      47.794   1.391   6.465  0.00  0.00    +0.000 A 
ATOM     31  C   UNL     1      47.043   0.980   7.561  0.00  0.00    +0.000 A 
ATOM     32  C   UNL     1      46.035   1.807   8.063  0.00  0.00    +0.000 A 
ENDBRANCH  26  27
ENDBRANCH  25  26
ENDBRANCH   6  25
TORSDOF 7
ENDMDL
MODEL 2
REMARK VINA RESULT:    -8.162      2.060      2.589
REMARK INTER + INTRA:         -12.790
REMARK INTER:                 -11.539
REMARK INTRA:                  -1.251
REMARK UNBOUND:                -1.288
REMARK  Name = 
REMARK  7 active torsions:
REMARK  status: ('A' for Active; 'I' for Inactive)
REMARK    1  A    between atoms: C_2  and  C_3
REMARK    2  A    between atoms: C_5  and  C_6
REMARK    3  A    between atoms: C_6  and  N_7
REMARK    4  A    between atoms: C_8  and  C_10
REMARK    5  A    between atoms: C_22  and  C_23
REMARK    6  A    between atoms: C_23  and  O_24
REMARK    7  A    between atoms: O_24  and  C_25
REMARK                            x       y       z     vdW  Elec       q    Type
REMARK                         _______ _______ _______ _____ _____    ______ ____
ROOT
ATOM      1  C   UNL     1      45.915   5.000  12.677  0.00  0.00    +0.000 A 
ATOM      2  C   UNL     1      46.250   6.315  13.056  0.00  0.00    +0.000 A 
ATOM      3  C   UNL     1      45.651   7.422  12.440  0.00  0.00    +0.000 A 
ATOM      4  C   UNL     1      44.717   7.198  11.426  0.00  0.00    +0.000 A 
ATOM      5  C   UNL     1      44.375   5.897  11.045  0.00  0.00    +0.000 A 
ATOM      6  C   UNL     1      44.976   4.778  11.651  0.00  0.00    +0.000 A 
ENDROOT
BRANCH   1   8
ATOM      7  N   UNL     1      47.153   3.096  13.935  0.00  0.00    +0.000 NA
ATOM      8  C   UNL     1      46.581   3.924  13.364  0.00  0.00    +0.000 C 
ENDBRANCH   1   8
BRANCH   3   9
ATOM      9  C   UNL     1      46.023   8.826  12.834  0.00  0.00    +0.000 C 
BRANCH   9  10
ATOM     10  N   UNL     1      46.742   8.852  14.082  0.00  0.00    +0.000 N 
ATOM     11  C   UNL     1      48.106   8.975  14.154  0.00  0.00    +0.000 C 
ATOM     12  O   UNL     1      48.814   9.057  13.154  0.00  0.00    +0.000 OA
ATOM     13  H   UNL     1      46.227   8.570  14.907  0.00  0.00    +0.000 HD
BRANCH  11  14
ATOM     14  C   UNL     1      48.672   9.079  15.505  0.00  0.00    +0.000 A 
ATOM     15  C   UNL     1      48.825  10.326  16.096  0.00  0.00    +0.000 A 
ATOM     16  S   UNL     1      49.469  10.261  17.675  0.00  0.00    +0.000 S 
ATOM     17  C   UNL     1      49.600   8.567  17.612  0.00  0.00    +0.000 A 
ATOM     18  N   UNL     1      50.115   7.865  18.656  0.00  0.00    +0.000 NA
ATOM     19  C   UNL     1      50.178   6.589  18.463  0.00  0.00    +0.000 A 
ATOM     20  N   UNL     1      49.764   5.951  17.323  0.00  0.00    +0.000 N 
ATOM     21  C   UNL     1      49.191   6.613  16.264  0.00  0.00    +0.000 A 
ATOM     22  O   UNL     1      48.742   6.000  15.300  0.00  0.00    +0.000 OA
ATOM     23  C   UNL     1      49.131   8.054  16.415  0.00  0.00    +0.000 A 
ATOM     24  H   UNL     1      49.815   4.945  17.246  0.00  0.00    +0.000 HD
ENDBRANCH  11  14
ENDBRANCH   9  10
ENDBRANCH   3   9
BRANCH   6  25
ATOM     25  C   UNL     1      44.562   3.393  11.191  0.00  0.00    +0.000 C 
BRANCH  25  26
ATOM     26  O   UNL     1      44.190   3.471   9.817  0.00  0.00    +0.000 OA
BRANCH  26  27
ATOM     27  C   UNL     1      45.139   3.171   8.877  0.00  0.00    +0.000 A 
ATOM     28  C   UNL     1      45.768   4.064   8.008  0.00  0.00    +0.000 A 
ATOM     29  C   UNL     1      46.730   3.600   7.102  0.00  0.00    +0.000 A 
ATOM     30  C   UNL     1      47.071   2.249   7.058  0.00  0.00    +0.000 A 
ATOM     31  C   UNL     1      46.445   1.355   7.920  0.00  0.00    +0.000 A 
ATOM     32  C   UNL     1      45.483   1.817   8.822  0.00  0.00    +0.000 A 
ENDBRANCH  26  27
ENDBRANCH  25  26
ENDBRANCH   6  25
TORSDOF 7
ENDMDL
MODEL 3
REMARK VINA RESULT:    -7.980      2.506      4.152
REMARK INTER + INTRA:         -12.534
REMARK INTER:                 -11.168
REMARK INTRA:                  -1.365
REMARK UNBOUND:                -1.288
REMARK  Name = 
REMARK  7 active torsions:
REMARK  status: ('A' for Active; 'I' for Inactive)
REMARK    1  A    between atoms: C_2  and  C_3
REMARK    2  A    between atoms: C_5  and  C_6
REMARK    3  A    between atoms: C_6  and  N_7
REMARK    4  A    between atoms: C_8  and  C_10
REMARK    5  A    between atoms: C_22  and  C_23
REMARK    6  A    between atoms: C_23  and  O_24
REMARK    7  A    between atoms: O_24  and  C_25
REMARK                            x       y       z     vdW  Elec       q    Type
REMARK                         _______ _______ _______ _____ _____    ______ ____
ROOT
ATOM      1  C   UNL     1      44.748   3.980  11.800  0.00  0.00    +0.000 A 
ATOM      2  C   UNL     1      45.450   4.216  12.999  0.00  0.00    +0.000 A 
ATOM      3  C   UNL     1      46.377   5.262  13.103  0.00  0.00    +0.000 A 
ATOM      4  C   UNL     1      46.605   6.066  11.984  0.00  0.00    +0.000 A 
ATOM      5  C   UNL     1      45.911   5.842  10.792  0.00  0.00    +0.000 A 
ATOM      6  C   UNL     1      44.984   4.790  10.673  0.00  0.00    +0.000 A 
ENDROOT
BRANCH   1   8
ATOM      7  N   UNL     1      43.027   2.036  11.759  0.00  0.00    +0.000 NA
ATOM      8  C   UNL     1      43.816   2.882  11.785  0.00  0.00    +0.000 C 
ENDBRANCH   1   8
BRANCH   3   9
ATOM      9  C   UNL     1      47.139   5.501  14.379  0.00  0.00    +0.000 C 
BRANCH   9  10
ATOM     10  N   UNL     1      47.822   6.769  14.356  0.00  0.00    +0.000 N 
ATOM     11  C   UNL     1      49.006   6.991  15.011  0.00  0.00    +0.000 C 
ATOM     12  O   UNL     1      49.561   6.123  15.680  0.00  0.00    +0.000 OA
ATOM     13  H   UNL     1      47.296   7.561  14.005  0.00  0.00    +0.000 HD
BRANCH  11  14
ATOM     14  C   UNL     1      49.617   8.311  14.809  0.00  0.00    +0.000 A 
ATOM     15  C   UNL     1      49.806   9.157  15.893  0.00  0.00    +0.000 A 
ATOM     16  S   UNL     1      50.554  10.636  15.486  0.00  0.00    +0.000 S 
ATOM     17  C   UNL     1      50.620  10.212  13.840  0.00  0.00    +0.000 A 
ATOM     18  N   UNL     1      51.133  11.068  12.916  0.00  0.00    +0.000 NA
ATOM     19  C   UNL     1      51.098  10.628  11.702  0.00  0.00    +0.000 A 
ATOM     20  N   UNL     1      50.605   9.405  11.329  0.00  0.00    +0.000 N 
ATOM     21  C   UNL     1      50.124   8.488  12.233  0.00  0.00    +0.000 A 
ATOM     22  O   UNL     1      49.780   7.365  11.875  0.00  0.00    +0.000 OA
ATOM     23  C   UNL     1      50.105   8.948  13.607  0.00  0.00    +0.000 A 
ATOM     24  H   UNL     1      50.632   9.109  10.364  0.00  0.00    +0.000 HD
ENDBRANCH  11  14
ENDBRANCH   9  10
ENDBRANCH   3   9
BRANCH   6  25
ATOM     25  C   UNL     1      44.265   4.600   9.350  0.00  0.00    +0.000 C 
BRANCH  25  26
ATOM     26  O   UNL     1      45.235   4.633   8.306  0.00  0.00    +0.000 OA
BRANCH  26  27
ATOM     27  C   UNL     1      45.834   3.455   7.950  0.00  0.00    +0.000 A 
ATOM     28  C   UNL     1      45.613   2.199   8.515  0.00  0.00    +0.000 A 
ATOM     29  C   UNL     1      46.304   1.081   8.032  0.00  0.00    +0.000 A 
ATOM     30  C   UNL     1      47.215   1.207   6.984  0.00  0.00    +0.000 A 
ATOM     31  C   UNL     1      47.441   2.458   6.418  0.00  0.00    +0.000 A 
ATOM     32  C   UNL     1      46.754   3.574   6.902  0.00  0.00    +0.000 A 
ENDBRANCH  26  27
ENDBRANCH  25  26
ENDBRANCH   6  25
TORSDOF 7
ENDMDL
MODEL 4
REMARK VINA RESULT:    -7.845      3.136      4.502
REMARK INTER + INTRA:         -12.343
REMARK INTER:                 -10.858
REMARK INTRA:                  -1.486
REMARK UNBOUND:                -1.288
REMARK  Name = 
REMARK  7 active torsions:
REMARK  status: ('A' for Active; 'I' for Inactive)
REMARK    1  A    between atoms: C_2  and  C_3
REMARK    2  A    between atoms: C_5  and  C_6
REMARK    3  A    between atoms: C_6  and  N_7
REMARK    4  A    between atoms: C_8  and  C_10
REMARK    5  A    between atoms: C_22  and  C_23
REMARK    6  A    between atoms: C_23  and  O_24
REMARK    7  A    between atoms: O_24  and  C_25
REMARK                            x       y       z     vdW  Elec       q    Type
REMARK                         _______ _______ _______ _____ _____    ______ ____
ROOT
ATOM      1  C   UNL     1      45.961   5.017  12.785  0.00  0.00    +0.000 A 
ATOM      2  C   UNL     1      46.168   6.354  13.177  0.00  0.00    +0.000 A 
ATOM      3  C   UNL     1      45.492   7.407  12.547  0.00  0.00    +0.000 A 
ATOM      4  C   UNL     1      44.611   7.109  11.505  0.00  0.00    +0.000 A 
ATOM      5  C   UNL     1      44.396   5.785  11.111  0.00  0.00    +0.000 A 
ATOM      6  C   UNL     1      45.075   4.719  11.731  0.00  0.00    +0.000 A 
ENDROOT
BRANCH   1   8
ATOM      7  N   UNL     1      47.255   3.185  14.093  0.00  0.00    +0.000 NA
ATOM      8  C   UNL     1      46.699   4.000  13.488  0.00  0.00    +0.000 C 
ENDBRANCH   1   8
BRANCH   3   9
ATOM      9  C   UNL     1      45.728   8.837  12.955  0.00  0.00    +0.000 C 
BRANCH   9  10
ATOM     10  N   UNL     1      47.076   9.254  12.664  0.00  0.00    +0.000 N 
ATOM     11  C   UNL     1      48.042   9.381  13.628  0.00  0.00    +0.000 C 
ATOM     12  O   UNL     1      47.821   9.162  14.816  0.00  0.00    +0.000 OA
ATOM     13  H   UNL     1      47.239   9.649  11.745  0.00  0.00    +0.000 HD
BRANCH  11  14
ATOM     14  C   UNL     1      49.388   9.724  13.150  0.00  0.00    +0.000 A 
ATOM     15  C   UNL     1      49.944  10.954  13.478  0.00  0.00    +0.000 A 
ATOM     16  S   UNL     1      51.521  11.177  12.867  0.00  0.00    +0.000 S 
ATOM     17  C   UNL     1      51.504   9.653  12.113  0.00  0.00    +0.000 A 
ATOM     18  N   UNL     1      52.566   9.222  11.381  0.00  0.00    +0.000 NA
ATOM     19  C   UNL     1      52.408   8.057  10.844  0.00  0.00    +0.000 A 
ATOM     20  N   UNL     1      51.287   7.280  10.983  0.00  0.00    +0.000 N 
ATOM     21  C   UNL     1      50.213   7.652  11.754  0.00  0.00    +0.000 A 
ATOM     22  O   UNL     1      49.267   6.890  11.934  0.00  0.00    +0.000 OA
ATOM     23  C   UNL     1      50.324   8.970  12.348  0.00  0.00    +0.000 A 
ATOM     24  H   UNL     1      51.238   6.365  10.559  0.00  0.00    +0.000 HD
ENDBRANCH  11  14
ENDBRANCH   9  10
ENDBRANCH   3   9
BRANCH   6  25
ATOM     25  C   UNL     1      44.798   3.305  11.254  0.00  0.00    +0.000 C 
BRANCH  25  26
ATOM     26  O   UNL     1      44.337   3.370   9.907  0.00  0.00    +0.000 OA
BRANCH  26  27
ATOM     27  C   UNL     1      45.236   3.108   8.909  0.00  0.00    +0.000 A 
ATOM     28  C   UNL     1      45.798   4.030   8.024  0.00  0.00    +0.000 A 
ATOM     29  C   UNL     1      46.715   3.604   7.055  0.00  0.00    +0.000 A 
ATOM     30  C   UNL     1      47.077   2.260   6.963  0.00  0.00    +0.000 A 
ATOM     31  C   UNL     1      46.518   1.337   7.841  0.00  0.00    +0.000 A 
ATOM     32  C   UNL     1      45.602   1.762   8.806  0.00  0.00    +0.000 A 
ENDBRANCH  26  27
ENDBRANCH  25  26
ENDBRANCH   6  25
TORSDOF 7
ENDMDL
MODEL 5
REMARK VINA RESULT:    -7.656      1.925      2.533
REMARK INTER + INTRA:         -12.077
REMARK INTER:                 -10.978
REMARK INTRA:                  -1.099
REMARK UNBOUND:                -1.288
REMARK  Name = 
REMARK  7 active torsions:
REMARK  status: ('A' for Active; 'I' for Inactive)
REMARK    1  A    between atoms: C_2  and  C_3
REMARK    2  A    between atoms: C_5  and  C_6
REMARK    3  A    between atoms: C_6  and  N_7
REMARK    4  A    between atoms: C_8  and  C_10
REMARK    5  A    between atoms: C_22  and  C_23
REMARK    6  A    between atoms: C_23  and  O_24
REMARK    7  A    between atoms: O_24  and  C_25
REMARK                            x       y       z     vdW  Elec       q    Type
REMARK                         _______ _______ _______ _____ _____    ______ ____
ROOT
ATOM      1  C   UNL     1      44.643   5.241  12.260  0.00  0.00    +0.000 A 
ATOM      2  C   UNL     1      45.686   6.040  12.770  0.00  0.00    +0.000 A 
ATOM      3  C   UNL     1      46.865   5.465  13.264  0.00  0.00    +0.000 A 
ATOM      4  C   UNL     1      46.984   4.073  13.255  0.00  0.00    +0.000 A 
ATOM      5  C   UNL     1      45.956   3.273  12.749  0.00  0.00    +0.000 A 
ATOM      6  C   UNL     1      44.765   3.839  12.257  0.00  0.00    +0.000 A 
ENDROOT
BRANCH   1   8
ATOM      7  N   UNL     1      42.499   6.416  11.384  0.00  0.00    +0.000 NA
ATOM      8  C   UNL     1      43.469   5.919  11.774  0.00  0.00    +0.000 C 
ENDBRANCH   1   8
BRANCH   3   9
ATOM      9  C   UNL     1      47.971   6.318  13.824  0.00  0.00    +0.000 C 
BRANCH   9  10
ATOM     10  N   UNL     1      47.984   6.286  15.264  0.00  0.00    +0.000 N 
ATOM     11  C   UNL     1      48.858   7.026  16.019  0.00  0.00    +0.000 C 
ATOM     12  O   UNL     1      49.704   7.760  15.516  0.00  0.00    +0.000 OA
ATOM     13  H   UNL     1      47.460   5.540  15.706  0.00  0.00    +0.000 HD
BRANCH  11  14
ATOM     14  C   UNL     1      48.677   6.950  17.474  0.00  0.00    +0.000 A 
ATOM     15  C   UNL     1      48.413   8.104  18.199  0.00  0.00    +0.000 A 
ATOM     16  S   UNL     1      48.203   7.831  19.870  0.00  0.00    +0.000 S 
ATOM     17  C   UNL     1      48.491   6.165  19.690  0.00  0.00    +0.000 A 
ATOM     18  N   UNL     1      48.484   5.333  20.765  0.00  0.00    +0.000 NA
ATOM     19  C   UNL     1      48.743   4.097  20.488  0.00  0.00    +0.000 A 
ATOM     20  N   UNL     1      48.997   3.618  19.229  0.00  0.00    +0.000 N 
ATOM     21  C   UNL     1      48.964   4.411  18.108  0.00  0.00    +0.000 A 
ATOM     22  O   UNL     1      49.100   3.931  16.986  0.00  0.00    +0.000 OA
ATOM     23  C   UNL     1      48.716   5.816  18.370  0.00  0.00    +0.000 A 
ATOM     24  H   UNL     1      49.165   2.634  19.075  0.00  0.00    +0.000 HD
ENDBRANCH  11  14
ENDBRANCH   9  10
ENDBRANCH   3   9
BRANCH   6  25
ATOM     25  C   UNL     1      43.687   2.914  11.723  0.00  0.00    +0.000 C 
BRANCH  25  26
ATOM     26  O   UNL     1      43.397   3.294  10.380  0.00  0.00    +0.000 OA
BRANCH  26  27
ATOM     27  C   UNL     1      44.387   3.151   9.445  0.00  0.00    +0.000 A 
ATOM     28  C   UNL     1      44.963   4.161   8.675  0.00  0.00    +0.000 A 
ATOM     29  C   UNL     1      45.977   3.854   7.759  0.00  0.00    +0.000 A 
ATOM     30  C   UNL     1      46.423   2.541   7.607  0.00  0.00    +0.000 A 
ATOM     31  C   UNL     1      45.850   1.529   8.372  0.00  0.00    +0.000 A 
ATOM     32  C   UNL     1      44.836   1.836   9.283  0.00  0.00    +0.000 A 
ENDBRANCH  26  27
ENDBRANCH  25  26
ENDBRANCH   6  25
TORSDOF 7
ENDMDL
MODEL 6
REMARK VINA RESULT:    -7.510      3.169      8.199
REMARK INTER + INTRA:         -11.872
REMARK INTER:                 -10.540
REMARK INTRA:                  -1.331
REMARK UNBOUND:                -1.288
REMARK  Name = 
REMARK  7 active torsions:
REMARK  status: ('A' for Active; 'I' for Inactive)
REMARK    1  A    between atoms: C_2  and  C_3
REMARK    2  A    between atoms: C_5  and  C_6
REMARK    3  A    between atoms: C_6  and  N_7
REMARK    4  A    between atoms: C_8  and  C_10
REMARK    5  A    between atoms: C_22  and  C_23
REMARK    6  A    between atoms: C_23  and  O_24
REMARK    7  A    between atoms: O_24  and  C_25
REMARK                            x       y       z     vdW  Elec       q    Type
REMARK                         _______ _______ _______ _____ _____    ______ ____
ROOT
ATOM      1  C   UNL     1      48.266   5.158  16.429  0.00  0.00    +0.000 A 
ATOM      2  C   UNL     1      47.947   5.651  15.149  0.00  0.00    +0.000 A 
ATOM      3  C   UNL     1      48.716   6.655  14.545  0.00  0.00    +0.000 A 
ATOM      4  C   UNL     1      49.807   7.174  15.247  0.00  0.00    +0.000 A 
ATOM      5  C   UNL     1      50.133   6.689  16.517  0.00  0.00    +0.000 A 
ATOM      6  C   UNL     1      49.364   5.686  17.135  0.00  0.00    +0.000 A 
ENDROOT
BRANCH   1   8
ATOM      7  N   UNL     1      46.721   3.287  17.354  0.00  0.00    +0.000 NA
ATOM      8  C   UNL     1      47.420   4.126  16.970  0.00  0.00    +0.000 C 
ENDBRANCH   1   8
BRANCH   3   9
ATOM      9  C   UNL     1      48.363   7.193  13.184  0.00  0.00    +0.000 C 
BRANCH   9  10
ATOM     10  N   UNL     1      47.535   6.270  12.450  0.00  0.00    +0.000 N 
ATOM     11  C   UNL     1      46.431   6.663  11.740  0.00  0.00    +0.000 C 
ATOM     12  O   UNL     1      46.059   7.832  11.692  0.00  0.00    +0.000 OA
ATOM     13  H   UNL     1      47.677   5.285  12.641  0.00  0.00    +0.000 HD
BRANCH  11  14
ATOM     14  C   UNL     1      45.752   5.611  10.972  0.00  0.00    +0.000 A 
ATOM     15  C   UNL     1      45.832   5.607   9.585  0.00  0.00    +0.000 A 
ATOM     16  S   UNL     1      45.012   4.301   8.855  0.00  0.00    +0.000 S 
ATOM     17  C   UNL     1      44.491   3.713  10.364  0.00  0.00    +0.000 A 
ATOM     18  N   UNL     1      43.706   2.606  10.451  0.00  0.00    +0.000 NA
ATOM     19  C   UNL     1      43.364   2.286  11.656  0.00  0.00    +0.000 A 
ATOM     20  N   UNL     1      43.745   2.969  12.782  0.00  0.00    +0.000 N 
ATOM     21  C   UNL     1      44.578   4.061  12.746  0.00  0.00    +0.000 A 
ATOM     22  O   UNL     1      44.977   4.589  13.780  0.00  0.00    +0.000 OA
ATOM     23  C   UNL     1      44.960   4.485  11.413  0.00  0.00    +0.000 A 
ATOM     24  H   UNL     1      43.466   2.650  13.698  0.00  0.00    +0.000 HD
ENDBRANCH  11  14
ENDBRANCH   9  10
ENDBRANCH   3   9
BRANCH   6  25
ATOM     25  C   UNL     1      49.771   5.205  18.516  0.00  0.00    +0.000 C 
BRANCH  25  26
ATOM     26  O   UNL     1      51.163   4.901  18.490  0.00  0.00    +0.000 OA
BRANCH  26  27
ATOM     27  C   UNL     1      51.535   3.622  18.172  0.00  0.00    +0.000 A 
ATOM     28  C   UNL     1      50.742   2.645  17.568  0.00  0.00    +0.000 A 
ATOM     29  C   UNL     1      51.273   1.378  17.300  0.00  0.00    +0.000 A 
ATOM     30  C   UNL     1      52.594   1.077  17.629  0.00  0.00    +0.000 A 
ATOM     31  C   UNL     1      53.388   2.047  18.233  0.00  0.00    +0.000 A 
ATOM     32  C   UNL     1      52.857   3.310  18.504  0.00  0.00    +0.000 A 
ENDBRANCH  26  27
ENDBRANCH  25  26
ENDBRANCH   6  25
TORSDOF 7
ENDMDL
MODEL 7
REMARK VINA RESULT:    -7.388      3.562      5.093
REMARK INTER + INTRA:         -11.699
REMARK INTER:                 -10.455
REMARK INTRA:                  -1.245
REMARK UNBOUND:                -1.288
REMARK  Name = 
REMARK  7 active torsions:
REMARK  status: ('A' for Active; 'I' for Inactive)
REMARK    1  A    between atoms: C_2  and  C_3
REMARK    2  A    between atoms: C_5  and  C_6
REMARK    3  A    between atoms: C_6  and  N_7
REMARK    4  A    between atoms: C_8  and  C_10
REMARK    5  A    between atoms: C_22  and  C_23
REMARK    6  A    between atoms: C_23  and  O_24
REMARK    7  A    between atoms: O_24  and  C_25
REMARK                            x       y       z     vdW  Elec       q    Type
REMARK                         _______ _______ _______ _____ _____    ______ ____
ROOT
ATOM      1  C   UNL     1      45.770   4.974  12.702  0.00  0.00    +0.000 A 
ATOM      2  C   UNL     1      45.985   6.316  13.070  0.00  0.00    +0.000 A 
ATOM      3  C   UNL     1      45.276   7.358  12.458  0.00  0.00    +0.000 A 
ATOM      4  C   UNL     1      44.353   7.042  11.458  0.00  0.00    +0.000 A 
ATOM      5  C   UNL     1      44.131   5.712  11.088  0.00  0.00    +0.000 A 
ATOM      6  C   UNL     1      44.843   4.659  11.691  0.00  0.00    +0.000 A 
ENDROOT
BRANCH   1   8
ATOM      7  N   UNL     1      47.211   3.193  13.925  0.00  0.00    +0.000 NA
ATOM      8  C   UNL     1      46.545   3.969  13.385  0.00  0.00    +0.000 C 
ENDBRANCH   1   8
BRANCH   3   9
ATOM      9  C   UNL     1      45.519   8.794  12.840  0.00  0.00    +0.000 C 
BRANCH   9  10
ATOM     10  N   UNL     1      46.860   9.208  12.511  0.00  0.00    +0.000 N 
ATOM     11  C   UNL     1      47.147  10.423  11.945  0.00  0.00    +0.000 C 
ATOM     12  O   UNL     1      46.277  11.241  11.664  0.00  0.00    +0.000 OA
ATOM     13  H   UNL     1      47.572   8.487  12.523  0.00  0.00    +0.000 HD
BRANCH  11  14
ATOM     14  C   UNL     1      48.573  10.726  11.760  0.00  0.00    +0.000 A 
ATOM     15  C   UNL     1      49.030  11.167  10.525  0.00  0.00    +0.000 A 
ATOM     16  S   UNL     1      50.703  11.500  10.494  0.00  0.00    +0.000 S 
ATOM     17  C   UNL     1      50.883  11.033  12.119  0.00  0.00    +0.000 A 
ATOM     18  N   UNL     1      52.101  11.053  12.723  0.00  0.00    +0.000 NA
ATOM     19  C   UNL     1      52.096  10.650  13.950  0.00  0.00    +0.000 A 
ATOM     20  N   UNL     1      50.981  10.236  14.631  0.00  0.00    +0.000 N 
ATOM     21  C   UNL     1      49.723  10.246  14.078  0.00  0.00    +0.000 A 
ATOM     22  O   UNL     1      48.733   9.962  14.746  0.00  0.00    +0.000 OA
ATOM     23  C   UNL     1      49.679  10.655  12.688  0.00  0.00    +0.000 A 
ATOM     24  H   UNL     1      51.040   9.958  15.600  0.00  0.00    +0.000 HD
ENDBRANCH  11  14
ENDBRANCH   9  10
ENDBRANCH   3   9
BRANCH   6  25
ATOM     25  C   UNL     1      44.555   3.237  11.243  0.00  0.00    +0.000 C 
BRANCH  25  26
ATOM     26  O   UNL     1      44.211   3.266   9.860  0.00  0.00    +0.000 OA
BRANCH  26  27
ATOM     27  C   UNL     1      45.170   2.903   8.953  0.00  0.00    +0.000 A 
ATOM     28  C   UNL     1      45.678   1.621   8.740  0.00  0.00    +0.000 A 
ATOM     29  C   UNL     1      46.659   1.408   7.762  0.00  0.00    +0.000 A 
ATOM     30  C   UNL     1      47.136   2.469   6.993  0.00  0.00    +0.000 A 
ATOM     31  C   UNL     1      46.635   3.749   7.203  0.00  0.00    +0.000 A 
ATOM     32  C   UNL     1      45.659   3.962   8.180  0.00  0.00    +0.000 A 
ENDBRANCH  26  27
ENDBRANCH  25  26
ENDBRANCH   6  25
TORSDOF 7
ENDMDL
MODEL 8
REMARK VINA RESULT:    -7.189      2.737      3.792
REMARK INTER + INTRA:         -11.418
REMARK INTER:                 -10.429
REMARK INTRA:                  -0.989
REMARK UNBOUND:                -1.288
REMARK  Name = 
REMARK  7 active torsions:
REMARK  status: ('A' for Active; 'I' for Inactive)
REMARK    1  A    between atoms: C_2  and  C_3
REMARK    2  A    between atoms: C_5  and  C_6
REMARK    3  A    between atoms: C_6  and  N_7
REMARK    4  A    between atoms: C_8  and  C_10
REMARK    5  A    between atoms: C_22  and  C_23
REMARK    6  A    between atoms: C_23  and  O_24
REMARK    7  A    between atoms: O_24  and  C_25
REMARK                            x       y       z     vdW  Elec       q    Type
REMARK                         _______ _______ _______ _____ _____    ______ ____
ROOT
ATOM      1  C   UNL     1      45.261   6.414  12.107  0.00  0.00    +0.000 A 
ATOM      2  C   UNL     1      46.421   6.560  12.893  0.00  0.00    +0.000 A 
ATOM      3  C   UNL     1      47.006   5.459  13.532  0.00  0.00    +0.000 A 
ATOM      4  C   UNL     1      46.408   4.206  13.387  0.00  0.00    +0.000 A 
ATOM      5  C   UNL     1      45.259   4.051  12.607  0.00  0.00    +0.000 A 
ATOM      6  C   UNL     1      44.658   5.150  11.966  0.00  0.00    +0.000 A 
ENDROOT
BRANCH   1   8
ATOM      7  N   UNL     1      44.254   8.544  11.015  0.00  0.00    +0.000 NA
ATOM      8  C   UNL     1      44.729   7.601  11.488  0.00  0.00    +0.000 C 
ENDBRANCH   1   8
BRANCH   3   9
ATOM      9  C   UNL     1      48.236   5.620  14.387  0.00  0.00    +0.000 C 
BRANCH   9  10
ATOM     10  N   UNL     1      47.896   6.000  15.734  0.00  0.00    +0.000 N 
ATOM     11  C   UNL     1      48.767   5.877  16.785  0.00  0.00    +0.000 C 
ATOM     12  O   UNL     1      49.898   5.417  16.654  0.00  0.00    +0.000 OA
ATOM     13  H   UNL     1      46.916   6.174  15.922  0.00  0.00    +0.000 HD
BRANCH  11  14
ATOM     14  C   UNL     1      48.297   6.397  18.076  0.00  0.00    +0.000 A 
ATOM     15  C   UNL     1      48.089   5.526  19.137  0.00  0.00    +0.000 A 
ATOM     16  S   UNL     1      47.573   6.299  20.567  0.00  0.00    +0.000 S 
ATOM     17  C   UNL     1      47.575   7.822  19.810  0.00  0.00    +0.000 A 
ATOM     18  N   UNL     1      47.198   8.941  20.485  0.00  0.00    +0.000 NA
ATOM     19  C   UNL     1      47.223  10.024  19.781  0.00  0.00    +0.000 A 
ATOM     20  N   UNL     1      47.601  10.091  18.465  0.00  0.00    +0.000 N 
ATOM     21  C   UNL     1      48.037   8.997  17.759  0.00  0.00    +0.000 A 
ATOM     22  O   UNL     1      48.460   9.109  16.612  0.00  0.00    +0.000 OA
ATOM     23  C   UNL     1      47.992   7.747  18.492  0.00  0.00    +0.000 A 
ATOM     24  H   UNL     1      47.625  10.975  17.979  0.00  0.00    +0.000 HD
ENDBRANCH  11  14
ENDBRANCH   9  10
ENDBRANCH   3   9
BRANCH   6  25
ATOM     25  C   UNL     1      43.410   4.914  11.135  0.00  0.00    +0.000 C 
BRANCH  25  26
ATOM     26  O   UNL     1      43.494   3.611  10.563  0.00  0.00    +0.000 OA
BRANCH  26  27
ATOM     27  C   UNL     1      44.415   3.403   9.572  0.00  0.00    +0.000 A 
ATOM     28  C   UNL     1      44.965   4.367   8.725  0.00  0.00    +0.000 A 
ATOM     29  C   UNL     1      45.908   3.995   7.759  0.00  0.00    +0.000 A 
ATOM     30  C   UNL     1      46.308   2.665   7.632  0.00  0.00    +0.000 A 
ATOM     31  C   UNL     1      45.761   1.700   8.472  0.00  0.00    +0.000 A 
ATOM     32  C   UNL     1      44.818   2.071   9.434  0.00  0.00    +0.000 A 
ENDBRANCH  26  27
ENDBRANCH  25  26
ENDBRANCH   6  25
TORSDOF 7
ENDMDL
MODEL 9
REMARK VINA RESULT:    -6.930      2.346      3.188
REMARK INTER + INTRA:         -11.054
REMARK INTER:                  -9.488
REMARK INTRA:                  -1.566
REMARK UNBOUND:                -1.288
REMARK  Name = 
REMARK  7 active torsions:
REMARK  status: ('A' for Active; 'I' for Inactive)
REMARK    1  A    between atoms: C_2  and  C_3
REMARK    2  A    between atoms: C_5  and  C_6
REMARK    3  A    between atoms: C_6  and  N_7
REMARK    4  A    between atoms: C_8  and  C_10
REMARK    5  A    between atoms: C_22  and  C_23
REMARK    6  A    between atoms: C_23  and  O_24
REMARK    7  A    between atoms: O_24  and  C_25
REMARK                            x       y       z     vdW  Elec       q    Type
REMARK                         _______ _______ _______ _____ _____    ______ ____
ROOT
ATOM      1  C   UNL     1      46.379   5.543  12.924  0.00  0.00    +0.000 A 
ATOM      2  C   UNL     1      47.468   6.415  13.119  0.00  0.00    +0.000 A 
ATOM      3  C   UNL     1      47.386   7.768  12.763  0.00  0.00    +0.000 A 
ATOM      4  C   UNL     1      46.201   8.239  12.194  0.00  0.00    +0.000 A 
ATOM      5  C   UNL     1      45.114   7.382  12.000  0.00  0.00    +0.000 A 
ATOM      6  C   UNL     1      45.187   6.020  12.346  0.00  0.00    +0.000 A 
ENDROOT
BRANCH   1   8
ATOM      7  N   UNL     1      46.642   3.056  13.625  0.00  0.00    +0.000 NA
ATOM      8  C   UNL     1      46.554   4.169  13.319  0.00  0.00    +0.000 C 
ENDBRANCH   1   8
BRANCH   3   9
ATOM      9  C   UNL     1      48.557   8.694  12.956  0.00  0.00    +0.000 C 
BRANCH   9  10
ATOM     10  N   UNL     1      49.643   8.038  13.637  0.00  0.00    +0.000 N 
ATOM     11  C   UNL     1      50.389   8.648  14.613  0.00  0.00    +0.000 C 
ATOM     12  O   UNL     1      50.192   9.807  14.965  0.00  0.00    +0.000 OA
ATOM     13  H   UNL     1      49.976   7.172  13.229  0.00  0.00    +0.000 HD
BRANCH  11  14
ATOM     14  C   UNL     1      51.398   7.808  15.271  0.00  0.00    +0.000 A 
ATOM     15  C   UNL     1      52.748   8.073  15.081  0.00  0.00    +0.000 A 
ATOM     16  S   UNL     1      53.781   7.022  15.941  0.00  0.00    +0.000 S 
ATOM     17  C   UNL     1      52.461   6.153  16.571  0.00  0.00    +0.000 A 
ATOM     18  N   UNL     1      52.654   5.080  17.384  0.00  0.00    +0.000 NA
ATOM     19  C   UNL     1      51.566   4.499  17.769  0.00  0.00    +0.000 A 
ATOM     20  N   UNL     1      50.302   4.900  17.422  0.00  0.00    +0.000 N 
ATOM     21  C   UNL     1      50.058   6.007  16.646  0.00  0.00    +0.000 A 
ATOM     22  O   UNL     1      48.913   6.395  16.435  0.00  0.00    +0.000 OA
ATOM     23  C   UNL     1      51.249   6.674  16.155  0.00  0.00    +0.000 A 
ATOM     24  H   UNL     1      49.490   4.419  17.780  0.00  0.00    +0.000 HD
ENDBRANCH  11  14
ENDBRANCH   9  10
ENDBRANCH   3   9
BRANCH   6  25
ATOM     25  C   UNL     1      43.972   5.143  12.107  0.00  0.00    +0.000 C 
BRANCH  25  26
ATOM     26  O   UNL     1      43.657   5.185  10.718  0.00  0.00    +0.000 OA
BRANCH  26  27
ATOM     27  C   UNL     1      44.355   4.361   9.876  0.00  0.00    +0.000 A 
ATOM     28  C   UNL     1      45.236   4.749   8.866  0.00  0.00    +0.000 A 
ATOM     29  C   UNL     1      45.883   3.779   8.090  0.00  0.00    +0.000 A 
ATOM     30  C   UNL     1      45.657   2.422   8.316  0.00  0.00    +0.000 A 
ATOM     31  C   UNL     1      44.778   2.030   9.320  0.00  0.00    +0.000 A 
ATOM     32  C   UNL     1      44.130   2.998  10.093  0.00  0.00    +0.000 A 
ENDBRANCH  26  27
ENDBRANCH  25  26
ENDBRANCH   6  25
TORSDOF 7
ENDMDL
