MODEL 1
REMARK VINA RESULT:    -8.347      0.000      0.000
REMARK INTER + INTRA:         -11.506
REMARK INTER:                 -10.787
REMARK INTRA:                  -0.720
REMARK UNBOUND:                -0.720
REMARK  Name = 
REMARK  6 active torsions:
REMARK  status: ('A' for Active; 'I' for Inactive)
REMARK    1  A    between atoms: C_1  and  C_2
REMARK    2  A    between atoms: C_5  and  C_6
REMARK    3  A    between atoms: C_6  and  C_7
REMARK    4  A    between atoms: C_10  and  C_11
REMARK    5  A    between atoms: C_11  and  N_12
REMARK    6  A    between atoms: C_13  and  C_15
REMARK                            x       y       z     vdW  Elec       q    Type
REMARK                         _______ _______ _______ _____ _____    ______ ____
ROOT
ATOM      1  C   UNL     1      46.827   7.788  13.134  0.00  0.00    +0.000 C 
ENDROOT
BRANCH   1   5
ATOM      2  C   UNL     1      44.487   4.973  10.927  0.00  0.00    +0.000 A 
ATOM      3  C   UNL     1      44.110   6.318  10.942  0.00  0.00    +0.000 A 
ATOM      4  C   UNL     1      44.872   7.244  11.651  0.00  0.00    +0.000 A 
ATOM      5  C   UNL     1      45.973   6.800  12.375  0.00  0.00    +0.000 A 
ATOM      6  N   UNL     1      46.342   5.495  12.405  0.00  0.00    +0.000 NA
ATOM      7  C   UNL     1      45.598   4.622  11.686  0.00  0.00    +0.000 A 
BRANCH   2   8
ATOM      8  C   UNL     1      43.752   3.952  10.091  0.00  0.00    +0.000 C 
BRANCH   8  13
ATOM      9  C   UNL     1      47.741   2.030   6.229  0.00  0.00    +0.000 C 
ATOM     10  C   UNL     1      47.050   2.556   7.487  0.00  0.00    +0.000 C 
ATOM     11  C   UNL     1      46.378   3.902   7.201  0.00  0.00    +0.000 C 
ATOM     12  C   UNL     1      45.648   4.428   8.434  0.00  0.00    +0.000 C 
ATOM     13  C   UNL     1      44.577   3.426   8.894  0.00  0.00    +0.000 C 
ATOM     14  C   UNL     1      45.247   2.083   9.224  0.00  0.00    +0.000 C 
ATOM     15  C   UNL     1      46.034   1.539   8.027  0.00  0.00    +0.000 C 
ENDBRANCH   8  13
ENDBRANCH   2   8
ENDBRANCH   1   5
BRANCH   1  16
ATOM     16  N   UNL     1      47.352   7.238  14.364  0.00  0.00    +0.000 N 
ATOM     17  C   UNL     1      48.628   6.758  14.483  0.00  0.00    +0.000 C 
ATOM     18  O   UNL     1      49.419   6.763  13.543  0.00  0.00    +0.000 OA
ATOM     19  H   UNL     1      46.657   7.003  15.066  0.00  0.00    +0.000 HD
BRANCH  17  20
ATOM     20  C   UNL     1      49.033   6.309  15.823  0.00  0.00    +0.000 A 
ATOM     21  C   UNL     1      50.023   6.996  16.510  0.00  0.00    +0.000 A 
ATOM     22  S   UNL     1      50.342   6.370  18.065  0.00  0.00    +0.000 S 
ATOM     23  C   UNL     1      49.197   5.128  17.858  0.00  0.00    +0.000 A 
ATOM     24  N   UNL     1      48.988   4.200  18.827  0.00  0.00    +0.000 NA
ATOM     25  C   UNL     1      48.111   3.300  18.525  0.00  0.00    +0.000 A 
ATOM     26  N   UNL     1      47.417   3.251  17.345  0.00  0.00    +0.000 N 
ATOM     27  C   UNL     1      47.559   4.195  16.359  0.00  0.00    +0.000 A 
ATOM     28  O   UNL     1      46.855   4.176  15.355  0.00  0.00    +0.000 OA
ATOM     29  C   UNL     1      48.560   5.210  16.630  0.00  0.00    +0.000 A 
ATOM     30  H   UNL     1      46.725   2.537  17.178  0.00  0.00    +0.000 HD
ENDBRANCH  17  20
ENDBRANCH   1  16
TORSDOF 5
ENDMDL
MODEL 2
REMARK VINA RESULT:    -8.119      2.139      3.764
REMARK INTER + INTRA:         -11.211
REMARK INTER:                 -10.420
REMARK INTRA:                  -0.791
REMARK UNBOUND:                -0.720
REMARK  Name = 
REMARK  6 active torsions:
REMARK  status: ('A' for Active; 'I' for Inactive)
REMARK    1  A    between atoms: C_1  and  C_2
REMARK    2  A    between atoms: C_5  and  C_6
REMARK    3  A    between atoms: C_6  and  C_7
REMARK    4  A    between atoms: C_10  and  C_11
REMARK    5  A    between atoms: C_11  and  N_12
REMARK    6  A    between atoms: C_13  and  C_15
REMARK                            x       y       z     vdW  Elec       q    Type
REMARK                         _______ _______ _______ _____ _____    ______ ____
ROOT
ATOM      1  C   UNL     1      47.094   4.675  14.565  0.00  0.00    +0.000 C 
ENDROOT
BRANCH   1   5
ATOM      2  C   UNL     1      44.689   4.255  11.056  0.00  0.00    +0.000 A 
ATOM      3  C   UNL     1      45.393   5.443  11.269  0.00  0.00    +0.000 A 
ATOM      4  C   UNL     1      46.187   5.585  12.405  0.00  0.00    +0.000 A 
ATOM      5  C   UNL     1      46.224   4.553  13.337  0.00  0.00    +0.000 A 
ATOM      6  N   UNL     1      45.524   3.403  13.171  0.00  0.00    +0.000 NA
ATOM      7  C   UNL     1      44.782   3.283  12.046  0.00  0.00    +0.000 A 
BRANCH   2   8
ATOM      8  C   UNL     1      43.898   4.017   9.791  0.00  0.00    +0.000 C 
BRANCH   8  13
ATOM      9  C   UNL     1      47.933   1.836   6.119  0.00  0.00    +0.000 C 
ATOM     10  C   UNL     1      47.230   2.462   7.324  0.00  0.00    +0.000 C 
ATOM     11  C   UNL     1      46.524   3.758   6.913  0.00  0.00    +0.000 C 
ATOM     12  C   UNL     1      45.782   4.380   8.093  0.00  0.00    +0.000 C 
ATOM     13  C   UNL     1      44.736   3.400   8.648  0.00  0.00    +0.000 C 
ATOM     14  C   UNL     1      45.439   2.111   9.102  0.00  0.00    +0.000 C 
ATOM     15  C   UNL     1      46.240   1.476   7.961  0.00  0.00    +0.000 C 
ENDBRANCH   8  13
ENDBRANCH   2   8
ENDBRANCH   1   5
BRANCH   1  16
ATOM     16  N   UNL     1      47.651   6.000  14.722  0.00  0.00    +0.000 N 
ATOM     17  C   UNL     1      48.679   6.281  15.580  0.00  0.00    +0.000 C 
ATOM     18  O   UNL     1      49.202   5.417  16.281  0.00  0.00    +0.000 OA
ATOM     19  H   UNL     1      47.085   6.755  14.346  0.00  0.00    +0.000 HD
BRANCH  17  20
ATOM     20  C   UNL     1      49.185   7.662  15.561  0.00  0.00    +0.000 A 
ATOM     21  C   UNL     1      49.264   8.382  16.743  0.00  0.00    +0.000 A 
ATOM     22  S   UNL     1      49.910   9.950  16.550  0.00  0.00    +0.000 S 
ATOM     23  C   UNL     1      50.066   9.737  14.869  0.00  0.00    +0.000 A 
ATOM     24  N   UNL     1      50.541  10.733  14.079  0.00  0.00    +0.000 NA
ATOM     25  C   UNL     1      50.580  10.445  12.819  0.00  0.00    +0.000 A 
ATOM     26  N   UNL     1      50.194   9.244  12.281  0.00  0.00    +0.000 N 
ATOM     27  C   UNL     1      49.757   8.193  13.047  0.00  0.00    +0.000 A 
ATOM     28  O   UNL     1      49.509   7.102  12.545  0.00  0.00    +0.000 OA
ATOM     29  C   UNL     1      49.658   8.475  14.467  0.00  0.00    +0.000 A 
ATOM     30  H   UNL     1      50.273   9.069  11.291  0.00  0.00    +0.000 HD
ENDBRANCH  17  20
ENDBRANCH   1  16
TORSDOF 5
ENDMDL
MODEL 3
REMARK VINA RESULT:    -8.044      1.921      2.299
REMARK INTER + INTRA:         -11.115
REMARK INTER:                 -10.561
REMARK INTRA:                  -0.554
REMARK UNBOUND:                -0.720
REMARK  Name = 
REMARK  6 active torsions:
REMARK  status: ('A' for Active; 'I' for Inactive)
REMARK    1  A    between atoms: C_1  and  C_2
REMARK    2  A    between atoms: C_5  and  C_6
REMARK    3  A    between atoms: C_6  and  C_7
REMARK    4  A    between atoms: C_10  and  C_11
REMARK    5  A    between atoms: C_11  and  N_12
REMARK    6  A    between atoms: C_13  and  C_15
REMARK                            x       y       z     vdW  Elec       q    Type
REMARK                         _______ _______ _______ _____ _____    ______ ____
ROOT
ATOM      1  C   UNL     1      47.817   6.781  13.663  0.00  0.00    +0.000 C 
ENDROOT
BRANCH   1   5
ATOM      2  C   UNL     1      44.827   5.094  11.117  0.00  0.00    +0.000 A 
ATOM      3  C   UNL     1      45.208   6.427  10.940  0.00  0.00    +0.000 A 
ATOM      4  C   UNL     1      46.189   6.982  11.759  0.00  0.00    +0.000 A 
ATOM      5  C   UNL     1      46.738   6.208  12.776  0.00  0.00    +0.000 A 
ATOM      6  N   UNL     1      46.361   4.923  12.991  0.00  0.00    +0.000 NA
ATOM      7  C   UNL     1      45.425   4.402  12.164  0.00  0.00    +0.000 A 
BRANCH   2   8
ATOM      8  C   UNL     1      43.843   4.421  10.189  0.00  0.00    +0.000 C 
BRANCH   8  13
ATOM      9  C   UNL     1      47.310   1.482   6.465  0.00  0.00    +0.000 C 
ATOM     10  C   UNL     1      46.773   2.268   7.662  0.00  0.00    +0.000 C 
ATOM     11  C   UNL     1      46.236   3.628   7.207  0.00  0.00    +0.000 C 
ATOM     12  C   UNL     1      45.658   4.415   8.381  0.00  0.00    +0.000 C 
ATOM     13  C   UNL     1      44.518   3.628   9.046  0.00  0.00    +0.000 C 
ATOM     14  C   UNL     1      45.057   2.277   9.545  0.00  0.00    +0.000 C 
ATOM     15  C   UNL     1      45.692   1.472   8.407  0.00  0.00    +0.000 C 
ENDBRANCH   8  13
ENDBRANCH   2   8
ENDBRANCH   1   5
BRANCH   1  16
ATOM     16  N   UNL     1      47.798   6.219  14.995  0.00  0.00    +0.000 N 
ATOM     17  C   UNL     1      48.896   6.199  15.812  0.00  0.00    +0.000 C 
ATOM     18  O   UNL     1      49.980   6.660  15.464  0.00  0.00    +0.000 OA
ATOM     19  H   UNL     1      47.002   5.626  15.204  0.00  0.00    +0.000 HD
BRANCH  17  20
ATOM     20  C   UNL     1      48.689   5.666  17.167  0.00  0.00    +0.000 A 
ATOM     21  C   UNL     1      48.888   4.317  17.415  0.00  0.00    +0.000 A 
ATOM     22  S   UNL     1      48.646   3.873  19.045  0.00  0.00    +0.000 S 
ATOM     23  C   UNL     1      48.223   5.466  19.471  0.00  0.00    +0.000 A 
ATOM     24  N   UNL     1      47.866   5.779  20.742  0.00  0.00    +0.000 NA
ATOM     25  C   UNL     1      47.543   7.018  20.918  0.00  0.00    +0.000 A 
ATOM     26  N   UNL     1      47.554   7.974  19.936  0.00  0.00    +0.000 N 
ATOM     27  C   UNL     1      47.956   7.715  18.650  0.00  0.00    +0.000 A 
ATOM     28  O   UNL     1      48.045   8.612  17.819  0.00  0.00    +0.000 OA
ATOM     29  C   UNL     1      48.295   6.328  18.388  0.00  0.00    +0.000 A 
ATOM     30  H   UNL     1      47.316   8.933  20.141  0.00  0.00    +0.000 HD
ENDBRANCH  17  20
ENDBRANCH   1  16
TORSDOF 5
ENDMDL
MODEL 4
REMARK VINA RESULT:    -7.811      2.425      3.031
REMARK INTER + INTRA:         -10.813
REMARK INTER:                 -10.291
REMARK INTRA:                  -0.522
REMARK UNBOUND:                -0.720
REMARK  Name = 
REMARK  6 active torsions:
REMARK  status: ('A' for Active; 'I' for Inactive)
REMARK    1  A    between atoms: C_1  and  C_2
REMARK    2  A    between atoms: C_5  and  C_6
REMARK    3  A    between atoms: C_6  and  C_7
REMARK    4  A    between atoms: C_10  and  C_11
REMARK    5  A    between atoms: C_11  and  N_12
REMARK    6  A    between atoms: C_13  and  C_15
REMARK                            x       y       z     vdW  Elec       q    Type
REMARK                         _______ _______ _______ _____ _____    ______ ____
ROOT
ATOM      1  C   UNL     1      47.124   4.380  14.939  0.00  0.00    +0.000 C 
ENDROOT
BRANCH   1   5
ATOM      2  C   UNL     1      44.817   4.720  11.357  0.00  0.00    +0.000 A 
ATOM      3  C   UNL     1      45.852   5.627  11.596  0.00  0.00    +0.000 A 
ATOM      4  C   UNL     1      46.616   5.518  12.757  0.00  0.00    +0.000 A 
ATOM      5  C   UNL     1      46.297   4.532  13.684  0.00  0.00    +0.000 A 
ATOM      6  N   UNL     1      45.276   3.660  13.493  0.00  0.00    +0.000 NA
ATOM      7  C   UNL     1      44.568   3.774  12.345  0.00  0.00    +0.000 A 
BRANCH   2   8
ATOM      8  C   UNL     1      44.030   4.737  10.068  0.00  0.00    +0.000 C 
BRANCH   8  13
ATOM      9  C   UNL     1      47.310   1.461   6.457  0.00  0.00    +0.000 C 
ATOM     10  C   UNL     1      46.820   2.314   7.627  0.00  0.00    +0.000 C 
ATOM     11  C   UNL     1      46.385   3.697   7.132  0.00  0.00    +0.000 C 
ATOM     12  C   UNL     1      45.855   4.554   8.279  0.00  0.00    +0.000 C 
ATOM     13  C   UNL     1      44.656   3.868   8.953  0.00  0.00    +0.000 C 
ATOM     14  C   UNL     1      45.093   2.496   9.492  0.00  0.00    +0.000 C 
ATOM     15  C   UNL     1      45.678   1.617   8.381  0.00  0.00    +0.000 C 
ENDBRANCH   8  13
ENDBRANCH   2   8
ENDBRANCH   1   5
BRANCH   1  16
ATOM     16  N   UNL     1      47.532   5.652  15.492  0.00  0.00    +0.000 N 
ATOM     17  C   UNL     1      48.624   5.797  16.304  0.00  0.00    +0.000 C 
ATOM     18  O   UNL     1      49.336   4.846  16.620  0.00  0.00    +0.000 OA
ATOM     19  H   UNL     1      46.835   6.388  15.447  0.00  0.00    +0.000 HD
BRANCH  17  20
ATOM     20  C   UNL     1      48.952   7.170  16.716  0.00  0.00    +0.000 A 
ATOM     21  C   UNL     1      49.767   7.954  15.913  0.00  0.00    +0.000 A 
ATOM     22  S   UNL     1      50.013   9.531  16.516  0.00  0.00    +0.000 S 
ATOM     23  C   UNL     1      49.074   9.207  17.898  0.00  0.00    +0.000 A 
ATOM     24  N   UNL     1      48.898  10.148  18.861  0.00  0.00    +0.000 NA
ATOM     25  C   UNL     1      48.186   9.758  19.866  0.00  0.00    +0.000 A 
ATOM     26  N   UNL     1      47.625   8.514  19.989  0.00  0.00    +0.000 N 
ATOM     27  C   UNL     1      47.733   7.550  19.019  0.00  0.00    +0.000 A 
ATOM     28  O   UNL     1      47.142   6.480  19.117  0.00  0.00    +0.000 OA
ATOM     29  C   UNL     1      48.555   7.922  17.882  0.00  0.00    +0.000 A 
ATOM     30  H   UNL     1      47.056   8.276  20.788  0.00  0.00    +0.000 HD
ENDBRANCH  17  20
ENDBRANCH   1  16
TORSDOF 5
ENDMDL
MODEL 5
REMARK VINA RESULT:    -7.539      1.471      1.988
REMARK INTER + INTRA:         -10.462
REMARK INTER:                  -9.415
REMARK INTRA:                  -1.047
REMARK UNBOUND:                -0.720
REMARK  Name = 
REMARK  6 active torsions:
REMARK  status: ('A' for Active; 'I' for Inactive)
REMARK    1  A    between atoms: C_1  and  C_2
REMARK    2  A    between atoms: C_5  and  C_6
REMARK    3  A    between atoms: C_6  and  C_7
REMARK    4  A    between atoms: C_10  and  C_11
REMARK    5  A    between atoms: C_11  and  N_12
REMARK    6  A    between atoms: C_13  and  C_15
REMARK                            x       y       z     vdW  Elec       q    Type
REMARK                         _______ _______ _______ _____ _____    ______ ____
ROOT
ATOM      1  C   UNL     1      46.900   9.010  13.612  0.00  0.00    +0.000 C 
ENDROOT
BRANCH   1   5
ATOM      2  C   UNL     1      45.116   5.941  11.232  0.00  0.00    +0.000 A 
ATOM      3  C   UNL     1      46.331   5.693  11.875  0.00  0.00    +0.000 A 
ATOM      4  C   UNL     1      46.915   6.684  12.661  0.00  0.00    +0.000 A 
ATOM      5  C   UNL     1      46.297   7.927  12.750  0.00  0.00    +0.000 A 
ATOM      6  N   UNL     1      45.135   8.205  12.109  0.00  0.00    +0.000 NA
ATOM      7  C   UNL     1      44.577   7.215  11.374  0.00  0.00    +0.000 A 
BRANCH   2   8
ATOM      8  C   UNL     1      44.395   4.864  10.454  0.00  0.00    +0.000 C 
BRANCH   8  13
ATOM      9  C   UNL     1      47.185   1.499   6.528  0.00  0.00    +0.000 C 
ATOM     10  C   UNL     1      46.155   2.373   7.244  0.00  0.00    +0.000 C 
ATOM     11  C   UNL     1      45.729   1.720   8.562  0.00  0.00    +0.000 C 
ATOM     12  C   UNL     1      44.729   2.594   9.315  0.00  0.00    +0.000 C 
ATOM     13  C   UNL     1      45.341   3.971   9.618  0.00  0.00    +0.000 C 
ATOM     14  C   UNL     1      45.733   4.654   8.298  0.00  0.00    +0.000 C 
ATOM     15  C   UNL     1      46.700   3.788   7.484  0.00  0.00    +0.000 C 
ENDBRANCH   8  13
ENDBRANCH   2   8
ENDBRANCH   1   5
BRANCH   1  16
ATOM     16  N   UNL     1      47.320   8.520  14.906  0.00  0.00    +0.000 N 
ATOM     17  C   UNL     1      48.621   8.554  15.332  0.00  0.00    +0.000 C 
ATOM     18  O   UNL     1      49.525   9.007  14.635  0.00  0.00    +0.000 OA
ATOM     19  H   UNL     1      46.647   7.931  15.386  0.00  0.00    +0.000 HD
BRANCH  17  20
ATOM     20  C   UNL     1      48.869   8.093  16.705  0.00  0.00    +0.000 A 
ATOM     21  C   UNL     1      49.221   9.007  17.686  0.00  0.00    +0.000 A 
ATOM     22  S   UNL     1      49.433   8.313  19.230  0.00  0.00    +0.000 S 
ATOM     23  C   UNL     1      49.103   6.753  18.633  0.00  0.00    +0.000 A 
ATOM     24  N   UNL     1      49.146   5.669  19.447  0.00  0.00    +0.000 NA
ATOM     25  C   UNL     1      48.902   4.545  18.856  0.00  0.00    +0.000 A 
ATOM     26  N   UNL     1      48.610   4.412  17.523  0.00  0.00    +0.000 N 
ATOM     27  C   UNL     1      48.506   5.485  16.674  0.00  0.00    +0.000 A 
ATOM     28  O   UNL     1      48.151   5.341  15.510  0.00  0.00    +0.000 OA
ATOM     29  C   UNL     1      48.806   6.770  17.279  0.00  0.00    +0.000 A 
ATOM     30  H   UNL     1      48.402   3.509  17.124  0.00  0.00    +0.000 HD
ENDBRANCH  17  20
ENDBRANCH   1  16
TORSDOF 5
ENDMDL
MODEL 6
REMARK VINA RESULT:    -7.533      1.830      2.476
REMARK INTER + INTRA:         -10.454
REMARK INTER:                  -9.886
REMARK INTRA:                  -0.569
REMARK UNBOUND:                -0.720
REMARK  Name = 
REMARK  6 active torsions:
REMARK  status: ('A' for Active; 'I' for Inactive)
REMARK    1  A    between atoms: C_1  and  C_2
REMARK    2  A    between atoms: C_5  and  C_6
REMARK    3  A    between atoms: C_6  and  C_7
REMARK    4  A    between atoms: C_10  and  C_11
REMARK    5  A    between atoms: C_11  and  N_12
REMARK    6  A    between atoms: C_13  and  C_15
REMARK                            x       y       z     vdW  Elec       q    Type
REMARK                         _______ _______ _______ _____ _____    ______ ____
ROOT
ATOM      1  C   UNL     1      47.677   7.229  13.639  0.00  0.00    +0.000 C 
ENDROOT
BRANCH   1   5
ATOM      2  C   UNL     1      44.734   5.266  11.240  0.00  0.00    +0.000 A 
ATOM      3  C   UNL     1      45.023   6.613  11.008  0.00  0.00    +0.000 A 
ATOM      4  C   UNL     1      45.987   7.259  11.779  0.00  0.00    +0.000 A 
ATOM      5  C   UNL     1      46.613   6.557  12.804  0.00  0.00    +0.000 A 
ATOM      6  N   UNL     1      46.327   5.259  13.072  0.00  0.00    +0.000 NA
ATOM      7  C   UNL     1      45.405   4.650  12.291  0.00  0.00    +0.000 A 
BRANCH   2   8
ATOM      8  C   UNL     1      43.772   4.499  10.364  0.00  0.00    +0.000 C 
BRANCH   8  13
ATOM      9  C   UNL     1      47.277   1.687   6.578  0.00  0.00    +0.000 C 
ATOM     10  C   UNL     1      46.724   2.422   7.800  0.00  0.00    +0.000 C 
ATOM     11  C   UNL     1      46.222   3.813   7.403  0.00  0.00    +0.000 C 
ATOM     12  C   UNL     1      45.629   4.550   8.601  0.00  0.00    +0.000 C 
ATOM     13  C   UNL     1      44.460   3.752   9.199  0.00  0.00    +0.000 C 
ATOM     14  C   UNL     1      44.963   2.368   9.641  0.00  0.00    +0.000 C 
ATOM     15  C   UNL     1      45.612   1.609   8.478  0.00  0.00    +0.000 C 
ENDBRANCH   8  13
ENDBRANCH   2   8
ENDBRANCH   1   5
BRANCH   1  16
ATOM     16  N   UNL     1      48.293   6.325  14.585  0.00  0.00    +0.000 N 
ATOM     17  C   UNL     1      48.767   6.730  15.804  0.00  0.00    +0.000 C 
ATOM     18  O   UNL     1      48.699   7.898  16.177  0.00  0.00    +0.000 OA
ATOM     19  H   UNL     1      48.576   5.427  14.206  0.00  0.00    +0.000 HD
BRANCH  17  20
ATOM     20  C   UNL     1      49.291   5.673  16.682  0.00  0.00    +0.000 A 
ATOM     21  C   UNL     1      48.417   4.772  17.272  0.00  0.00    +0.000 A 
ATOM     22  S   UNL     1      49.191   3.588  18.226  0.00  0.00    +0.000 S 
ATOM     23  C   UNL     1      50.723   4.266  17.920  0.00  0.00    +0.000 A 
ATOM     24  N   UNL     1      51.844   3.739  18.473  0.00  0.00    +0.000 NA
ATOM     25  C   UNL     1      52.934   4.369  18.178  0.00  0.00    +0.000 A 
ATOM     26  N   UNL     1      53.001   5.474  17.370  0.00  0.00    +0.000 N 
ATOM     27  C   UNL     1      51.901   6.010  16.749  0.00  0.00    +0.000 A 
ATOM     28  O   UNL     1      52.008   6.941  15.959  0.00  0.00    +0.000 OA
ATOM     29  C   UNL     1      50.644   5.362  17.076  0.00  0.00    +0.000 A 
ATOM     30  H   UNL     1      53.886   5.908  17.155  0.00  0.00    +0.000 HD
ENDBRANCH  17  20
ENDBRANCH   1  16
TORSDOF 5
ENDMDL
MODEL 7
REMARK VINA RESULT:    -7.170      3.332      8.264
REMARK INTER + INTRA:          -9.986
REMARK INTER:                  -9.129
REMARK INTRA:                  -0.857
REMARK UNBOUND:                -0.720
REMARK  Name = 
REMARK  6 active torsions:
REMARK  status: ('A' for Active; 'I' for Inactive)
REMARK    1  A    between atoms: C_1  and  C_2
REMARK    2  A    between atoms: C_5  and  C_6
REMARK    3  A    between atoms: C_6  and  C_7
REMARK    4  A    between atoms: C_10  and  C_11
REMARK    5  A    between atoms: C_11  and  N_12
REMARK    6  A    between atoms: C_13  and  C_15
REMARK                            x       y       z     vdW  Elec       q    Type
REMARK                         _______ _______ _______ _____ _____    ______ ____
ROOT
ATOM      1  C   UNL     1      48.312   7.126  13.542  0.00  0.00    +0.000 C 
ENDROOT
BRANCH   1   5
ATOM      2  C   UNL     1      49.433   5.430  17.301  0.00  0.00    +0.000 A 
ATOM      3  C   UNL     1      50.259   6.387  16.705  0.00  0.00    +0.000 A 
ATOM      4  C   UNL     1      49.896   6.952  15.484  0.00  0.00    +0.000 A 
ATOM      5  C   UNL     1      48.736   6.513  14.855  0.00  0.00    +0.000 A 
ATOM      6  N   UNL     1      47.935   5.562  15.395  0.00  0.00    +0.000 NA
ATOM      7  C   UNL     1      48.298   5.049  16.594  0.00  0.00    +0.000 A 
BRANCH   2   8
ATOM      8  C   UNL     1      49.733   4.866  18.670  0.00  0.00    +0.000 C 
BRANCH   8  13
ATOM      9  C   UNL     1      53.613   0.580  17.622  0.00  0.00    +0.000 C 
ATOM     10  C   UNL     1      52.773   1.853  17.531  0.00  0.00    +0.000 C 
ATOM     11  C   UNL     1      51.285   1.503  17.433  0.00  0.00    +0.000 C 
ATOM     12  C   UNL     1      50.423   2.761  17.381  0.00  0.00    +0.000 C 
ATOM     13  C   UNL     1      50.648   3.620  18.636  0.00  0.00    +0.000 C 
ATOM     14  C   UNL     1      52.132   4.013  18.721  0.00  0.00    +0.000 C 
ATOM     15  C   UNL     1      53.040   2.780  18.727  0.00  0.00    +0.000 C 
ENDBRANCH   8  13
ENDBRANCH   2   8
ENDBRANCH   1   5
BRANCH   1  16
ATOM     16  N   UNL     1      47.485   6.238  12.756  0.00  0.00    +0.000 N 
ATOM     17  C   UNL     1      46.520   6.684  11.893  0.00  0.00    +0.000 C 
ATOM     18  O   UNL     1      46.291   7.880  11.729  0.00  0.00    +0.000 OA
ATOM     19  H   UNL     1      47.488   5.267  13.052  0.00  0.00    +0.000 HD
BRANCH  17  20
ATOM     20  C   UNL     1      45.823   5.655  11.107  0.00  0.00    +0.000 A 
ATOM     21  C   UNL     1      45.910   5.668   9.724  0.00  0.00    +0.000 A 
ATOM     22  S   UNL     1      45.078   4.383   8.970  0.00  0.00    +0.000 S 
ATOM     23  C   UNL     1      44.534   3.786  10.468  0.00  0.00    +0.000 A 
ATOM     24  N   UNL     1      43.732   2.693  10.536  0.00  0.00    +0.000 NA
ATOM     25  C   UNL     1      43.372   2.367  11.734  0.00  0.00    +0.000 A 
ATOM     26  N   UNL     1      43.751   3.032  12.870  0.00  0.00    +0.000 N 
ATOM     27  C   UNL     1      44.601   4.109  12.853  0.00  0.00    +0.000 A 
ATOM     28  O   UNL     1      44.995   4.623  13.894  0.00  0.00    +0.000 OA
ATOM     29  C   UNL     1      45.007   4.541  11.529  0.00  0.00    +0.000 A 
ATOM     30  H   UNL     1      43.458   2.713  13.782  0.00  0.00    +0.000 HD
ENDBRANCH  17  20
ENDBRANCH   1  16
TORSDOF 5
ENDMDL
MODEL 8
REMARK VINA RESULT:    -6.930      4.756      7.343
REMARK INTER + INTRA:          -9.675
REMARK INTER:                  -8.735
REMARK INTRA:                  -0.940
REMARK UNBOUND:                -0.720
REMARK  Name = 
REMARK  6 active torsions:
REMARK  status: ('A' for Active; 'I' for Inactive)
REMARK    1  A    between atoms: C_1  and  C_2
REMARK    2  A    between atoms: C_5  and  C_6
REMARK    3  A    between atoms: C_6  and  C_7
REMARK    4  A    between atoms: C_10  and  C_11
REMARK    5  A    between atoms: C_11  and  N_12
REMARK    6  A    between atoms: C_13  and  C_15
REMARK                            x       y       z     vdW  Elec       q    Type
REMARK                         _______ _______ _______ _____ _____    ______ ____
ROOT
ATOM      1  C   UNL     1      46.673   8.061  13.207  0.00  0.00    +0.000 C 
ENDROOT
BRANCH   1   5
ATOM      2  C   UNL     1      50.509   8.518  11.377  0.00  0.00    +0.000 A 
ATOM      3  C   UNL     1      50.199   7.324  12.034  0.00  0.00    +0.000 A 
ATOM      4  C   UNL     1      48.947   7.163  12.626  0.00  0.00    +0.000 A 
ATOM      5  C   UNL     1      48.043   8.219  12.592  0.00  0.00    +0.000 A 
ATOM      6  N   UNL     1      48.332   9.400  11.991  0.00  0.00    +0.000 NA
ATOM      7  C   UNL     1      49.545   9.519  11.403  0.00  0.00    +0.000 A 
BRANCH   2   8
ATOM      8  C   UNL     1      51.812   8.699  10.636  0.00  0.00    +0.000 C 
BRANCH   8  13
ATOM      9  C   UNL     1      54.438   4.475   7.507  0.00  0.00    +0.000 C 
ATOM     10  C   UNL     1      54.125   5.779   8.242  0.00  0.00    +0.000 C 
ATOM     11  C   UNL     1      52.894   6.453   7.630  0.00  0.00    +0.000 C 
ATOM     12  C   UNL     1      52.540   7.738   8.375  0.00  0.00    +0.000 C 
ATOM     13  C   UNL     1      52.258   7.440   9.857  0.00  0.00    +0.000 C 
ATOM     14  C   UNL     1      53.504   6.802  10.492  0.00  0.00    +0.000 C 
ATOM     15  C   UNL     1      53.927   5.532   9.745  0.00  0.00    +0.000 C 
ENDBRANCH   8  13
ENDBRANCH   2   8
ENDBRANCH   1   5
BRANCH   1  16
ATOM     16  N   UNL     1      46.059   6.794  12.876  0.00  0.00    +0.000 N 
ATOM     17  C   UNL     1      45.092   6.662  11.915  0.00  0.00    +0.000 C 
ATOM     18  O   UNL     1      44.679   7.620  11.267  0.00  0.00    +0.000 OA
ATOM     19  H   UNL     1      46.204   6.051  13.552  0.00  0.00    +0.000 HD
BRANCH  17  20
ATOM     20  C   UNL     1      44.629   5.294  11.641  0.00  0.00    +0.000 A 
ATOM     21  C   UNL     1      43.890   4.612  12.596  0.00  0.00    +0.000 A 
ATOM     22  S   UNL     1      43.398   3.055  12.103  0.00  0.00    +0.000 S 
ATOM     23  C   UNL     1      44.195   3.218  10.608  0.00  0.00    +0.000 A 
ATOM     24  N   UNL     1      44.193   2.210   9.700  0.00  0.00    +0.000 NA
ATOM     25  C   UNL     1      44.860   2.459   8.621  0.00  0.00    +0.000 A 
ATOM     26  N   UNL     1      45.521   3.633   8.366  0.00  0.00    +0.000 N 
ATOM     27  C   UNL     1      45.507   4.697   9.232  0.00  0.00    +0.000 A 
ATOM     28  O   UNL     1      46.028   5.766   8.933  0.00  0.00    +0.000 OA
ATOM     29  C   UNL     1      44.802   4.457  10.477  0.00  0.00    +0.000 A 
ATOM     30  H   UNL     1      46.003   3.779   7.492  0.00  0.00    +0.000 HD
ENDBRANCH  17  20
ENDBRANCH   1  16
TORSDOF 5
ENDMDL
MODEL 9
REMARK VINA RESULT:    -6.908      3.717      8.317
REMARK INTER + INTRA:          -9.646
REMARK INTER:                  -8.854
REMARK INTRA:                  -0.792
REMARK UNBOUND:                -0.720
REMARK  Name = 
REMARK  6 active torsions:
REMARK  status: ('A' for Active; 'I' for Inactive)
REMARK    1  A    between atoms: C_1  and  C_2
REMARK    2  A    between atoms: C_5  and  C_6
REMARK    3  A    between atoms: C_6  and  C_7
REMARK    4  A    between atoms: C_10  and  C_11
REMARK    5  A    between atoms: C_11  and  N_12
REMARK    6  A    between atoms: C_13  and  C_15
REMARK                            x       y       z     vdW  Elec       q    Type
REMARK                         _______ _______ _______ _____ _____    ______ ____
ROOT
ATOM      1  C   UNL     1      48.994   7.966  15.253  0.00  0.00    +0.000 C 
ENDROOT
BRANCH   1   5
ATOM      2  C   UNL     1      50.647   4.746  17.527  0.00  0.00    +0.000 A 
ATOM      3  C   UNL     1      51.499   5.701  16.969  0.00  0.00    +0.000 A 
ATOM      4  C   UNL     1      50.969   6.759  16.233  0.00  0.00    +0.000 A 
ATOM      5  C   UNL     1      49.595   6.817  16.028  0.00  0.00    +0.000 A 
ATOM      6  N   UNL     1      48.748   5.884  16.530  0.00  0.00    +0.000 NA
ATOM      7  C   UNL     1      49.289   4.882  17.262  0.00  0.00    +0.000 A 
BRANCH   2   8
ATOM      8  C   UNL     1      51.168   3.640  18.415  0.00  0.00    +0.000 C 
BRANCH   8  13
ATOM      9  C   UNL     1      55.668   0.131  17.018  0.00  0.00    +0.000 C 
ATOM     10  C   UNL     1      54.531   0.836  17.758  0.00  0.00    +0.000 C 
ATOM     11  C   UNL     1      54.805   2.341  17.843  0.00  0.00    +0.000 C 
ATOM     12  C   UNL     1      53.663   3.072  18.543  0.00  0.00    +0.000 C 
ATOM     13  C   UNL     1      52.341   2.850  17.791  0.00  0.00    +0.000 C 
ATOM     14  C   UNL     1      52.035   1.344  17.738  0.00  0.00    +0.000 C 
ATOM     15  C   UNL     1      53.179   0.562  17.085  0.00  0.00    +0.000 C 
ENDBRANCH   8  13
ENDBRANCH   2   8
ENDBRANCH   1   5
BRANCH   1  16
ATOM     16  N   UNL     1      47.823   7.576  14.501  0.00  0.00    +0.000 N 
ATOM     17  C   UNL     1      47.885   6.830  13.355  0.00  0.00    +0.000 C 
ATOM     18  O   UNL     1      48.951   6.439  12.886  0.00  0.00    +0.000 OA
ATOM     19  H   UNL     1      46.973   8.083  14.728  0.00  0.00    +0.000 HD
BRANCH  17  20
ATOM     20  C   UNL     1      46.597   6.448  12.756  0.00  0.00    +0.000 A 
ATOM     21  C   UNL     1      45.793   7.418  12.177  0.00  0.00    +0.000 A 
ATOM     22  S   UNL     1      44.356   6.801  11.493  0.00  0.00    +0.000 S 
ATOM     23  C   UNL     1      44.739   5.217  11.985  0.00  0.00    +0.000 A 
ATOM     24  N   UNL     1      43.896   4.184  11.734  0.00  0.00    +0.000 NA
ATOM     25  C   UNL     1      44.298   3.042  12.188  0.00  0.00    +0.000 A 
ATOM     26  N   UNL     1      45.475   2.841  12.861  0.00  0.00    +0.000 N 
ATOM     27  C   UNL     1      46.380   3.846  13.092  0.00  0.00    +0.000 A 
ATOM     28  O   UNL     1      47.465   3.615  13.615  0.00  0.00    +0.000 OA
ATOM     29  C   UNL     1      45.961   5.158  12.636  0.00  0.00    +0.000 A 
ATOM     30  H   UNL     1      45.747   1.920  13.169  0.00  0.00    +0.000 HD
ENDBRANCH  17  20
ENDBRANCH   1  16
TORSDOF 5
ENDMDL
