MODEL 1
REMARK VINA RESULT:    -7.266      0.000      0.000
REMARK INTER + INTRA:         -11.438
REMARK INTER:                 -10.451
REMARK INTRA:                  -0.986
REMARK UNBOUND:                -0.986
REMARK  Name = 
REMARK  8 active torsions:
REMARK  status: ('A' for Active; 'I' for Inactive)
REMARK    1  A    between atoms: C_2  and  C_20
REMARK    2  A    between atoms: N_3  and  C_4
REMARK    3  A    between atoms: C_4  and  C_5
REMARK    4  A    between atoms: C_8  and  C_9
REMARK    5  A    between atoms: C_9  and  C_10
REMARK    6  A    between atoms: C_10  and  O_11
REMARK    7  A    between atoms: C_10  and  C_12
REMARK    8  A    between atoms: C_12  and  N_13
REMARK                            x       y       z     vdW  Elec       q    Type
REMARK                         _______ _______ _______ _____ _____    ______ ____
ROOT
ATOM      1  C   UNL     1      48.238   7.284  14.020  0.00  0.00    +0.000 C 
ENDROOT
BRANCH   1   2
ATOM      2  C   UNL     1      46.993   6.538  13.644  0.00  0.00    +0.000 A 
ATOM      3  C   UNL     1      45.992   7.125  12.872  0.00  0.00    +0.000 A 
ATOM      4  C   UNL     1      44.846   6.397  12.558  0.00  0.00    +0.000 A 
ATOM      5  C   UNL     1      44.737   5.081  13.002  0.00  0.00    +0.000 A 
ATOM      6  N   UNL     1      45.705   4.483  13.735  0.00  0.00    +0.000 NA
ATOM      7  C   UNL     1      46.805   5.218  14.032  0.00  0.00    +0.000 A 
BRANCH   5   8
ATOM      8  C   UNL     1      43.511   4.256  12.672  0.00  0.00    +0.000 C 
BRANCH   8   9
ATOM      9  C   UNL     1      43.877   2.903  12.049  0.00  0.00    +0.000 C 
BRANCH   9  10
ATOM     10  O   UNL     1      42.679   2.223  11.615  0.00  0.00    +0.000 OA
ATOM     11  H   UNL     1      42.342   2.689  10.832  0.00  0.00    +0.000 HD
ENDBRANCH   9  10
BRANCH   9  12
ATOM     12  C   UNL     1      44.790   3.035  10.804  0.00  0.00    +0.000 C 
BRANCH  12  13
ATOM     13  N   UNL     1      44.194   2.859   9.466  0.00  0.00    +0.000 NA
ATOM     14  C   UNL     1      44.749   1.652   8.817  0.00  0.00    +0.000 C 
ATOM     15  C   UNL     1      46.084   2.104   8.248  0.00  0.00    +0.000 C 
ATOM     16  C   UNL     1      45.788   3.511   7.762  0.00  0.00    +0.000 C 
ATOM     17  C   UNL     1      44.532   3.941   8.522  0.00  0.00    +0.000 C 
ENDBRANCH  12  13
ENDBRANCH   9  12
ENDBRANCH   8   9
ENDBRANCH   5   8
ENDBRANCH   1   2
BRANCH   1  20
ATOM     18  O   UNL     1      50.463   6.557  15.572  0.00  0.00    +0.000 OA
ATOM     19  C   UNL     1      49.505   7.095  16.126  0.00  0.00    +0.000 C 
ATOM     20  N   UNL     1      48.362   7.424  15.452  0.00  0.00    +0.000 N 
ATOM     21  H   UNL     1      47.685   8.033  15.897  0.00  0.00    +0.000 HD
BRANCH  19  22
ATOM     22  C   UNL     1      49.508   7.367  17.564  0.00  0.00    +0.000 A 
ATOM     23  C   UNL     1      50.330   8.357  18.089  0.00  0.00    +0.000 A 
ATOM     24  S   UNL     1      50.194   8.522  19.781  0.00  0.00    +0.000 S 
ATOM     25  C   UNL     1      49.008   7.305  19.865  0.00  0.00    +0.000 A 
ATOM     26  N   UNL     1      48.431   6.962  21.049  0.00  0.00    +0.000 NA
ATOM     27  C   UNL     1      47.514   6.057  20.954  0.00  0.00    +0.000 A 
ATOM     28  N   UNL     1      47.129   5.454  19.787  0.00  0.00    +0.000 N 
ATOM     29  C   UNL     1      47.739   5.710  18.583  0.00  0.00    +0.000 A 
ATOM     30  O   UNL     1      47.470   5.044  17.586  0.00  0.00    +0.000 OA
ATOM     31  C   UNL     1      48.737   6.759  18.624  0.00  0.00    +0.000 A 
ATOM     32  H   UNL     1      46.430   4.725  19.785  0.00  0.00    +0.000 HD
ENDBRANCH  19  22
ENDBRANCH   1  20
TORSDOF 8
ENDMDL
MODEL 2
REMARK VINA RESULT:    -6.907      3.727      4.185
REMARK INTER + INTRA:         -10.922
REMARK INTER:                 -10.083
REMARK INTRA:                  -0.838
REMARK UNBOUND:                -0.986
REMARK  Name = 
REMARK  8 active torsions:
REMARK  status: ('A' for Active; 'I' for Inactive)
REMARK    1  A    between atoms: C_2  and  C_20
REMARK    2  A    between atoms: N_3  and  C_4
REMARK    3  A    between atoms: C_4  and  C_5
REMARK    4  A    between atoms: C_8  and  C_9
REMARK    5  A    between atoms: C_9  and  C_10
REMARK    6  A    between atoms: C_10  and  O_11
REMARK    7  A    between atoms: C_10  and  C_12
REMARK    8  A    between atoms: C_12  and  N_13
REMARK                            x       y       z     vdW  Elec       q    Type
REMARK                         _______ _______ _______ _____ _____    ______ ____
ROOT
ATOM      1  C   UNL     1      47.440   4.183  16.480  0.00  0.00    +0.000 C 
ENDROOT
BRANCH   1   2
ATOM      2  C   UNL     1      47.140   4.761  15.130  0.00  0.00    +0.000 A 
ATOM      3  C   UNL     1      47.863   5.836  14.615  0.00  0.00    +0.000 A 
ATOM      4  C   UNL     1      47.539   6.348  13.360  0.00  0.00    +0.000 A 
ATOM      5  C   UNL     1      46.510   5.756  12.632  0.00  0.00    +0.000 A 
ATOM      6  N   UNL     1      45.806   4.700  13.102  0.00  0.00    +0.000 NA
ATOM      7  C   UNL     1      46.139   4.226  14.330  0.00  0.00    +0.000 A 
BRANCH   5   8
ATOM      8  C   UNL     1      46.136   6.280  11.261  0.00  0.00    +0.000 C 
BRANCH   8   9
ATOM      9  C   UNL     1      45.289   5.274  10.471  0.00  0.00    +0.000 C 
BRANCH   9  10
ATOM     10  O   UNL     1      43.948   5.785  10.308  0.00  0.00    +0.000 OA
ATOM     11  H   UNL     1      43.764   6.378  11.054  0.00  0.00    +0.000 HD
ENDBRANCH   9  10
BRANCH   9  12
ATOM     12  C   UNL     1      45.839   5.004   9.048  0.00  0.00    +0.000 C 
BRANCH  12  13
ATOM     13  N   UNL     1      45.071   4.126   8.146  0.00  0.00    +0.000 NA
ATOM     14  C   UNL     1      44.520   2.979   8.899  0.00  0.00    +0.000 C 
ATOM     15  C   UNL     1      45.674   1.997   8.999  0.00  0.00    +0.000 C 
ATOM     16  C   UNL     1      46.354   2.131   7.649  0.00  0.00    +0.000 C 
ATOM     17  C   UNL     1      45.895   3.484   7.103  0.00  0.00    +0.000 C 
ENDBRANCH  12  13
ENDBRANCH   9  12
ENDBRANCH   8   9
ENDBRANCH   5   8
ENDBRANCH   1   2
BRANCH   1  20
ATOM     18  O   UNL     1      48.797   4.736  18.876  0.00  0.00    +0.000 OA
ATOM     19  C   UNL     1      49.437   4.299  17.920  0.00  0.00    +0.000 C 
ATOM     20  N   UNL     1      48.862   4.063  16.703  0.00  0.00    +0.000 N 
ATOM     21  H   UNL     1      49.374   3.528  16.011  0.00  0.00    +0.000 HD
BRANCH  19  22
ATOM     22  C   UNL     1      50.877   4.059  18.012  0.00  0.00    +0.000 A 
ATOM     23  C   UNL     1      51.731   5.069  18.442  0.00  0.00    +0.000 A 
ATOM     24  S   UNL     1      53.370   4.599  18.480  0.00  0.00    +0.000 S 
ATOM     25  C   UNL     1      52.992   3.023  17.962  0.00  0.00    +0.000 A 
ATOM     26  N   UNL     1      53.960   2.078  17.812  0.00  0.00    +0.000 NA
ATOM     27  C   UNL     1      53.521   0.916  17.459  0.00  0.00    +0.000 A 
ATOM     28  N   UNL     1      52.206   0.613  17.228  0.00  0.00    +0.000 N 
ATOM     29  C   UNL     1      51.207   1.554  17.287  0.00  0.00    +0.000 A 
ATOM     30  O   UNL     1      50.064   1.282  16.929  0.00  0.00    +0.000 OA
ATOM     31  C   UNL     1      51.637   2.863  17.734  0.00  0.00    +0.000 A 
ATOM     32  H   UNL     1      51.932  -0.308  16.917  0.00  0.00    +0.000 HD
ENDBRANCH  19  22
ENDBRANCH   1  20
TORSDOF 8
ENDMDL
MODEL 3
REMARK VINA RESULT:    -6.820      2.904      4.610
REMARK INTER + INTRA:         -10.797
REMARK INTER:                  -9.463
REMARK INTRA:                  -1.334
REMARK UNBOUND:                -0.986
REMARK  Name = 
REMARK  8 active torsions:
REMARK  status: ('A' for Active; 'I' for Inactive)
REMARK    1  A    between atoms: C_2  and  C_20
REMARK    2  A    between atoms: N_3  and  C_4
REMARK    3  A    between atoms: C_4  and  C_5
REMARK    4  A    between atoms: C_8  and  C_9
REMARK    5  A    between atoms: C_9  and  C_10
REMARK    6  A    between atoms: C_10  and  O_11
REMARK    7  A    between atoms: C_10  and  C_12
REMARK    8  A    between atoms: C_12  and  N_13
REMARK                            x       y       z     vdW  Elec       q    Type
REMARK                         _______ _______ _______ _____ _____    ______ ____
ROOT
ATOM      1  C   UNL     1      47.171   5.034  14.916  0.00  0.00    +0.000 C 
ENDROOT
BRANCH   1   2
ATOM      2  C   UNL     1      46.301   4.653  13.756  0.00  0.00    +0.000 A 
ATOM      3  C   UNL     1      46.360   3.385  13.182  0.00  0.00    +0.000 A 
ATOM      4  C   UNL     1      45.540   3.080  12.096  0.00  0.00    +0.000 A 
ATOM      5  C   UNL     1      44.657   4.047  11.622  0.00  0.00    +0.000 A 
ATOM      6  N   UNL     1      44.568   5.279  12.176  0.00  0.00    +0.000 NA
ATOM      7  C   UNL     1      45.382   5.550  13.227  0.00  0.00    +0.000 A 
BRANCH   5   8
ATOM      8  C   UNL     1      43.745   3.750  10.451  0.00  0.00    +0.000 C 
BRANCH   8   9
ATOM      9  C   UNL     1      44.219   4.433   9.163  0.00  0.00    +0.000 C 
BRANCH   9  10
ATOM     10  O   UNL     1      45.265   5.380   9.467  0.00  0.00    +0.000 OA
ATOM     11  H   UNL     1      45.538   5.798   8.633  0.00  0.00    +0.000 HD
ENDBRANCH   9  10
BRANCH   9  12
ATOM     12  C   UNL     1      44.806   3.439   8.129  0.00  0.00    +0.000 C 
BRANCH  12  13
ATOM     13  N   UNL     1      46.225   3.054   8.241  0.00  0.00    +0.000 NA
ATOM     14  C   UNL     1      47.014   3.697   7.168  0.00  0.00    +0.000 C 
ATOM     15  C   UNL     1      46.792   2.815   5.951  0.00  0.00    +0.000 C 
ATOM     16  C   UNL     1      46.773   1.417   6.542  0.00  0.00    +0.000 C 
ATOM     17  C   UNL     1      46.466   1.614   8.027  0.00  0.00    +0.000 C 
ENDBRANCH  12  13
ENDBRANCH   9  12
ENDBRANCH   8   9
ENDBRANCH   5   8
ENDBRANCH   1   2
BRANCH   1  20
ATOM     18  O   UNL     1      49.626   6.008  15.872  0.00  0.00    +0.000 OA
ATOM     19  C   UNL     1      48.893   6.768  15.241  0.00  0.00    +0.000 C 
ATOM     20  N   UNL     1      47.657   6.388  14.795  0.00  0.00    +0.000 N 
ATOM     21  H   UNL     1      47.175   6.972  14.122  0.00  0.00    +0.000 HD
BRANCH  19  22
ATOM     22  C   UNL     1      49.277   8.155  14.976  0.00  0.00    +0.000 A 
ATOM     23  C   UNL     1      49.704   8.975  16.014  0.00  0.00    +0.000 A 
ATOM     24  S   UNL     1      50.105  10.554  15.509  0.00  0.00    +0.000 S 
ATOM     25  C   UNL     1      49.760  10.185  13.884  0.00  0.00    +0.000 A 
ATOM     26  N   UNL     1      49.926  11.112  12.901  0.00  0.00    +0.000 NA
ATOM     27  C   UNL     1      49.670  10.678  11.711  0.00  0.00    +0.000 A 
ATOM     28  N   UNL     1      49.251   9.408  11.414  0.00  0.00    +0.000 N 
ATOM     29  C   UNL     1      48.993   8.467  12.382  0.00  0.00    +0.000 A 
ATOM     30  O   UNL     1      48.477   7.391  12.091  0.00  0.00    +0.000 OA
ATOM     31  C   UNL     1      49.317   8.885  13.730  0.00  0.00    +0.000 A 
ATOM     32  H   UNL     1      49.032   9.142  10.466  0.00  0.00    +0.000 HD
ENDBRANCH  19  22
ENDBRANCH   1  20
TORSDOF 8
ENDMDL
MODEL 4
REMARK VINA RESULT:    -6.702      3.278      8.799
REMARK INTER + INTRA:         -10.627
REMARK INTER:                  -9.250
REMARK INTRA:                  -1.376
REMARK UNBOUND:                -0.986
REMARK  Name = 
REMARK  8 active torsions:
REMARK  status: ('A' for Active; 'I' for Inactive)
REMARK    1  A    between atoms: C_2  and  C_20
REMARK    2  A    between atoms: N_3  and  C_4
REMARK    3  A    between atoms: C_4  and  C_5
REMARK    4  A    between atoms: C_8  and  C_9
REMARK    5  A    between atoms: C_9  and  C_10
REMARK    6  A    between atoms: C_10  and  O_11
REMARK    7  A    between atoms: C_10  and  C_12
REMARK    8  A    between atoms: C_12  and  N_13
REMARK                            x       y       z     vdW  Elec       q    Type
REMARK                         _______ _______ _______ _____ _____    ______ ____
ROOT
ATOM      1  C   UNL     1      47.571   7.837  11.869  0.00  0.00    +0.000 C 
ENDROOT
BRANCH   1   2
ATOM      2  C   UNL     1      48.240   7.931  13.207  0.00  0.00    +0.000 A 
ATOM      3  C   UNL     1      47.649   8.599  14.277  0.00  0.00    +0.000 A 
ATOM      4  C   UNL     1      48.315   8.671  15.500  0.00  0.00    +0.000 A 
ATOM      5  C   UNL     1      49.553   8.048  15.634  0.00  0.00    +0.000 A 
ATOM      6  N   UNL     1      50.139   7.376  14.615  0.00  0.00    +0.000 NA
ATOM      7  C   UNL     1      49.471   7.328  13.435  0.00  0.00    +0.000 A 
BRANCH   5   8
ATOM      8  C   UNL     1      50.302   8.097  16.949  0.00  0.00    +0.000 C 
BRANCH   8   9
ATOM      9  C   UNL     1      50.791   6.711  17.386  0.00  0.00    +0.000 C 
BRANCH   9  10
ATOM     10  O   UNL     1      51.591   6.828  18.582  0.00  0.00    +0.000 OA
ATOM     11  H   UNL     1      51.187   6.269  19.266  0.00  0.00    +0.000 HD
ENDBRANCH   9  10
BRANCH   9  12
ATOM     12  C   UNL     1      49.633   5.736  17.721  0.00  0.00    +0.000 C 
BRANCH  12  13
ATOM     13  N   UNL     1      49.329   4.645  16.776  0.00  0.00    +0.000 NA
ATOM     14  C   UNL     1      47.950   4.787  16.261  0.00  0.00    +0.000 C 
ATOM     15  C   UNL     1      47.073   4.193  17.349  0.00  0.00    +0.000 C 
ATOM     16  C   UNL     1      47.890   3.011  17.839  0.00  0.00    +0.000 C 
ATOM     17  C   UNL     1      49.325   3.308  17.399  0.00  0.00    +0.000 C 
ENDBRANCH  12  13
ENDBRANCH   9  12
ENDBRANCH   8   9
ENDBRANCH   5   8
ENDBRANCH   1   2
BRANCH   1  20
ATOM     18  O   UNL     1      44.782   7.521  11.964  0.00  0.00    +0.000 OA
ATOM     19  C   UNL     1      45.481   6.538  11.725  0.00  0.00    +0.000 C 
ATOM     20  N   UNL     1      46.847   6.596  11.722  0.00  0.00    +0.000 N 
ATOM     21  H   UNL     1      47.373   5.822  11.335  0.00  0.00    +0.000 HD
BRANCH  19  22
ATOM     22  C   UNL     1      44.891   5.221  11.486  0.00  0.00    +0.000 A 
ATOM     23  C   UNL     1      44.136   4.600  12.474  0.00  0.00    +0.000 A 
ATOM     24  S   UNL     1      43.534   3.074  12.009  0.00  0.00    +0.000 S 
ATOM     25  C   UNL     1      44.228   3.206  10.461  0.00  0.00    +0.000 A 
ATOM     26  N   UNL     1      44.065   2.227   9.529  0.00  0.00    +0.000 NA
ATOM     27  C   UNL     1      44.608   2.485   8.385  0.00  0.00    +0.000 A 
ATOM     28  N   UNL     1      45.309   3.623   8.090  0.00  0.00    +0.000 N 
ATOM     29  C   UNL     1      45.567   4.598   9.023  0.00  0.00    +0.000 A 
ATOM     30  O   UNL     1      46.324   5.531   8.766  0.00  0.00    +0.000 OA
ATOM     31  C   UNL     1      44.934   4.385  10.308  0.00  0.00    +0.000 A 
ATOM     32  H   UNL     1      45.741   3.747   7.186  0.00  0.00    +0.000 HD
ENDBRANCH  19  22
ENDBRANCH   1  20
TORSDOF 8
ENDMDL
MODEL 5
REMARK VINA RESULT:    -6.659      3.336      8.235
REMARK INTER + INTRA:         -10.566
REMARK INTER:                  -9.201
REMARK INTRA:                  -1.364
REMARK UNBOUND:                -0.986
REMARK  Name = 
REMARK  8 active torsions:
REMARK  status: ('A' for Active; 'I' for Inactive)
REMARK    1  A    between atoms: C_2  and  C_20
REMARK    2  A    between atoms: N_3  and  C_4
REMARK    3  A    between atoms: C_4  and  C_5
REMARK    4  A    between atoms: C_8  and  C_9
REMARK    5  A    between atoms: C_9  and  C_10
REMARK    6  A    between atoms: C_10  and  O_11
REMARK    7  A    between atoms: C_10  and  C_12
REMARK    8  A    between atoms: C_12  and  N_13
REMARK                            x       y       z     vdW  Elec       q    Type
REMARK                         _______ _______ _______ _____ _____    ______ ____
ROOT
ATOM      1  C   UNL     1      48.173   8.270  12.066  0.00  0.00    +0.000 C 
ENDROOT
BRANCH   1   2
ATOM      2  C   UNL     1      48.557   8.070  13.502  0.00  0.00    +0.000 A 
ATOM      3  C   UNL     1      49.623   7.250  13.868  0.00  0.00    +0.000 A 
ATOM      4  C   UNL     1      49.935   7.084  15.216  0.00  0.00    +0.000 A 
ATOM      5  C   UNL     1      49.187   7.765  16.173  0.00  0.00    +0.000 A 
ATOM      6  N   UNL     1      48.159   8.582  15.841  0.00  0.00    +0.000 NA
ATOM      7  C   UNL     1      47.873   8.719  14.522  0.00  0.00    +0.000 A 
BRANCH   5   8
ATOM      8  C   UNL     1      49.502   7.616  17.646  0.00  0.00    +0.000 C 
BRANCH   8   9
ATOM      9  C   UNL     1      48.385   6.888  18.404  0.00  0.00    +0.000 C 
BRANCH   9  10
ATOM     10  O   UNL     1      47.263   7.776  18.596  0.00  0.00    +0.000 OA
ATOM     11  H   UNL     1      46.691   7.704  17.813  0.00  0.00    +0.000 HD
ENDBRANCH   9  10
BRANCH   9  12
ATOM     12  C   UNL     1      47.847   5.647  17.647  0.00  0.00    +0.000 C 
BRANCH  12  13
ATOM     13  N   UNL     1      47.841   4.343  18.336  0.00  0.00    +0.000 NA
ATOM     14  C   UNL     1      49.202   4.011  18.809  0.00  0.00    +0.000 C 
ATOM     15  C   UNL     1      49.905   3.448  17.585  0.00  0.00    +0.000 C 
ATOM     16  C   UNL     1      48.812   2.649  16.901  0.00  0.00    +0.000 C 
ATOM     17  C   UNL     1      47.500   3.210  17.454  0.00  0.00    +0.000 C 
ENDBRANCH  12  13
ENDBRANCH   9  12
ENDBRANCH   8   9
ENDBRANCH   5   8
ENDBRANCH   1   2
BRANCH   1  20
ATOM     18  O   UNL     1      45.392   7.926  11.877  0.00  0.00    +0.000 OA
ATOM     19  C   UNL     1      46.129   7.051  11.425  0.00  0.00    +0.000 C 
ATOM     20  N   UNL     1      47.490   7.115  11.532  0.00  0.00    +0.000 N 
ATOM     21  H   UNL     1      48.059   6.481  10.983  0.00  0.00    +0.000 HD
BRANCH  19  22
ATOM     22  C   UNL     1      45.587   5.849  10.790  0.00  0.00    +0.000 A 
ATOM     23  C   UNL     1      45.859   5.577   9.454  0.00  0.00    +0.000 A 
ATOM     24  S   UNL     1      45.139   4.136   8.897  0.00  0.00    +0.000 S 
ATOM     25  C   UNL     1      44.473   3.806  10.427  0.00  0.00    +0.000 A 
ATOM     26  N   UNL     1      43.744   2.678  10.651  0.00  0.00    +0.000 NA
ATOM     27  C   UNL     1      43.341   2.537  11.870  0.00  0.00    +0.000 A 
ATOM     28  N   UNL     1      43.588   3.424  12.884  0.00  0.00    +0.000 N 
ATOM     29  C   UNL     1      44.248   4.612  12.684  0.00  0.00    +0.000 A 
ATOM     30  O   UNL     1      44.320   5.450  13.580  0.00  0.00    +0.000 OA
ATOM     31  C   UNL     1      44.770   4.795  11.346  0.00  0.00    +0.000 A 
ATOM     32  H   UNL     1      43.213   3.273  13.808  0.00  0.00    +0.000 HD
ENDBRANCH  19  22
ENDBRANCH   1  20
TORSDOF 8
ENDMDL
MODEL 6
REMARK VINA RESULT:    -6.634      2.173      2.479
REMARK INTER + INTRA:         -10.529
REMARK INTER:                  -9.364
REMARK INTRA:                  -1.165
REMARK UNBOUND:                -0.986
REMARK  Name = 
REMARK  8 active torsions:
REMARK  status: ('A' for Active; 'I' for Inactive)
REMARK    1  A    between atoms: C_2  and  C_20
REMARK    2  A    between atoms: N_3  and  C_4
REMARK    3  A    between atoms: C_4  and  C_5
REMARK    4  A    between atoms: C_8  and  C_9
REMARK    5  A    between atoms: C_9  and  C_10
REMARK    6  A    between atoms: C_10  and  O_11
REMARK    7  A    between atoms: C_10  and  C_12
REMARK    8  A    between atoms: C_12  and  N_13
REMARK                            x       y       z     vdW  Elec       q    Type
REMARK                         _______ _______ _______ _____ _____    ______ ____
ROOT
ATOM      1  C   UNL     1      48.811   7.516  12.666  0.00  0.00    +0.000 C 
ENDROOT
BRANCH   1   2
ATOM      2  C   UNL     1      47.538   6.725  12.699  0.00  0.00    +0.000 A 
ATOM      3  C   UNL     1      47.458   5.490  13.340  0.00  0.00    +0.000 A 
ATOM      4  C   UNL     1      46.256   4.784  13.333  0.00  0.00    +0.000 A 
ATOM      5  C   UNL     1      45.146   5.344  12.705  0.00  0.00    +0.000 A 
ATOM      6  N   UNL     1      45.193   6.551  12.093  0.00  0.00    +0.000 NA
ATOM      7  C   UNL     1      46.378   7.212  12.109  0.00  0.00    +0.000 A 
BRANCH   5   8
ATOM      8  C   UNL     1      43.821   4.611  12.685  0.00  0.00    +0.000 C 
BRANCH   8   9
ATOM      9  C   UNL     1      43.364   4.284  11.258  0.00  0.00    +0.000 C 
BRANCH   9  10
ATOM     10  O   UNL     1      43.052   5.504  10.552  0.00  0.00    +0.000 OA
ATOM     11  H   UNL     1      42.278   5.332   9.990  0.00  0.00    +0.000 HD
ENDBRANCH   9  10
BRANCH   9  12
ATOM     12  C   UNL     1      44.449   3.554  10.426  0.00  0.00    +0.000 C 
BRANCH  12  13
ATOM     13  N   UNL     1      44.115   3.110   9.060  0.00  0.00    +0.000 NA
ATOM     14  C   UNL     1      44.491   1.692   8.879  0.00  0.00    +0.000 C 
ATOM     15  C   UNL     1      45.982   1.726   8.587  0.00  0.00    +0.000 C 
ATOM     16  C   UNL     1      46.131   2.966   7.724  0.00  0.00    +0.000 C 
ATOM     17  C   UNL     1      44.884   3.804   8.009  0.00  0.00    +0.000 C 
ENDBRANCH  12  13
ENDBRANCH   9  12
ENDBRANCH   8   9
ENDBRANCH   5   8
ENDBRANCH   1   2
BRANCH   1  20
ATOM     18  O   UNL     1      49.480   8.745  15.102  0.00  0.00    +0.000 OA
ATOM     19  C   UNL     1      49.993   7.661  14.824  0.00  0.00    +0.000 C 
ATOM     20  N   UNL     1      49.765   7.028  13.634  0.00  0.00    +0.000 N 
ATOM     21  H   UNL     1      50.048   6.061  13.527  0.00  0.00    +0.000 HD
BRANCH  19  22
ATOM     22  C   UNL     1      50.931   7.004  15.735  0.00  0.00    +0.000 A 
ATOM     23  C   UNL     1      52.293   7.270  15.652  0.00  0.00    +0.000 A 
ATOM     24  S   UNL     1      53.222   6.410  16.794  0.00  0.00    +0.000 S 
ATOM     25  C   UNL     1      51.836   5.683  17.463  0.00  0.00    +0.000 A 
ATOM     26  N   UNL     1      51.927   4.834  18.522  0.00  0.00    +0.000 NA
ATOM     27  C   UNL     1      50.791   4.395  18.953  0.00  0.00    +0.000 A 
ATOM     28  N   UNL     1      49.573   4.717  18.415  0.00  0.00    +0.000 N 
ATOM     29  C   UNL     1      49.441   5.504  17.297  0.00  0.00    +0.000 A 
ATOM     30  O   UNL     1      48.348   5.649  16.755  0.00  0.00    +0.000 OA
ATOM     31  C   UNL     1      50.681   6.068  16.807  0.00  0.00    +0.000 A 
ATOM     32  H   UNL     1      48.723   4.310  18.776  0.00  0.00    +0.000 HD
ENDBRANCH  19  22
ENDBRANCH   1  20
TORSDOF 8
ENDMDL
MODEL 7
REMARK VINA RESULT:    -6.562      4.936      9.306
REMARK INTER + INTRA:         -10.425
REMARK INTER:                  -9.346
REMARK INTRA:                  -1.079
REMARK UNBOUND:                -0.986
REMARK  Name = 
REMARK  8 active torsions:
REMARK  status: ('A' for Active; 'I' for Inactive)
REMARK    1  A    between atoms: C_2  and  C_20
REMARK    2  A    between atoms: N_3  and  C_4
REMARK    3  A    between atoms: C_4  and  C_5
REMARK    4  A    between atoms: C_8  and  C_9
REMARK    5  A    between atoms: C_9  and  C_10
REMARK    6  A    between atoms: C_10  and  O_11
REMARK    7  A    between atoms: C_10  and  C_12
REMARK    8  A    between atoms: C_12  and  N_13
REMARK                            x       y       z     vdW  Elec       q    Type
REMARK                         _______ _______ _______ _____ _____    ______ ____
ROOT
ATOM      1  C   UNL     1      47.400   3.817  16.691  0.00  0.00    +0.000 C 
ENDROOT
BRANCH   1   2
ATOM      2  C   UNL     1      48.843   4.113  16.970  0.00  0.00    +0.000 A 
ATOM      3  C   UNL     1      49.287   5.406  17.238  0.00  0.00    +0.000 A 
ATOM      4  C   UNL     1      50.641   5.635  17.479  0.00  0.00    +0.000 A 
ATOM      5  C   UNL     1      51.522   4.557  17.471  0.00  0.00    +0.000 A 
ATOM      6  N   UNL     1      51.111   3.289  17.232  0.00  0.00    +0.000 NA
ATOM      7  C   UNL     1      49.790   3.097  16.995  0.00  0.00    +0.000 A 
BRANCH   5   8
ATOM      8  C   UNL     1      52.998   4.766  17.737  0.00  0.00    +0.000 C 
BRANCH   8   9
ATOM      9  C   UNL     1      53.487   3.957  18.945  0.00  0.00    +0.000 C 
BRANCH   9  10
ATOM     10  O   UNL     1      52.356   3.475  19.702  0.00  0.00    +0.000 OA
ATOM     11  H   UNL     1      52.008   4.219  20.221  0.00  0.00    +0.000 HD
ENDBRANCH   9  10
BRANCH   9  12
ATOM     12  C   UNL     1      54.317   2.711  18.545  0.00  0.00    +0.000 C 
BRANCH  12  13
ATOM     13  N   UNL     1      53.845   1.378  18.966  0.00  0.00    +0.000 NA
ATOM     14  C   UNL     1      54.988   0.545  19.394  0.00  0.00    +0.000 C 
ATOM     15  C   UNL     1      55.578   0.011  18.099  0.00  0.00    +0.000 C 
ATOM     16  C   UNL     1      54.348  -0.256  17.250  0.00  0.00    +0.000 C 
ATOM     17  C   UNL     1      53.239   0.593  17.874  0.00  0.00    +0.000 C 
ENDBRANCH  12  13
ENDBRANCH   9  12
ENDBRANCH   8   9
ENDBRANCH   5   8
ENDBRANCH   1   2
BRANCH   1  20
ATOM     18  O   UNL     1      47.220   3.315  13.934  0.00  0.00    +0.000 OA
ATOM     19  C   UNL     1      46.755   4.365  14.377  0.00  0.00    +0.000 C 
ATOM     20  N   UNL     1      46.856   4.710  15.695  0.00  0.00    +0.000 N 
ATOM     21  H   UNL     1      46.298   5.478  16.049  0.00  0.00    +0.000 HD
BRANCH  19  22
ATOM     22  C   UNL     1      46.110   5.343  13.501  0.00  0.00    +0.000 A 
ATOM     23  C   UNL     1      46.764   6.522  13.163  0.00  0.00    +0.000 A 
ATOM     24  S   UNL     1      45.852   7.533  12.137  0.00  0.00    +0.000 S 
ATOM     25  C   UNL     1      44.570   6.416  12.077  0.00  0.00    +0.000 A 
ATOM     26  N   UNL     1      43.458   6.658  11.331  0.00  0.00    +0.000 NA
ATOM     27  C   UNL     1      42.588   5.703  11.344  0.00  0.00    +0.000 A 
ATOM     28  N   UNL     1      42.721   4.534  12.043  0.00  0.00    +0.000 N 
ATOM     29  C   UNL     1      43.787   4.283  12.873  0.00  0.00    +0.000 A 
ATOM     30  O   UNL     1      43.801   3.292  13.599  0.00  0.00    +0.000 OA
ATOM     31  C   UNL     1      44.820   5.299  12.852  0.00  0.00    +0.000 A 
ATOM     32  H   UNL     1      41.987   3.841  12.041  0.00  0.00    +0.000 HD
ENDBRANCH  19  22
ENDBRANCH   1  20
TORSDOF 8
ENDMDL
MODEL 8
REMARK VINA RESULT:    -6.447      4.413      8.892
REMARK INTER + INTRA:         -10.260
REMARK INTER:                  -8.832
REMARK INTRA:                  -1.428
REMARK UNBOUND:                -0.986
REMARK  Name = 
REMARK  8 active torsions:
REMARK  status: ('A' for Active; 'I' for Inactive)
REMARK    1  A    between atoms: C_2  and  C_20
REMARK    2  A    between atoms: N_3  and  C_4
REMARK    3  A    between atoms: C_4  and  C_5
REMARK    4  A    between atoms: C_8  and  C_9
REMARK    5  A    between atoms: C_9  and  C_10
REMARK    6  A    between atoms: C_10  and  O_11
REMARK    7  A    between atoms: C_10  and  C_12
REMARK    8  A    between atoms: C_12  and  N_13
REMARK                            x       y       z     vdW  Elec       q    Type
REMARK                         _______ _______ _______ _____ _____    ______ ____
ROOT
ATOM      1  C   UNL     1      47.146   3.660  16.785  0.00  0.00    +0.000 C 
ENDROOT
BRANCH   1   2
ATOM      2  C   UNL     1      48.569   3.276  17.058  0.00  0.00    +0.000 A 
ATOM      3  C   UNL     1      49.400   4.061  17.855  0.00  0.00    +0.000 A 
ATOM      4  C   UNL     1      50.721   3.670  18.070  0.00  0.00    +0.000 A 
ATOM      5  C   UNL     1      51.176   2.483  17.503  0.00  0.00    +0.000 A 
ATOM      6  N   UNL     1      50.382   1.693  16.742  0.00  0.00    +0.000 NA
ATOM      7  C   UNL     1      49.104   2.102  16.543  0.00  0.00    +0.000 A 
BRANCH   5   8
ATOM      8  C   UNL     1      52.601   2.021  17.722  0.00  0.00    +0.000 C 
BRANCH   8   9
ATOM      9  C   UNL     1      53.404   3.011  18.576  0.00  0.00    +0.000 C 
BRANCH   9  10
ATOM     10  O   UNL     1      53.919   2.342  19.747  0.00  0.00    +0.000 OA
ATOM     11  H   UNL     1      53.919   2.982  20.478  0.00  0.00    +0.000 HD
ENDBRANCH   9  10
BRANCH   9  12
ATOM     12  C   UNL     1      54.625   3.605  17.829  0.00  0.00    +0.000 C 
BRANCH  12  13
ATOM     13  N   UNL     1      54.917   5.043  17.979  0.00  0.00    +0.000 NA
ATOM     14  C   UNL     1      53.658   5.815  18.048  0.00  0.00    +0.000 C 
ATOM     15  C   UNL     1      53.228   5.975  16.600  0.00  0.00    +0.000 C 
ATOM     16  C   UNL     1      54.545   6.185  15.875  0.00  0.00    +0.000 C 
ATOM     17  C   UNL     1      55.614   5.629  16.818  0.00  0.00    +0.000 C 
ENDBRANCH  12  13
ENDBRANCH   9  12
ENDBRANCH   8   9
ENDBRANCH   5   8
ENDBRANCH   1   2
BRANCH   1  20
ATOM     18  O   UNL     1      47.123   3.244  14.008  0.00  0.00    +0.000 OA
ATOM     19  C   UNL     1      46.995   4.390  14.436  0.00  0.00    +0.000 C 
ATOM     20  N   UNL     1      47.056   4.683  15.770  0.00  0.00    +0.000 N 
ATOM     21  H   UNL     1      46.756   5.597  16.089  0.00  0.00    +0.000 HD
BRANCH  19  22
ATOM     22  C   UNL     1      46.826   5.528  13.532  0.00  0.00    +0.000 A 
ATOM     23  C   UNL     1      45.753   5.570  12.650  0.00  0.00    +0.000 A 
ATOM     24  S   UNL     1      45.728   6.972  11.679  0.00  0.00    +0.000 S 
ATOM     25  C   UNL     1      47.126   7.588  12.429  0.00  0.00    +0.000 A 
ATOM     26  N   UNL     1      47.640   8.798  12.078  0.00  0.00    +0.000 NA
ATOM     27  C   UNL     1      48.675   9.157  12.763  0.00  0.00    +0.000 A 
ATOM     28  N   UNL     1      49.252   8.413  13.757  0.00  0.00    +0.000 N 
ATOM     29  C   UNL     1      48.817   7.152  14.087  0.00  0.00    +0.000 A 
ATOM     30  O   UNL     1      49.448   6.456  14.877  0.00  0.00    +0.000 OA
ATOM     31  C   UNL     1      47.623   6.724  13.388  0.00  0.00    +0.000 A 
ATOM     32  H   UNL     1      50.084   8.734  14.230  0.00  0.00    +0.000 HD
ENDBRANCH  19  22
ENDBRANCH   1  20
TORSDOF 8
ENDMDL
MODEL 9
REMARK VINA RESULT:    -6.393      1.871      2.441
REMARK INTER + INTRA:         -10.183
REMARK INTER:                  -9.306
REMARK INTRA:                  -0.877
REMARK UNBOUND:                -0.986
REMARK  Name = 
REMARK  8 active torsions:
REMARK  status: ('A' for Active; 'I' for Inactive)
REMARK    1  A    between atoms: C_2  and  C_20
REMARK    2  A    between atoms: N_3  and  C_4
REMARK    3  A    between atoms: C_4  and  C_5
REMARK    4  A    between atoms: C_8  and  C_9
REMARK    5  A    between atoms: C_9  and  C_10
REMARK    6  A    between atoms: C_10  and  O_11
REMARK    7  A    between atoms: C_10  and  C_12
REMARK    8  A    between atoms: C_12  and  N_13
REMARK                            x       y       z     vdW  Elec       q    Type
REMARK                         _______ _______ _______ _____ _____    ______ ____
ROOT
ATOM      1  C   UNL     1      47.467   4.298  15.713  0.00  0.00    +0.000 C 
ENDROOT
BRANCH   1   2
ATOM      2  C   UNL     1      46.906   4.646  14.367  0.00  0.00    +0.000 A 
ATOM      3  C   UNL     1      46.135   3.743  13.638  0.00  0.00    +0.000 A 
ATOM      4  C   UNL     1      45.646   4.107  12.384  0.00  0.00    +0.000 A 
ATOM      5  C   UNL     1      45.917   5.382  11.896  0.00  0.00    +0.000 A 
ATOM      6  N   UNL     1      46.646   6.284  12.594  0.00  0.00    +0.000 NA
ATOM      7  C   UNL     1      47.116   5.900  13.808  0.00  0.00    +0.000 A 
BRANCH   5   8
ATOM      8  C   UNL     1      45.394   5.816  10.543  0.00  0.00    +0.000 C 
BRANCH   8   9
ATOM      9  C   UNL     1      45.019   4.621   9.659  0.00  0.00    +0.000 C 
BRANCH   9  10
ATOM     10  O   UNL     1      43.656   4.758   9.203  0.00  0.00    +0.000 OA
ATOM     11  H   UNL     1      43.368   3.893   8.865  0.00  0.00    +0.000 HD
ENDBRANCH   9  10
BRANCH   9  12
ATOM     12  C   UNL     1      45.902   4.502   8.391  0.00  0.00    +0.000 C 
BRANCH  12  13
ATOM     13  N   UNL     1      45.486   3.578   7.320  0.00  0.00    +0.000 NA
ATOM     14  C   UNL     1      45.184   2.246   7.886  0.00  0.00    +0.000 C 
ATOM     15  C   UNL     1      46.541   1.579   8.039  0.00  0.00    +0.000 C 
ATOM     16  C   UNL     1      47.291   2.046   6.805  0.00  0.00    +0.000 C 
ATOM     17  C   UNL     1      46.548   3.298   6.335  0.00  0.00    +0.000 C 
ENDBRANCH  12  13
ENDBRANCH   9  12
ENDBRANCH   8   9
ENDBRANCH   5   8
ENDBRANCH   1   2
BRANCH   1  20
ATOM     18  O   UNL     1      49.987   4.550  16.927  0.00  0.00    +0.000 OA
ATOM     19  C   UNL     1      49.235   5.524  16.915  0.00  0.00    +0.000 C 
ATOM     20  N   UNL     1      47.971   5.465  16.398  0.00  0.00    +0.000 N 
ATOM     21  H   UNL     1      47.464   6.327  16.234  0.00  0.00    +0.000 HD
BRANCH  19  22
ATOM     22  C   UNL     1      49.630   6.801  17.510  0.00  0.00    +0.000 A 
ATOM     23  C   UNL     1      50.750   7.477  17.041  0.00  0.00    +0.000 A 
ATOM     24  S   UNL     1      51.049   8.942  17.860  0.00  0.00    +0.000 S 
ATOM     25  C   UNL     1      49.675   8.743  18.843  0.00  0.00    +0.000 A 
ATOM     26  N   UNL     1      49.326   9.679  19.767  0.00  0.00    +0.000 NA
ATOM     27  C   UNL     1      48.235   9.417  20.407  0.00  0.00    +0.000 A 
ATOM     28  N   UNL     1      47.466   8.300  20.217  0.00  0.00    +0.000 N 
ATOM     29  C   UNL     1      47.823   7.292  19.355  0.00  0.00    +0.000 A 
ATOM     30  O   UNL     1      47.190   6.239  19.320  0.00  0.00    +0.000 OA
ATOM     31  C   UNL     1      49.010   7.561  18.571  0.00  0.00    +0.000 A 
ATOM     32  H   UNL     1      46.642   8.135  20.777  0.00  0.00    +0.000 HD
ENDBRANCH  19  22
ENDBRANCH   1  20
TORSDOF 8
ENDMDL
