MODEL 1
REMARK VINA RESULT:    -7.956      0.000      0.000
REMARK INTER + INTRA:         -10.135
REMARK INTER:                  -9.816
REMARK INTRA:                  -0.319
REMARK UNBOUND:                -0.319
REMARK  Name = 
REMARK  7 active torsions:
REMARK  status: ('A' for Active; 'I' for Inactive)
REMARK    1  A    between atoms: C_1  and  N_2
REMARK    2  A    between atoms: N_2  and  C_3
REMARK    3  A    between atoms: C_4  and  C_6
REMARK    4  A    between atoms: N_10  and  C_11
REMARK    5  A    between atoms: N_10  and  C_12
REMARK    6  A    between atoms: C_12  and  C_13
REMARK    7  A    between atoms: C_13  and  C_14
REMARK                            x       y       z     vdW  Elec       q    Type
REMARK                         _______ _______ _______ _____ _____    ______ ____
ROOT
ATOM      1  C   UNL     1      46.983   6.037  12.671  0.00  0.00    +0.000 A 
ATOM      2  C   UNL     1      46.492   4.943  13.373  0.00  0.00    +0.000 A 
ATOM      3  C   UNL     1      45.568   4.093  12.767  0.00  0.00    +0.000 A 
ATOM      4  C   UNL     1      45.086   4.348  11.482  0.00  0.00    +0.000 A 
ATOM      5  N   UNL     1      44.081   3.590  10.891  0.00  0.00    +0.000 N 
ATOM      6  C   UNL     1      43.299   2.645  11.673  0.00  0.00    +0.000 C 
ATOM      7  N   UNL     1      45.558   5.420  10.802  0.00  0.00    +0.000 NA
ATOM      8  C   UNL     1      46.463   6.241  11.403  0.00  0.00    +0.000 A 
ENDROOT
BRANCH   1  12
ATOM      9  C   UNL     1      48.633   9.236  13.925  0.00  0.00    +0.000 C 
ATOM     10  N   UNL     1      47.603   8.356  13.396  0.00  0.00    +0.000 N 
ATOM     11  C   UNL     1      46.251   8.895  13.327  0.00  0.00    +0.000 C 
ATOM     12  C   UNL     1      47.952   7.013  13.219  0.00  0.00    +0.000 C 
ATOM     13  O   UNL     1      49.070   6.585  13.512  0.00  0.00    +0.000 OA
ENDBRANCH   1  12
BRANCH   5  14
ATOM     14  C   UNL     1      44.223   3.358   9.440  0.00  0.00    +0.000 C 
BRANCH  14  15
ATOM     15  C   UNL     1      44.941   2.037   9.131  0.00  0.00    +0.000 C 
BRANCH  15  16
ATOM     16  C   UNL     1      45.925   2.153   8.000  0.00  0.00    +0.000 A 
ATOM     17  C   UNL     1      45.951   3.275   7.167  0.00  0.00    +0.000 A 
ATOM     18  C   UNL     1      46.866   3.337   6.126  0.00  0.00    +0.000 A 
ATOM     19  C   UNL     1      47.737   2.275   5.947  0.00  0.00    +0.000 A 
ATOM     20  N   UNL     1      47.750   1.178   6.735  0.00  0.00    +0.000 NA
ATOM     21  C   UNL     1      46.849   1.141   7.741  0.00  0.00    +0.000 A 
ENDBRANCH  15  16
ENDBRANCH  14  15
ENDBRANCH   5  14
TORSDOF 4
ENDMDL
MODEL 2
REMARK VINA RESULT:    -7.050      1.814      2.186
REMARK INTER + INTRA:          -9.018
REMARK INTER:                  -9.388
REMARK INTRA:                   0.370
REMARK UNBOUND:                -0.319
REMARK  Name = 
REMARK  7 active torsions:
REMARK  status: ('A' for Active; 'I' for Inactive)
REMARK    1  A    between atoms: C_1  and  N_2
REMARK    2  A    between atoms: N_2  and  C_3
REMARK    3  A    between atoms: C_4  and  C_6
REMARK    4  A    between atoms: N_10  and  C_11
REMARK    5  A    between atoms: N_10  and  C_12
REMARK    6  A    between atoms: C_12  and  C_13
REMARK    7  A    between atoms: C_13  and  C_14
REMARK                            x       y       z     vdW  Elec       q    Type
REMARK                         _______ _______ _______ _____ _____    ______ ____
ROOT
ATOM      1  C   UNL     1      47.471   5.897  13.811  0.00  0.00    +0.000 A 
ATOM      2  C   UNL     1      46.545   4.882  14.020  0.00  0.00    +0.000 A 
ATOM      3  C   UNL     1      45.665   4.530  12.997  0.00  0.00    +0.000 A 
ATOM      4  C   UNL     1      45.662   5.214  11.780  0.00  0.00    +0.000 A 
ATOM      5  N   UNL     1      44.726   4.969  10.782  0.00  0.00    +0.000 N 
ATOM      6  C   UNL     1      43.543   4.164  11.047  0.00  0.00    +0.000 C 
ATOM      7  N   UNL     1      46.558   6.210  11.581  0.00  0.00    +0.000 NA
ATOM      8  C   UNL     1      47.415   6.542  12.587  0.00  0.00    +0.000 A 
ENDROOT
BRANCH   1  12
ATOM      9  C   UNL     1      49.447   6.345  17.040  0.00  0.00    +0.000 C 
ATOM     10  N   UNL     1      48.469   5.803  16.110  0.00  0.00    +0.000 N 
ATOM     11  C   UNL     1      47.782   4.584  16.516  0.00  0.00    +0.000 C 
ATOM     12  C   UNL     1      48.440   6.364  14.829  0.00  0.00    +0.000 C 
ATOM     13  O   UNL     1      49.216   7.261  14.491  0.00  0.00    +0.000 OA
ENDBRANCH   1  12
BRANCH   5  14
ATOM     14  C   UNL     1      45.231   5.047   9.397  0.00  0.00    +0.000 C 
BRANCH  14  15
ATOM     15  C   UNL     1      44.630   3.956   8.499  0.00  0.00    +0.000 C 
BRANCH  15  16
ATOM     16  C   UNL     1      45.660   2.997   7.968  0.00  0.00    +0.000 A 
ATOM     17  C   UNL     1      46.576   3.381   6.984  0.00  0.00    +0.000 A 
ATOM     18  C   UNL     1      47.502   2.462   6.512  0.00  0.00    +0.000 A 
ATOM     19  C   UNL     1      47.491   1.182   7.040  0.00  0.00    +0.000 A 
ATOM     20  N   UNL     1      46.629   0.775   7.997  0.00  0.00    +0.000 NA
ATOM     21  C   UNL     1      45.736   1.688   8.439  0.00  0.00    +0.000 A 
ENDBRANCH  15  16
ENDBRANCH  14  15
ENDBRANCH   5  14
TORSDOF 4
ENDMDL
MODEL 3
REMARK VINA RESULT:    -6.828      1.717      2.386
REMARK INTER + INTRA:          -8.744
REMARK INTER:                  -8.201
REMARK INTRA:                  -0.543
REMARK UNBOUND:                -0.319
REMARK  Name = 
REMARK  7 active torsions:
REMARK  status: ('A' for Active; 'I' for Inactive)
REMARK    1  A    between atoms: C_1  and  N_2
REMARK    2  A    between atoms: N_2  and  C_3
REMARK    3  A    between atoms: C_4  and  C_6
REMARK    4  A    between atoms: N_10  and  C_11
REMARK    5  A    between atoms: N_10  and  C_12
REMARK    6  A    between atoms: C_12  and  C_13
REMARK    7  A    between atoms: C_13  and  C_14
REMARK                            x       y       z     vdW  Elec       q    Type
REMARK                         _______ _______ _______ _____ _____    ______ ____
ROOT
ATOM      1  C   UNL     1      47.109   8.102  12.367  0.00  0.00    +0.000 A 
ATOM      2  C   UNL     1      45.823   8.229  12.877  0.00  0.00    +0.000 A 
ATOM      3  C   UNL     1      44.876   7.239  12.614  0.00  0.00    +0.000 A 
ATOM      4  C   UNL     1      45.182   6.143  11.806  0.00  0.00    +0.000 A 
ATOM      5  N   UNL     1      44.234   5.199  11.429  0.00  0.00    +0.000 N 
ATOM      6  C   UNL     1      42.815   5.434  11.648  0.00  0.00    +0.000 C 
ATOM      7  N   UNL     1      46.433   6.025  11.302  0.00  0.00    +0.000 NA
ATOM      8  C   UNL     1      47.351   6.996  11.568  0.00  0.00    +0.000 A 
ENDROOT
BRANCH   1  12
ATOM      9  C   UNL     1      49.963  10.146  13.851  0.00  0.00    +0.000 C 
ATOM     10  N   UNL     1      48.940   9.118  13.747  0.00  0.00    +0.000 N 
ATOM     11  C   UNL     1      48.953   8.074  14.762  0.00  0.00    +0.000 C 
ATOM     12  C   UNL     1      48.187   9.096  12.568  0.00  0.00    +0.000 C 
ATOM     13  O   UNL     1      48.390   9.893  11.649  0.00  0.00    +0.000 OA
ENDBRANCH   1  12
BRANCH   5  14
ATOM     14  C   UNL     1      44.715   3.804  11.351  0.00  0.00    +0.000 C 
BRANCH  14  15
ATOM     15  C   UNL     1      44.186   3.078  10.107  0.00  0.00    +0.000 C 
BRANCH  15  16
ATOM     16  C   UNL     1      45.201   2.991   9.000  0.00  0.00    +0.000 A 
ATOM     17  C   UNL     1      45.793   1.775   8.646  0.00  0.00    +0.000 A 
ATOM     18  C   UNL     1      46.735   1.741   7.628  0.00  0.00    +0.000 A 
ATOM     19  C   UNL     1      47.057   2.924   6.986  0.00  0.00    +0.000 A 
ATOM     20  N   UNL     1      46.502   4.117   7.292  0.00  0.00    +0.000 NA
ATOM     21  C   UNL     1      45.589   4.125   8.288  0.00  0.00    +0.000 A 
ENDBRANCH  15  16
ENDBRANCH  14  15
ENDBRANCH   5  14
TORSDOF 4
ENDMDL
MODEL 4
REMARK VINA RESULT:    -6.614      2.535      3.217
REMARK INTER + INTRA:          -8.480
REMARK INTER:                  -8.616
REMARK INTRA:                   0.136
REMARK UNBOUND:                -0.319
REMARK  Name = 
REMARK  7 active torsions:
REMARK  status: ('A' for Active; 'I' for Inactive)
REMARK    1  A    between atoms: C_1  and  N_2
REMARK    2  A    between atoms: N_2  and  C_3
REMARK    3  A    between atoms: C_4  and  C_6
REMARK    4  A    between atoms: N_10  and  C_11
REMARK    5  A    between atoms: N_10  and  C_12
REMARK    6  A    between atoms: C_12  and  C_13
REMARK    7  A    between atoms: C_13  and  C_14
REMARK                            x       y       z     vdW  Elec       q    Type
REMARK                         _______ _______ _______ _____ _____    ______ ____
ROOT
ATOM      1  C   UNL     1      47.058   4.394  15.003  0.00  0.00    +0.000 A 
ATOM      2  C   UNL     1      46.847   5.676  14.510  0.00  0.00    +0.000 A 
ATOM      3  C   UNL     1      46.314   5.845  13.232  0.00  0.00    +0.000 A 
ATOM      4  C   UNL     1      46.035   4.747  12.416  0.00  0.00    +0.000 A 
ATOM      5  N   UNL     1      45.614   4.879  11.097  0.00  0.00    +0.000 N 
ATOM      6  C   UNL     1      45.680   6.162  10.415  0.00  0.00    +0.000 C 
ATOM      7  N   UNL     1      46.251   3.499  12.893  0.00  0.00    +0.000 NA
ATOM      8  C   UNL     1      46.768   3.346  14.144  0.00  0.00    +0.000 A 
ENDROOT
BRANCH   1  12
ATOM      9  C   UNL     1      49.165   4.494  18.177  0.00  0.00    +0.000 C 
ATOM     10  N   UNL     1      48.660   4.880  16.870  0.00  0.00    +0.000 N 
ATOM     11  C   UNL     1      49.099   6.168  16.351  0.00  0.00    +0.000 C 
ATOM     12  C   UNL     1      47.632   4.097  16.334  0.00  0.00    +0.000 C 
ATOM     13  O   UNL     1      47.158   3.136  16.945  0.00  0.00    +0.000 OA
ENDBRANCH   1  12
BRANCH   5  14
ATOM     14  C   UNL     1      44.619   3.887  10.641  0.00  0.00    +0.000 C 
BRANCH  14  15
ATOM     15  C   UNL     1      44.435   3.910   9.117  0.00  0.00    +0.000 C 
BRANCH  15  16
ATOM     16  C   UNL     1      45.426   3.041   8.392  0.00  0.00    +0.000 A 
ATOM     17  C   UNL     1      46.236   3.552   7.373  0.00  0.00    +0.000 A 
ATOM     18  C   UNL     1      47.128   2.715   6.719  0.00  0.00    +0.000 A 
ATOM     19  C   UNL     1      47.191   1.386   7.105  0.00  0.00    +0.000 A 
ATOM     20  N   UNL     1      46.433   0.856   8.089  0.00  0.00    +0.000 NA
ATOM     21  C   UNL     1      45.571   1.692   8.709  0.00  0.00    +0.000 A 
ENDBRANCH  15  16
ENDBRANCH  14  15
ENDBRANCH   5  14
TORSDOF 4
ENDMDL
MODEL 5
REMARK VINA RESULT:    -6.523      3.060      3.937
REMARK INTER + INTRA:          -8.367
REMARK INTER:                  -8.060
REMARK INTRA:                  -0.307
REMARK UNBOUND:                -0.319
REMARK  Name = 
REMARK  7 active torsions:
REMARK  status: ('A' for Active; 'I' for Inactive)
REMARK    1  A    between atoms: C_1  and  N_2
REMARK    2  A    between atoms: N_2  and  C_3
REMARK    3  A    between atoms: C_4  and  C_6
REMARK    4  A    between atoms: N_10  and  C_11
REMARK    5  A    between atoms: N_10  and  C_12
REMARK    6  A    between atoms: C_12  and  C_13
REMARK    7  A    between atoms: C_13  and  C_14
REMARK                            x       y       z     vdW  Elec       q    Type
REMARK                         _______ _______ _______ _____ _____    ______ ____
ROOT
ATOM      1  C   UNL     1      47.891   4.630  15.769  0.00  0.00    +0.000 A 
ATOM      2  C   UNL     1      47.982   5.881  15.170  0.00  0.00    +0.000 A 
ATOM      3  C   UNL     1      47.311   6.121  13.971  0.00  0.00    +0.000 A 
ATOM      4  C   UNL     1      46.588   5.111  13.333  0.00  0.00    +0.000 A 
ATOM      5  N   UNL     1      46.004   5.281  12.082  0.00  0.00    +0.000 N 
ATOM      6  C   UNL     1      46.324   6.435  11.257  0.00  0.00    +0.000 C 
ATOM      7  N   UNL     1      46.509   3.890  13.912  0.00  0.00    +0.000 NA
ATOM      8  C   UNL     1      47.166   3.669  15.085  0.00  0.00    +0.000 A 
ENDROOT
BRANCH   1  12
ATOM      9  C   UNL     1      48.891   4.354  19.436  0.00  0.00    +0.000 C 
ATOM     10  N   UNL     1      48.143   4.767  18.260  0.00  0.00    +0.000 N 
ATOM     11  C   UNL     1      46.889   5.471  18.493  0.00  0.00    +0.000 C 
ATOM     12  C   UNL     1      48.573   4.258  17.029  0.00  0.00    +0.000 C 
ATOM     13  O   UNL     1      49.526   3.481  16.941  0.00  0.00    +0.000 OA
ENDBRANCH   1  12
BRANCH   5  14
ATOM     14  C   UNL     1      44.701   4.614  11.889  0.00  0.00    +0.000 C 
BRANCH  14  15
ATOM     15  C   UNL     1      44.195   4.737  10.445  0.00  0.00    +0.000 C 
BRANCH  15  16
ATOM     16  C   UNL     1      44.923   3.835   9.487  0.00  0.00    +0.000 A 
ATOM     17  C   UNL     1      45.586   4.344   8.366  0.00  0.00    +0.000 A 
ATOM     18  C   UNL     1      46.236   3.476   7.500  0.00  0.00    +0.000 A 
ATOM     19  C   UNL     1      46.209   2.120   7.779  0.00  0.00    +0.000 A 
ATOM     20  N   UNL     1      45.587   1.590   8.854  0.00  0.00    +0.000 NA
ATOM     21  C   UNL     1      44.961   2.455   9.683  0.00  0.00    +0.000 A 
ENDBRANCH  15  16
ENDBRANCH  14  15
ENDBRANCH   5  14
TORSDOF 4
ENDMDL
MODEL 6
REMARK VINA RESULT:    -5.850      3.513      5.034
REMARK INTER + INTRA:          -7.537
REMARK INTER:                  -7.173
REMARK INTRA:                  -0.364
REMARK UNBOUND:                -0.319
REMARK  Name = 
REMARK  7 active torsions:
REMARK  status: ('A' for Active; 'I' for Inactive)
REMARK    1  A    between atoms: C_1  and  N_2
REMARK    2  A    between atoms: N_2  and  C_3
REMARK    3  A    between atoms: C_4  and  C_6
REMARK    4  A    between atoms: N_10  and  C_11
REMARK    5  A    between atoms: N_10  and  C_12
REMARK    6  A    between atoms: C_12  and  C_13
REMARK    7  A    between atoms: C_13  and  C_14
REMARK                            x       y       z     vdW  Elec       q    Type
REMARK                         _______ _______ _______ _____ _____    ______ ____
ROOT
ATOM      1  C   UNL     1      48.669   5.921  16.722  0.00  0.00    +0.000 A 
ATOM      2  C   UNL     1      49.000   7.042  15.970  0.00  0.00    +0.000 A 
ATOM      3  C   UNL     1      48.522   7.163  14.665  0.00  0.00    +0.000 A 
ATOM      4  C   UNL     1      47.755   6.153  14.081  0.00  0.00    +0.000 A 
ATOM      5  N   UNL     1      47.359   6.186  12.748  0.00  0.00    +0.000 N 
ATOM      6  C   UNL     1      47.930   7.151  11.821  0.00  0.00    +0.000 C 
ATOM      7  N   UNL     1      47.442   5.057  14.811  0.00  0.00    +0.000 NA
ATOM      8  C   UNL     1      47.912   4.951  16.085  0.00  0.00    +0.000 A 
ENDROOT
BRANCH   1  12
ATOM      9  C   UNL     1      50.690   4.807  19.756  0.00  0.00    +0.000 C 
ATOM     10  N   UNL     1      50.334   5.008  18.360  0.00  0.00    +0.000 N 
ATOM     11  C   UNL     1      51.360   4.708  17.371  0.00  0.00    +0.000 C 
ATOM     12  C   UNL     1      49.133   5.680  18.107  0.00  0.00    +0.000 C 
ATOM     13  O   UNL     1      48.416   6.101  19.017  0.00  0.00    +0.000 OA
ENDBRANCH   1  12
BRANCH   5  14
ATOM     14  C   UNL     1      46.012   5.649  12.467  0.00  0.00    +0.000 C 
BRANCH  14  15
ATOM     15  C   UNL     1      45.541   5.981  11.044  0.00  0.00    +0.000 C 
BRANCH  15  16
ATOM     16  C   UNL     1      45.182   4.760  10.244  0.00  0.00    +0.000 A 
ATOM     17  C   UNL     1      45.532   4.643   8.895  0.00  0.00    +0.000 A 
ATOM     18  C   UNL     1      45.171   3.505   8.188  0.00  0.00    +0.000 A 
ATOM     19  C   UNL     1      44.471   2.510   8.850  0.00  0.00    +0.000 A 
ATOM     20  N   UNL     1      44.122   2.581  10.153  0.00  0.00    +0.000 NA
ATOM     21  C   UNL     1      44.485   3.699  10.819  0.00  0.00    +0.000 A 
ENDBRANCH  15  16
ENDBRANCH  14  15
ENDBRANCH   5  14
TORSDOF 4
ENDMDL
MODEL 7
REMARK VINA RESULT:    -5.794      2.119      2.858
REMARK INTER + INTRA:          -7.468
REMARK INTER:                  -7.423
REMARK INTRA:                  -0.045
REMARK UNBOUND:                -0.319
REMARK  Name = 
REMARK  7 active torsions:
REMARK  status: ('A' for Active; 'I' for Inactive)
REMARK    1  A    between atoms: C_1  and  N_2
REMARK    2  A    between atoms: N_2  and  C_3
REMARK    3  A    between atoms: C_4  and  C_6
REMARK    4  A    between atoms: N_10  and  C_11
REMARK    5  A    between atoms: N_10  and  C_12
REMARK    6  A    between atoms: C_12  and  C_13
REMARK    7  A    between atoms: C_13  and  C_14
REMARK                            x       y       z     vdW  Elec       q    Type
REMARK                         _______ _______ _______ _____ _____    ______ ____
ROOT
ATOM      1  C   UNL     1      48.249   5.960  15.129  0.00  0.00    +0.000 A 
ATOM      2  C   UNL     1      47.455   4.837  15.323  0.00  0.00    +0.000 A 
ATOM      3  C   UNL     1      46.455   4.531  14.400  0.00  0.00    +0.000 A 
ATOM      4  C   UNL     1      46.203   5.362  13.307  0.00  0.00    +0.000 A 
ATOM      5  N   UNL     1      45.143   5.152  12.432  0.00  0.00    +0.000 N 
ATOM      6  C   UNL     1      44.088   4.203  12.749  0.00  0.00    +0.000 C 
ATOM      7  N   UNL     1      46.972   6.462  13.124  0.00  0.00    +0.000 NA
ATOM      8  C   UNL     1      47.947   6.748  14.030  0.00  0.00    +0.000 A 
ENDROOT
BRANCH   1  12
ATOM      9  C   UNL     1      50.487   8.023  17.423  0.00  0.00    +0.000 C 
ATOM     10  N   UNL     1      49.380   7.699  16.538  0.00  0.00    +0.000 N 
ATOM     11  C   UNL     1      48.313   8.686  16.433  0.00  0.00    +0.000 C 
ATOM     12  C   UNL     1      49.326   6.389  16.050  0.00  0.00    +0.000 C 
ATOM     13  O   UNL     1      50.162   5.540  16.366  0.00  0.00    +0.000 OA
ENDBRANCH   1  12
BRANCH   5  14
ATOM     14  C   UNL     1      45.413   5.460  11.013  0.00  0.00    +0.000 C 
BRANCH  14  15
ATOM     15  C   UNL     1      44.489   4.682  10.065  0.00  0.00    +0.000 C 
BRANCH  15  16
ATOM     16  C   UNL     1      45.236   3.772   9.130  0.00  0.00    +0.000 A 
ATOM     17  C   UNL     1      45.199   2.383   9.280  0.00  0.00    +0.000 A 
ATOM     18  C   UNL     1      45.913   1.578   8.403  0.00  0.00    +0.000 A 
ATOM     19  C   UNL     1      46.643   2.185   7.394  0.00  0.00    +0.000 A 
ATOM     20  N   UNL     1      46.697   3.522   7.211  0.00  0.00    +0.000 NA
ATOM     21  C   UNL     1      45.995   4.284   8.078  0.00  0.00    +0.000 A 
ENDBRANCH  15  16
ENDBRANCH  14  15
ENDBRANCH   5  14
TORSDOF 4
ENDMDL
MODEL 8
REMARK VINA RESULT:    -5.699      3.526      7.845
REMARK INTER + INTRA:          -7.351
REMARK INTER:                  -6.854
REMARK INTRA:                  -0.498
REMARK UNBOUND:                -0.319
REMARK  Name = 
REMARK  7 active torsions:
REMARK  status: ('A' for Active; 'I' for Inactive)
REMARK    1  A    between atoms: C_1  and  N_2
REMARK    2  A    between atoms: N_2  and  C_3
REMARK    3  A    between atoms: C_4  and  C_6
REMARK    4  A    between atoms: N_10  and  C_11
REMARK    5  A    between atoms: N_10  and  C_12
REMARK    6  A    between atoms: C_12  and  C_13
REMARK    7  A    between atoms: C_13  and  C_14
REMARK                            x       y       z     vdW  Elec       q    Type
REMARK                         _______ _______ _______ _____ _____    ______ ____
ROOT
ATOM      1  C   UNL     1      46.492   6.256  12.286  0.00  0.00    +0.000 A 
ATOM      2  C   UNL     1      46.730   7.621  12.393  0.00  0.00    +0.000 A 
ATOM      3  C   UNL     1      47.575   8.098  13.395  0.00  0.00    +0.000 A 
ATOM      4  C   UNL     1      48.149   7.232  14.327  0.00  0.00    +0.000 A 
ATOM      5  N   UNL     1      48.902   7.681  15.406  0.00  0.00    +0.000 N 
ATOM      6  C   UNL     1      48.925   9.090  15.768  0.00  0.00    +0.000 C 
ATOM      7  N   UNL     1      47.909   5.903  14.228  0.00  0.00    +0.000 NA
ATOM      8  C   UNL     1      47.085   5.449  13.243  0.00  0.00    +0.000 A 
ENDROOT
BRANCH   1  12
ATOM      9  C   UNL     1      43.551   4.554  10.561  0.00  0.00    +0.000 C 
ATOM     10  N   UNL     1      44.339   5.154  11.625  0.00  0.00    +0.000 N 
ATOM     11  C   UNL     1      43.655   5.404  12.887  0.00  0.00    +0.000 C 
ATOM     12  C   UNL     1      45.602   5.642  11.275  0.00  0.00    +0.000 C 
ATOM     13  O   UNL     1      46.025   5.587  10.118  0.00  0.00    +0.000 OA
ENDBRANCH   1  12
BRANCH   5  14
ATOM     14  C   UNL     1      50.057   6.838  15.777  0.00  0.00    +0.000 C 
BRANCH  14  15
ATOM     15  C   UNL     1      49.967   6.335  17.224  0.00  0.00    +0.000 C 
BRANCH  15  16
ATOM     16  C   UNL     1      49.134   5.091  17.363  0.00  0.00    +0.000 A 
ATOM     17  C   UNL     1      49.698   3.817  17.243  0.00  0.00    +0.000 A 
ATOM     18  C   UNL     1      48.893   2.694  17.366  0.00  0.00    +0.000 A 
ATOM     19  C   UNL     1      47.541   2.874  17.610  0.00  0.00    +0.000 A 
ATOM     20  N   UNL     1      46.960   4.086  17.742  0.00  0.00    +0.000 NA
ATOM     21  C   UNL     1      47.765   5.164  17.617  0.00  0.00    +0.000 A 
ENDBRANCH  15  16
ENDBRANCH  14  15
ENDBRANCH   5  14
TORSDOF 4
ENDMDL
MODEL 9
REMARK VINA RESULT:    -5.103      3.527      8.189
REMARK INTER + INTRA:          -6.616
REMARK INTER:                  -6.230
REMARK INTRA:                  -0.386
REMARK UNBOUND:                -0.319
REMARK  Name = 
REMARK  7 active torsions:
REMARK  status: ('A' for Active; 'I' for Inactive)
REMARK    1  A    between atoms: C_1  and  N_2
REMARK    2  A    between atoms: N_2  and  C_3
REMARK    3  A    between atoms: C_4  and  C_6
REMARK    4  A    between atoms: N_10  and  C_11
REMARK    5  A    between atoms: N_10  and  C_12
REMARK    6  A    between atoms: C_12  and  C_13
REMARK    7  A    between atoms: C_13  and  C_14
REMARK                            x       y       z     vdW  Elec       q    Type
REMARK                         _______ _______ _______ _____ _____    ______ ____
ROOT
ATOM      1  C   UNL     1      46.028   5.631  12.893  0.00  0.00    +0.000 A 
ATOM      2  C   UNL     1      45.920   7.009  12.752  0.00  0.00    +0.000 A 
ATOM      3  C   UNL     1      46.907   7.837  13.285  0.00  0.00    +0.000 A 
ATOM      4  C   UNL     1      47.981   7.309  14.003  0.00  0.00    +0.000 A 
ATOM      5  N   UNL     1      48.921   8.107  14.647  0.00  0.00    +0.000 N 
ATOM      6  C   UNL     1      48.698   9.534  14.818  0.00  0.00    +0.000 C 
ATOM      7  N   UNL     1      48.081   5.966  14.149  0.00  0.00    +0.000 NA
ATOM      8  C   UNL     1      47.111   5.168  13.620  0.00  0.00    +0.000 A 
ENDROOT
BRANCH   1  12
ATOM      9  C   UNL     1      43.756   3.582  10.620  0.00  0.00    +0.000 C 
ATOM     10  N   UNL     1      44.762   4.555  11.014  0.00  0.00    +0.000 N 
ATOM     11  C   UNL     1      45.555   5.150   9.947  0.00  0.00    +0.000 C 
ATOM     12  C   UNL     1      45.033   4.661  12.383  0.00  0.00    +0.000 C 
ATOM     13  O   UNL     1      44.464   3.953  13.217  0.00  0.00    +0.000 OA
ENDBRANCH   1  12
BRANCH   5  14
ATOM     14  C   UNL     1      50.310   7.607  14.622  0.00  0.00    +0.000 C 
BRANCH  14  15
ATOM     15  C   UNL     1      50.963   7.640  16.011  0.00  0.00    +0.000 C 
BRANCH  15  16
ATOM     16  C   UNL     1      50.831   6.340  16.754  0.00  0.00    +0.000 A 
ATOM     17  C   UNL     1      51.927   5.492  16.940  0.00  0.00    +0.000 A 
ATOM     18  C   UNL     1      51.760   4.294  17.621  0.00  0.00    +0.000 A 
ATOM     19  C   UNL     1      50.501   3.977  18.103  0.00  0.00    +0.000 A 
ATOM     20  N   UNL     1      49.421   4.773  17.952  0.00  0.00    +0.000 NA
ATOM     21  C   UNL     1      49.608   5.933  17.284  0.00  0.00    +0.000 A 
ENDBRANCH  15  16
ENDBRANCH  14  15
ENDBRANCH   5  14
TORSDOF 4
ENDMDL
