MODEL 1
REMARK VINA RESULT:    -8.300      0.000      0.000
REMARK INTER + INTRA:         -13.411
REMARK INTER:                 -12.424
REMARK INTRA:                  -0.988
REMARK UNBOUND:                -0.988
REMARK  Name = 
REMARK  9 active torsions:
REMARK  status: ('A' for Active; 'I' for Inactive)
REMARK    1  A    between atoms: C_2  and  C_3
REMARK    2  A    between atoms: C_6  and  N_7
REMARK    3  A    between atoms: N_7  and  C_8
REMARK    4  A    between atoms: C_8  and  C_9
REMARK    5  A    between atoms: C_9  and  C_10
REMARK    6  A    between atoms: C_9  and  C_12
REMARK    7  A    between atoms: C_10  and  O_11
REMARK    8  A    between atoms: C_16  and  O_17
REMARK    9  A    between atoms: O_17  and  C_18
REMARK                            x       y       z     vdW  Elec       q    Type
REMARK                         _______ _______ _______ _____ _____    ______ ____
ROOT
ATOM      1  C   UNL     1      44.298   4.254  12.327  0.00  0.00    +0.000 C 
ENDROOT
BRANCH   1   2
ATOM      2  C   UNL     1      45.577   5.045  12.623  0.00  0.00    +0.000 A 
ATOM      3  C   UNL     1      46.070   6.031  11.760  0.00  0.00    +0.000 A 
ATOM      4  C   UNL     1      47.241   6.732  12.062  0.00  0.00    +0.000 A 
ATOM      5  C   UNL     1      47.948   6.458  13.232  0.00  0.00    +0.000 A 
ATOM      6  C   UNL     1      47.478   5.485  14.106  0.00  0.00    +0.000 A 
ATOM      7  C   UNL     1      46.293   4.803  13.814  0.00  0.00    +0.000 A 
BRANCH   6   8
ATOM      8  O   UNL     1      48.089   5.138  15.287  0.00  0.00    +0.000 OA
BRANCH   8   9
ATOM      9  C   UNL     1      47.370   4.282  16.206  0.00  0.00    +0.000 C 
ATOM     10  C   UNL     1      47.410   4.639  17.699  0.00  0.00    +0.000 C 
ATOM     11  O   UNL     1      47.928   3.335  18.051  0.00  0.00    +0.000 OA
ATOM     12  C   UNL     1      48.108   3.012  16.652  0.00  0.00    +0.000 C 
ENDBRANCH   8   9
ENDBRANCH   6   8
ENDBRANCH   1   2
BRANCH   1  13
ATOM     13  C   UNL     1      43.826   4.413  10.860  0.00  0.00    +0.000 C 
BRANCH  13  14
ATOM     14  N   UNL     1      43.834   3.136  10.138  0.00  0.00    +0.000 N 
ATOM     15  H   UNL     1      42.895   2.837   9.858  0.00  0.00    +0.000 HD
BRANCH  14  19
ATOM     16  C   UNL     1      46.777   2.388   7.194  0.00  0.00    +0.000 A 
ATOM     17  C   UNL     1      46.349   3.701   7.426  0.00  0.00    +0.000 A 
ATOM     18  C   UNL     1      45.360   3.964   8.380  0.00  0.00    +0.000 A 
ATOM     19  C   UNL     1      44.753   2.931   9.103  0.00  0.00    +0.000 A 
ATOM     20  C   UNL     1      45.186   1.621   8.854  0.00  0.00    +0.000 A 
ATOM     21  C   UNL     1      46.188   1.348   7.914  0.00  0.00    +0.000 A 
ATOM     22 CL   UNL     1      46.677  -0.299   7.709  0.00  0.00    +0.000 Cl
BRANCH  16  24
ATOM     23  N   UNL     1      48.640   1.960   5.441  0.00  0.00    +0.000 NA
ATOM     24  C   UNL     1      47.820   2.163   6.240  0.00  0.00    +0.000 C 
ENDBRANCH  16  24
ENDBRANCH  14  19
ENDBRANCH  13  14
ENDBRANCH   1  13
BRANCH   1  25
ATOM     25  C   UNL     1      43.112   4.475  13.297  0.00  0.00    +0.000 C 
BRANCH  25  26
ATOM     26  O   UNL     1      42.625   5.814  13.303  0.00  0.00    +0.000 OA
ATOM     27  H   UNL     1      43.060   6.272  14.051  0.00  0.00    +0.000 HD
ENDBRANCH  25  26
ENDBRANCH   1  25
TORSDOF 9
ENDMDL
MODEL 2
REMARK VINA RESULT:    -7.722      2.763      4.921
REMARK INTER + INTRA:         -12.547
REMARK INTER:                 -11.433
REMARK INTRA:                  -1.114
REMARK UNBOUND:                -0.988
REMARK  Name = 
REMARK  9 active torsions:
REMARK  status: ('A' for Active; 'I' for Inactive)
REMARK    1  A    between atoms: C_2  and  C_3
REMARK    2  A    between atoms: C_6  and  N_7
REMARK    3  A    between atoms: N_7  and  C_8
REMARK    4  A    between atoms: C_8  and  C_9
REMARK    5  A    between atoms: C_9  and  C_10
REMARK    6  A    between atoms: C_9  and  C_12
REMARK    7  A    between atoms: C_10  and  O_11
REMARK    8  A    between atoms: C_16  and  O_17
REMARK    9  A    between atoms: O_17  and  C_18
REMARK                            x       y       z     vdW  Elec       q    Type
REMARK                         _______ _______ _______ _____ _____    ______ ____
ROOT
ATOM      1  C   UNL     1      45.471   5.034  11.717  0.00  0.00    +0.000 C 
ENDROOT
BRANCH   1   2
ATOM      2  C   UNL     1      45.932   6.479  11.940  0.00  0.00    +0.000 A 
ATOM      3  C   UNL     1      47.227   6.800  12.365  0.00  0.00    +0.000 A 
ATOM      4  C   UNL     1      47.612   8.129  12.559  0.00  0.00    +0.000 A 
ATOM      5  C   UNL     1      46.707   9.167  12.338  0.00  0.00    +0.000 A 
ATOM      6  C   UNL     1      45.417   8.874  11.914  0.00  0.00    +0.000 A 
ATOM      7  C   UNL     1      45.042   7.545  11.695  0.00  0.00    +0.000 A 
BRANCH   6   8
ATOM      8  O   UNL     1      44.448   9.815  11.660  0.00  0.00    +0.000 OA
BRANCH   8   9
ATOM      9  C   UNL     1      43.639   9.664  10.469  0.00  0.00    +0.000 C 
ATOM     10  C   UNL     1      43.563  10.851   9.498  0.00  0.00    +0.000 C 
ATOM     11  O   UNL     1      42.120  10.892   9.576  0.00  0.00    +0.000 OA
ATOM     12  C   UNL     1      42.136   9.917  10.646  0.00  0.00    +0.000 C 
ENDBRANCH   8   9
ENDBRANCH   6   8
ENDBRANCH   1   2
BRANCH   1  13
ATOM     13  C   UNL     1      44.143   4.950  10.922  0.00  0.00    +0.000 C 
BRANCH  13  14
ATOM     14  N   UNL     1      43.997   3.665  10.230  0.00  0.00    +0.000 N 
ATOM     15  H   UNL     1      43.024   3.459   9.984  0.00  0.00    +0.000 HD
BRANCH  14  19
ATOM     16  C   UNL     1      46.764   2.570   7.224  0.00  0.00    +0.000 A 
ATOM     17  C   UNL     1      46.424   3.917   7.393  0.00  0.00    +0.000 A 
ATOM     18  C   UNL     1      45.493   4.296   8.367  0.00  0.00    +0.000 A 
ATOM     19  C   UNL     1      44.858   3.345   9.174  0.00  0.00    +0.000 A 
ATOM     20  C   UNL     1      45.203   1.998   8.987  0.00  0.00    +0.000 A 
ATOM     21  C   UNL     1      46.146   1.611   8.027  0.00  0.00    +0.000 A 
ATOM     22 CL   UNL     1      46.528  -0.071   7.902  0.00  0.00    +0.000 Cl
BRANCH  16  24
ATOM     23  N   UNL     1      48.536   1.909   5.449  0.00  0.00    +0.000 NA
ATOM     24  C   UNL     1      47.750   2.227   6.246  0.00  0.00    +0.000 C 
ENDBRANCH  16  24
ENDBRANCH  14  19
ENDBRANCH  13  14
ENDBRANCH   1  13
BRANCH   1  25
ATOM     25  C   UNL     1      45.400   4.132  12.973  0.00  0.00    +0.000 C 
BRANCH  25  26
ATOM     26  O   UNL     1      45.511   2.742  12.681  0.00  0.00    +0.000 OA
ATOM     27  H   UNL     1      45.439   2.649  11.709  0.00  0.00    +0.000 HD
ENDBRANCH  25  26
ENDBRANCH   1  25
TORSDOF 9
ENDMDL
MODEL 3
REMARK VINA RESULT:    -7.557      2.103      2.539
REMARK INTER + INTRA:         -12.300
REMARK INTER:                 -11.233
REMARK INTRA:                  -1.067
REMARK UNBOUND:                -0.988
REMARK  Name = 
REMARK  9 active torsions:
REMARK  status: ('A' for Active; 'I' for Inactive)
REMARK    1  A    between atoms: C_2  and  C_3
REMARK    2  A    between atoms: C_6  and  N_7
REMARK    3  A    between atoms: N_7  and  C_8
REMARK    4  A    between atoms: C_8  and  C_9
REMARK    5  A    between atoms: C_9  and  C_10
REMARK    6  A    between atoms: C_9  and  C_12
REMARK    7  A    between atoms: C_10  and  O_11
REMARK    8  A    between atoms: C_16  and  O_17
REMARK    9  A    between atoms: O_17  and  C_18
REMARK                            x       y       z     vdW  Elec       q    Type
REMARK                         _______ _______ _______ _____ _____    ______ ____
ROOT
ATOM      1  C   UNL     1      45.135   4.858  11.654  0.00  0.00    +0.000 C 
ENDROOT
BRANCH   1   2
ATOM      2  C   UNL     1      45.395   6.336  11.966  0.00  0.00    +0.000 A 
ATOM      3  C   UNL     1      44.649   7.371  11.388  0.00  0.00    +0.000 A 
ATOM      4  C   UNL     1      44.914   8.708  11.697  0.00  0.00    +0.000 A 
ATOM      5  C   UNL     1      45.936   9.040  12.585  0.00  0.00    +0.000 A 
ATOM      6  C   UNL     1      46.689   8.030  13.173  0.00  0.00    +0.000 A 
ATOM      7  C   UNL     1      46.405   6.692  12.883  0.00  0.00    +0.000 A 
BRANCH   6   8
ATOM      8  O   UNL     1      47.713   8.241  14.065  0.00  0.00    +0.000 OA
BRANCH   8   9
ATOM      9  C   UNL     1      48.732   7.221  14.195  0.00  0.00    +0.000 C 
ATOM     10  C   UNL     1      49.092   6.743  15.609  0.00  0.00    +0.000 C 
ATOM     11  O   UNL     1      50.489   7.067  15.420  0.00  0.00    +0.000 OA
ATOM     12  C   UNL     1      50.183   7.719  14.165  0.00  0.00    +0.000 C 
ENDBRANCH   8   9
ENDBRANCH   6   8
ENDBRANCH   1   2
BRANCH   1  13
ATOM     13  C   UNL     1      43.897   4.650  10.745  0.00  0.00    +0.000 C 
BRANCH  13  14
ATOM     14  N   UNL     1      43.898   3.329  10.108  0.00  0.00    +0.000 N 
ATOM     15  H   UNL     1      42.954   3.003   9.878  0.00  0.00    +0.000 HD
BRANCH  14  19
ATOM     16  C   UNL     1      46.756   2.412   7.129  0.00  0.00    +0.000 A 
ATOM     17  C   UNL     1      46.337   3.736   7.301  0.00  0.00    +0.000 A 
ATOM     18  C   UNL     1      45.375   4.055   8.266  0.00  0.00    +0.000 A 
ATOM     19  C   UNL     1      44.787   3.065   9.061  0.00  0.00    +0.000 A 
ATOM     20  C   UNL     1      45.211   1.741   8.871  0.00  0.00    +0.000 A 
ATOM     21  C   UNL     1      46.186   1.415   7.921  0.00  0.00    +0.000 A 
ATOM     22 CL   UNL     1      46.666  -0.243   7.792  0.00  0.00    +0.000 Cl
BRANCH  16  24
ATOM     23  N   UNL     1      48.580   1.933   5.348  0.00  0.00    +0.000 NA
ATOM     24  C   UNL     1      47.772   2.131   6.160  0.00  0.00    +0.000 C 
ENDBRANCH  16  24
ENDBRANCH  14  19
ENDBRANCH  13  14
ENDBRANCH   1  13
BRANCH   1  25
ATOM     25  C   UNL     1      45.074   3.899  12.868  0.00  0.00    +0.000 C 
BRANCH  25  26
ATOM     26  O   UNL     1      45.293   2.533  12.524  0.00  0.00    +0.000 OA
ATOM     27  H   UNL     1      45.269   2.478  11.547  0.00  0.00    +0.000 HD
ENDBRANCH  25  26
ENDBRANCH   1  25
TORSDOF 9
ENDMDL
MODEL 4
REMARK VINA RESULT:    -7.348      2.110      3.658
REMARK INTER + INTRA:         -11.987
REMARK INTER:                 -11.165
REMARK INTRA:                  -0.822
REMARK UNBOUND:                -0.988
REMARK  Name = 
REMARK  9 active torsions:
REMARK  status: ('A' for Active; 'I' for Inactive)
REMARK    1  A    between atoms: C_2  and  C_3
REMARK    2  A    between atoms: C_6  and  N_7
REMARK    3  A    between atoms: N_7  and  C_8
REMARK    4  A    between atoms: C_8  and  C_9
REMARK    5  A    between atoms: C_9  and  C_10
REMARK    6  A    between atoms: C_9  and  C_12
REMARK    7  A    between atoms: C_10  and  O_11
REMARK    8  A    between atoms: C_16  and  O_17
REMARK    9  A    between atoms: O_17  and  C_18
REMARK                            x       y       z     vdW  Elec       q    Type
REMARK                         _______ _______ _______ _____ _____    ______ ____
ROOT
ATOM      1  C   UNL     1      44.306   4.235  12.720  0.00  0.00    +0.000 C 
ENDROOT
BRANCH   1   2
ATOM      2  C   UNL     1      45.579   5.013  13.070  0.00  0.00    +0.000 A 
ATOM      3  C   UNL     1      46.469   4.594  14.067  0.00  0.00    +0.000 A 
ATOM      4  C   UNL     1      47.621   5.330  14.359  0.00  0.00    +0.000 A 
ATOM      5  C   UNL     1      47.904   6.505  13.664  0.00  0.00    +0.000 A 
ATOM      6  C   UNL     1      47.037   6.941  12.670  0.00  0.00    +0.000 A 
ATOM      7  C   UNL     1      45.899   6.189  12.361  0.00  0.00    +0.000 A 
BRANCH   6   8
ATOM      8  O   UNL     1      47.220   8.078  11.920  0.00  0.00    +0.000 OA
BRANCH   8   9
ATOM      9  C   UNL     1      46.743   9.337  12.453  0.00  0.00    +0.000 C 
ATOM     10  C   UNL     1      45.227   9.581  12.466  0.00  0.00    +0.000 C 
ATOM     11  O   UNL     1      45.364  10.804  11.706  0.00  0.00    +0.000 OA
ATOM     12  C   UNL     1      46.766  10.525  11.482  0.00  0.00    +0.000 C 
ENDBRANCH   8   9
ENDBRANCH   6   8
ENDBRANCH   1   2
BRANCH   1  13
ATOM     13  C   UNL     1      44.542   3.173  11.617  0.00  0.00    +0.000 C 
BRANCH  13  14
ATOM     14  N   UNL     1      44.174   3.670  10.287  0.00  0.00    +0.000 N 
ATOM     15  H   UNL     1      43.929   4.665  10.293  0.00  0.00    +0.000 HD
BRANCH  14  19
ATOM     16  C   UNL     1      46.783   2.607   7.132  0.00  0.00    +0.000 A 
ATOM     17  C   UNL     1      46.427   3.949   7.313  0.00  0.00    +0.000 A 
ATOM     18  C   UNL     1      45.547   4.316   8.337  0.00  0.00    +0.000 A 
ATOM     19  C   UNL     1      44.979   3.359   9.185  0.00  0.00    +0.000 A 
ATOM     20  C   UNL     1      45.339   2.018   8.987  0.00  0.00    +0.000 A 
ATOM     21  C   UNL     1      46.233   1.642   7.977  0.00  0.00    +0.000 A 
ATOM     22 CL   UNL     1      46.640  -0.033   7.841  0.00  0.00    +0.000 Cl
BRANCH  16  24
ATOM     23  N   UNL     1      48.488   1.971   5.284  0.00  0.00    +0.000 NA
ATOM     24  C   UNL     1      47.718   2.276   6.101  0.00  0.00    +0.000 C 
ENDBRANCH  16  24
ENDBRANCH  14  19
ENDBRANCH  13  14
ENDBRANCH   1  13
BRANCH   1  25
ATOM     25  C   UNL     1      43.051   5.080  12.389  0.00  0.00    +0.000 C 
BRANCH  25  26
ATOM     26  O   UNL     1      42.351   5.534  13.543  0.00  0.00    +0.000 OA
ATOM     27  H   UNL     1      41.488   5.880  13.235  0.00  0.00    +0.000 HD
ENDBRANCH  25  26
ENDBRANCH   1  25
TORSDOF 9
ENDMDL
MODEL 5
REMARK VINA RESULT:    -6.995      4.284      8.210
REMARK INTER + INTRA:         -11.459
REMARK INTER:                 -10.644
REMARK INTRA:                  -0.815
REMARK UNBOUND:                -0.988
REMARK  Name = 
REMARK  9 active torsions:
REMARK  status: ('A' for Active; 'I' for Inactive)
REMARK    1  A    between atoms: C_2  and  C_3
REMARK    2  A    between atoms: C_6  and  N_7
REMARK    3  A    between atoms: N_7  and  C_8
REMARK    4  A    between atoms: C_8  and  C_9
REMARK    5  A    between atoms: C_9  and  C_10
REMARK    6  A    between atoms: C_9  and  C_12
REMARK    7  A    between atoms: C_10  and  O_11
REMARK    8  A    between atoms: C_16  and  O_17
REMARK    9  A    between atoms: O_17  and  C_18
REMARK                            x       y       z     vdW  Elec       q    Type
REMARK                         _______ _______ _______ _____ _____    ______ ____
ROOT
ATOM      1  C   UNL     1      45.697   6.342  11.259  0.00  0.00    +0.000 C 
ENDROOT
BRANCH   1   2
ATOM      2  C   UNL     1      45.343   5.136  10.383  0.00  0.00    +0.000 A 
ATOM      3  C   UNL     1      44.469   4.126  10.807  0.00  0.00    +0.000 A 
ATOM      4  C   UNL     1      44.170   3.040   9.980  0.00  0.00    +0.000 A 
ATOM      5  C   UNL     1      44.743   2.936   8.713  0.00  0.00    +0.000 A 
ATOM      6  C   UNL     1      45.611   3.926   8.270  0.00  0.00    +0.000 A 
ATOM      7  C   UNL     1      45.889   5.025   9.088  0.00  0.00    +0.000 A 
BRANCH   6   8
ATOM      8  O   UNL     1      46.226   3.928   7.040  0.00  0.00    +0.000 OA
BRANCH   8   9
ATOM      9  C   UNL     1      46.513   2.656   6.413  0.00  0.00    +0.000 C 
ATOM     10  C   UNL     1      47.605   1.777   7.040  0.00  0.00    +0.000 C 
ATOM     11  O   UNL     1      48.344   1.717   5.798  0.00  0.00    +0.000 OA
ATOM     12  C   UNL     1      47.464   2.704   5.210  0.00  0.00    +0.000 C 
ENDBRANCH   8   9
ENDBRANCH   6   8
ENDBRANCH   1   2
BRANCH   1  13
ATOM     13  C   UNL     1      46.856   6.043  12.244  0.00  0.00    +0.000 C 
BRANCH  13  14
ATOM     14  N   UNL     1      46.365   5.581  13.547  0.00  0.00    +0.000 N 
ATOM     15  H   UNL     1      45.748   4.767  13.469  0.00  0.00    +0.000 HD
BRANCH  14  19
ATOM     16  C   UNL     1      48.857   5.112  16.932  0.00  0.00    +0.000 A 
ATOM     17  C   UNL     1      49.049   6.204  16.078  0.00  0.00    +0.000 A 
ATOM     18  C   UNL     1      48.250   6.363  14.941  0.00  0.00    +0.000 A 
ATOM     19  C   UNL     1      47.263   5.429  14.610  0.00  0.00    +0.000 A 
ATOM     20  C   UNL     1      47.087   4.335  15.470  0.00  0.00    +0.000 A 
ATOM     21  C   UNL     1      47.870   4.176  16.620  0.00  0.00    +0.000 A 
ATOM     22 CL   UNL     1      47.548   2.813  17.636  0.00  0.00    +0.000 Cl
BRANCH  16  24
ATOM     23  N   UNL     1      50.290   4.912  19.085  0.00  0.00    +0.000 NA
ATOM     24  C   UNL     1      49.667   5.006  18.107  0.00  0.00    +0.000 C 
ENDBRANCH  16  24
ENDBRANCH  14  19
ENDBRANCH  13  14
ENDBRANCH   1  13
BRANCH   1  25
ATOM     25  C   UNL     1      44.522   7.018  12.007  0.00  0.00    +0.000 C 
BRANCH  25  26
ATOM     26  O   UNL     1      44.927   8.094  12.848  0.00  0.00    +0.000 OA
ATOM     27  H   UNL     1      44.281   8.818  12.715  0.00  0.00    +0.000 HD
ENDBRANCH  25  26
ENDBRANCH   1  25
TORSDOF 9
ENDMDL
MODEL 6
REMARK VINA RESULT:    -6.898      2.005      2.456
REMARK INTER + INTRA:         -11.313
REMARK INTER:                 -10.208
REMARK INTRA:                  -1.105
REMARK UNBOUND:                -0.988
REMARK  Name = 
REMARK  9 active torsions:
REMARK  status: ('A' for Active; 'I' for Inactive)
REMARK    1  A    between atoms: C_2  and  C_3
REMARK    2  A    between atoms: C_6  and  N_7
REMARK    3  A    between atoms: N_7  and  C_8
REMARK    4  A    between atoms: C_8  and  C_9
REMARK    5  A    between atoms: C_9  and  C_10
REMARK    6  A    between atoms: C_9  and  C_12
REMARK    7  A    between atoms: C_10  and  O_11
REMARK    8  A    between atoms: C_16  and  O_17
REMARK    9  A    between atoms: O_17  and  C_18
REMARK                            x       y       z     vdW  Elec       q    Type
REMARK                         _______ _______ _______ _____ _____    ______ ____
ROOT
ATOM      1  C   UNL     1      45.433   5.609  12.097  0.00  0.00    +0.000 C 
ENDROOT
BRANCH   1   2
ATOM      2  C   UNL     1      46.678   6.426  12.458  0.00  0.00    +0.000 A 
ATOM      3  C   UNL     1      47.063   7.569  11.746  0.00  0.00    +0.000 A 
ATOM      4  C   UNL     1      48.205   8.289  12.105  0.00  0.00    +0.000 A 
ATOM      5  C   UNL     1      48.992   7.879  13.181  0.00  0.00    +0.000 A 
ATOM      6  C   UNL     1      48.629   6.750  13.904  0.00  0.00    +0.000 A 
ATOM      7  C   UNL     1      47.472   6.045  13.560  0.00  0.00    +0.000 A 
BRANCH   6   8
ATOM      8  O   UNL     1      49.325   6.259  14.983  0.00  0.00    +0.000 OA
BRANCH   8   9
ATOM      9  C   UNL     1      48.788   6.488  16.308  0.00  0.00    +0.000 C 
ATOM     10  C   UNL     1      49.117   7.821  16.995  0.00  0.00    +0.000 C 
ATOM     11  O   UNL     1      49.681   7.149  18.146  0.00  0.00    +0.000 OA
ATOM     12  C   UNL     1      49.586   5.875  17.467  0.00  0.00    +0.000 C 
ENDBRANCH   8   9
ENDBRANCH   6   8
ENDBRANCH   1   2
BRANCH   1  13
ATOM     13  C   UNL     1      44.559   6.300  11.021  0.00  0.00    +0.000 C 
BRANCH  13  14
ATOM     14  N   UNL     1      43.846   5.330  10.183  0.00  0.00    +0.000 N 
ATOM     15  H   UNL     1      43.284   5.778   9.453  0.00  0.00    +0.000 HD
BRANCH  14  19
ATOM     16  C   UNL     1      45.814   2.038   8.398  0.00  0.00    +0.000 A 
ATOM     17  C   UNL     1      44.929   1.822   9.461  0.00  0.00    +0.000 A 
ATOM     18  C   UNL     1      44.287   2.901  10.079  0.00  0.00    +0.000 A 
ATOM     19  C   UNL     1      44.529   4.218   9.676  0.00  0.00    +0.000 A 
ATOM     20  C   UNL     1      45.424   4.421   8.615  0.00  0.00    +0.000 A 
ATOM     21  C   UNL     1      46.058   3.346   7.978  0.00  0.00    +0.000 A 
ATOM     22 CL   UNL     1      47.114   3.701   6.655  0.00  0.00    +0.000 Cl
BRANCH  16  24
ATOM     23  N   UNL     1      46.874  -0.033   7.252  0.00  0.00    +0.000 NA
ATOM     24  C   UNL     1      46.419   0.907   7.765  0.00  0.00    +0.000 C 
ENDBRANCH  16  24
ENDBRANCH  14  19
ENDBRANCH  13  14
ENDBRANCH   1  13
BRANCH   1  25
ATOM     25  C   UNL     1      44.551   5.138  13.279  0.00  0.00    +0.000 C 
BRANCH  25  26
ATOM     26  O   UNL     1      43.251   5.719  13.285  0.00  0.00    +0.000 OA
ATOM     27  H   UNL     1      42.622   5.012  13.033  0.00  0.00    +0.000 HD
ENDBRANCH  25  26
ENDBRANCH   1  25
TORSDOF 9
ENDMDL
MODEL 7
REMARK VINA RESULT:    -6.619      4.267      7.517
REMARK INTER + INTRA:         -10.895
REMARK INTER:                 -10.275
REMARK INTRA:                  -0.620
REMARK UNBOUND:                -0.988
REMARK  Name = 
REMARK  9 active torsions:
REMARK  status: ('A' for Active; 'I' for Inactive)
REMARK    1  A    between atoms: C_2  and  C_3
REMARK    2  A    between atoms: C_6  and  N_7
REMARK    3  A    between atoms: N_7  and  C_8
REMARK    4  A    between atoms: C_8  and  C_9
REMARK    5  A    between atoms: C_9  and  C_10
REMARK    6  A    between atoms: C_9  and  C_12
REMARK    7  A    between atoms: C_10  and  O_11
REMARK    8  A    between atoms: C_16  and  O_17
REMARK    9  A    between atoms: O_17  and  C_18
REMARK                            x       y       z     vdW  Elec       q    Type
REMARK                         _______ _______ _______ _____ _____    ______ ____
ROOT
ATOM      1  C   UNL     1      45.041   6.135  11.353  0.00  0.00    +0.000 C 
ENDROOT
BRANCH   1   2
ATOM      2  C   UNL     1      44.876   4.846  10.541  0.00  0.00    +0.000 A 
ATOM      3  C   UNL     1      44.234   3.710  11.051  0.00  0.00    +0.000 A 
ATOM      4  C   UNL     1      44.103   2.551  10.281  0.00  0.00    +0.000 A 
ATOM      5  C   UNL     1      44.615   2.501   8.985  0.00  0.00    +0.000 A 
ATOM      6  C   UNL     1      45.254   3.615   8.456  0.00  0.00    +0.000 A 
ATOM      7  C   UNL     1      45.362   4.782   9.219  0.00  0.00    +0.000 A 
BRANCH   6   8
ATOM      8  O   UNL     1      45.790   3.679   7.192  0.00  0.00    +0.000 OA
BRANCH   8   9
ATOM      9  C   UNL     1      47.142   3.201   6.994  0.00  0.00    +0.000 C 
ATOM     10  C   UNL     1      47.555   2.787   5.574  0.00  0.00    +0.000 C 
ATOM     11  O   UNL     1      47.941   1.465   6.015  0.00  0.00    +0.000 OA
ATOM     12  C   UNL     1      47.381   1.721   7.324  0.00  0.00    +0.000 C 
ENDBRANCH   8   9
ENDBRANCH   6   8
ENDBRANCH   1   2
BRANCH   1  13
ATOM     13  C   UNL     1      45.080   5.875  12.880  0.00  0.00    +0.000 C 
BRANCH  13  14
ATOM     14  N   UNL     1      46.362   6.268  13.474  0.00  0.00    +0.000 N 
ATOM     15  H   UNL     1      46.970   5.466  13.666  0.00  0.00    +0.000 HD
BRANCH  14  19
ATOM     16  C   UNL     1      48.782   9.374  11.929  0.00  0.00    +0.000 A 
ATOM     17  C   UNL     1      47.570   9.688  12.554  0.00  0.00    +0.000 A 
ATOM     18  C   UNL     1      46.746   8.673  13.050  0.00  0.00    +0.000 A 
ATOM     19  C   UNL     1      47.090   7.324  12.912  0.00  0.00    +0.000 A 
ATOM     20  C   UNL     1      48.304   7.024  12.277  0.00  0.00    +0.000 A 
ATOM     21  C   UNL     1      49.145   8.034  11.793  0.00  0.00    +0.000 A 
ATOM     22 CL   UNL     1      50.638   7.559  11.058  0.00  0.00    +0.000 Cl
BRANCH  16  24
ATOM     23  N   UNL     1      50.296  11.326  11.139  0.00  0.00    +0.000 NA
ATOM     24  C   UNL     1      49.618  10.442  11.471  0.00  0.00    +0.000 C 
ENDBRANCH  16  24
ENDBRANCH  14  19
ENDBRANCH  13  14
ENDBRANCH   1  13
BRANCH   1  25
ATOM     25  C   UNL     1      44.054   7.282  11.031  0.00  0.00    +0.000 C 
BRANCH  25  26
ATOM     26  O   UNL     1      42.686   6.913  11.178  0.00  0.00    +0.000 OA
ATOM     27  H   UNL     1      42.569   6.061  10.710  0.00  0.00    +0.000 HD
ENDBRANCH  25  26
ENDBRANCH   1  25
TORSDOF 9
ENDMDL
MODEL 8
REMARK VINA RESULT:    -6.369      4.171      7.746
REMARK INTER + INTRA:         -10.522
REMARK INTER:                  -9.464
REMARK INTRA:                  -1.058
REMARK UNBOUND:                -0.988
REMARK  Name = 
REMARK  9 active torsions:
REMARK  status: ('A' for Active; 'I' for Inactive)
REMARK    1  A    between atoms: C_2  and  C_3
REMARK    2  A    between atoms: C_6  and  N_7
REMARK    3  A    between atoms: N_7  and  C_8
REMARK    4  A    between atoms: C_8  and  C_9
REMARK    5  A    between atoms: C_9  and  C_10
REMARK    6  A    between atoms: C_9  and  C_12
REMARK    7  A    between atoms: C_10  and  O_11
REMARK    8  A    between atoms: C_16  and  O_17
REMARK    9  A    between atoms: O_17  and  C_18
REMARK                            x       y       z     vdW  Elec       q    Type
REMARK                         _______ _______ _______ _____ _____    ______ ____
ROOT
ATOM      1  C   UNL     1      45.381   7.333  11.525  0.00  0.00    +0.000 C 
ENDROOT
BRANCH   1   2
ATOM      2  C   UNL     1      44.668   5.981  11.632  0.00  0.00    +0.000 A 
ATOM      3  C   UNL     1      43.918   5.610  12.755  0.00  0.00    +0.000 A 
ATOM      4  C   UNL     1      43.283   4.367  12.818  0.00  0.00    +0.000 A 
ATOM      5  C   UNL     1      43.387   3.465  11.760  0.00  0.00    +0.000 A 
ATOM      6  C   UNL     1      44.124   3.810  10.634  0.00  0.00    +0.000 A 
ATOM      7  C   UNL     1      44.738   5.064  10.562  0.00  0.00    +0.000 A 
BRANCH   6   8
ATOM      8  O   UNL     1      44.289   3.003   9.533  0.00  0.00    +0.000 OA
BRANCH   8   9
ATOM      9  C   UNL     1      45.608   2.903   8.947  0.00  0.00    +0.000 C 
ATOM     10  C   UNL     1      45.788   3.384   7.499  0.00  0.00    +0.000 C 
ATOM     11  O   UNL     1      46.315   2.103   7.083  0.00  0.00    +0.000 OA
ATOM     12  C   UNL     1      45.980   1.530   8.369  0.00  0.00    +0.000 C 
ENDBRANCH   8   9
ENDBRANCH   6   8
ENDBRANCH   1   2
BRANCH   1  13
ATOM     13  C   UNL     1      46.403   7.560  12.667  0.00  0.00    +0.000 C 
BRANCH  13  14
ATOM     14  N   UNL     1      47.306   6.416  12.832  0.00  0.00    +0.000 N 
ATOM     15  H   UNL     1      48.212   6.562  12.375  0.00  0.00    +0.000 HD
BRANCH  14  19
ATOM     16  C   UNL     1      48.082   4.677  16.609  0.00  0.00    +0.000 A 
ATOM     17  C   UNL     1      47.217   4.034  15.716  0.00  0.00    +0.000 A 
ATOM     18  C   UNL     1      46.931   4.606  14.471  0.00  0.00    +0.000 A 
ATOM     19  C   UNL     1      47.472   5.841  14.097  0.00  0.00    +0.000 A 
ATOM     20  C   UNL     1      48.331   6.477  15.005  0.00  0.00    +0.000 A 
ATOM     21  C   UNL     1      48.637   5.904  16.246  0.00  0.00    +0.000 A 
ATOM     22 CL   UNL     1      49.737   6.753  17.278  0.00  0.00    +0.000 Cl
BRANCH  16  24
ATOM     23  N   UNL     1      48.669   3.530  18.860  0.00  0.00    +0.000 NA
ATOM     24  C   UNL     1      48.383   4.040  17.855  0.00  0.00    +0.000 C 
ENDBRANCH  16  24
ENDBRANCH  14  19
ENDBRANCH  13  14
ENDBRANCH   1  13
BRANCH   1  25
ATOM     25  C   UNL     1      44.474   8.578  11.364  0.00  0.00    +0.000 C 
BRANCH  25  26
ATOM     26  O   UNL     1      43.156   8.267  10.923  0.00  0.00    +0.000 OA
ATOM     27  H   UNL     1      43.042   7.300  11.025  0.00  0.00    +0.000 HD
ENDBRANCH  25  26
ENDBRANCH   1  25
TORSDOF 9
ENDMDL
MODEL 9
REMARK VINA RESULT:    -6.340      4.272      7.755
REMARK INTER + INTRA:         -10.478
REMARK INTER:                  -9.799
REMARK INTRA:                  -0.679
REMARK UNBOUND:                -0.988
REMARK  Name = 
REMARK  9 active torsions:
REMARK  status: ('A' for Active; 'I' for Inactive)
REMARK    1  A    between atoms: C_2  and  C_3
REMARK    2  A    between atoms: C_6  and  N_7
REMARK    3  A    between atoms: N_7  and  C_8
REMARK    4  A    between atoms: C_8  and  C_9
REMARK    5  A    between atoms: C_9  and  C_10
REMARK    6  A    between atoms: C_9  and  C_12
REMARK    7  A    between atoms: C_10  and  O_11
REMARK    8  A    between atoms: C_16  and  O_17
REMARK    9  A    between atoms: O_17  and  C_18
REMARK                            x       y       z     vdW  Elec       q    Type
REMARK                         _______ _______ _______ _____ _____    ______ ____
ROOT
ATOM      1  C   UNL     1      44.231   6.024  11.020  0.00  0.00    +0.000 C 
ENDROOT
BRANCH   1   2
ATOM      2  C   UNL     1      44.502   4.707  10.284  0.00  0.00    +0.000 A 
ATOM      3  C   UNL     1      43.986   3.480  10.718  0.00  0.00    +0.000 A 
ATOM      4  C   UNL     1      44.255   2.299  10.020  0.00  0.00    +0.000 A 
ATOM      5  C   UNL     1      45.052   2.319   8.876  0.00  0.00    +0.000 A 
ATOM      6  C   UNL     1      45.574   3.525   8.424  0.00  0.00    +0.000 A 
ATOM      7  C   UNL     1      45.282   4.709   9.109  0.00  0.00    +0.000 A 
BRANCH   6   8
ATOM      8  O   UNL     1      46.364   3.662   7.308  0.00  0.00    +0.000 OA
BRANCH   8   9
ATOM      9  C   UNL     1      46.656   2.481   6.524  0.00  0.00    +0.000 C 
ATOM     10  C   UNL     1      47.893   1.654   6.906  0.00  0.00    +0.000 C 
ATOM     11  O   UNL     1      48.447   1.771   5.576  0.00  0.00    +0.000 OA
ATOM     12  C   UNL     1      47.418   2.721   5.214  0.00  0.00    +0.000 C 
ENDBRANCH   8   9
ENDBRANCH   6   8
ENDBRANCH   1   2
BRANCH   1  13
ATOM     13  C   UNL     1      45.533   6.766  11.411  0.00  0.00    +0.000 C 
BRANCH  13  14
ATOM     14  N   UNL     1      46.388   5.955  12.285  0.00  0.00    +0.000 N 
ATOM     15  H   UNL     1      46.616   5.043  11.876  0.00  0.00    +0.000 HD
BRANCH  14  19
ATOM     16  C   UNL     1      49.956   7.553  13.900  0.00  0.00    +0.000 A 
ATOM     17  C   UNL     1      49.053   6.892  14.739  0.00  0.00    +0.000 A 
ATOM     18  C   UNL     1      47.856   6.377  14.227  0.00  0.00    +0.000 A 
ATOM     19  C   UNL     1      47.517   6.532  12.879  0.00  0.00    +0.000 A 
ATOM     20  C   UNL     1      48.428   7.204  12.051  0.00  0.00    +0.000 A 
ATOM     21  C   UNL     1      49.636   7.707  12.550  0.00  0.00    +0.000 A 
ATOM     22 CL   UNL     1      50.708   8.487  11.438  0.00  0.00    +0.000 Cl
BRANCH  16  24
ATOM     23  N   UNL     1      52.169   8.421  14.938  0.00  0.00    +0.000 NA
ATOM     24  C   UNL     1      51.188   8.029  14.452  0.00  0.00    +0.000 C 
ENDBRANCH  16  24
ENDBRANCH  14  19
ENDBRANCH  13  14
ENDBRANCH   1  13
BRANCH   1  25
ATOM     25  C   UNL     1      43.274   5.948  12.235  0.00  0.00    +0.000 C 
BRANCH  25  26
ATOM     26  O   UNL     1      41.916   6.222  11.906  0.00  0.00    +0.000 OA
ATOM     27  H   UNL     1      41.881   6.369  10.939  0.00  0.00    +0.000 HD
ENDBRANCH  25  26
ENDBRANCH   1  25
TORSDOF 9
ENDMDL
