MODEL 1
REMARK VINA RESULT:    -7.627      0.000      0.000
REMARK INTER + INTRA:         -10.375
REMARK INTER:                  -9.633
REMARK INTRA:                  -0.742
REMARK UNBOUND:                -0.742
REMARK  Name = 
REMARK  5 active torsions:
REMARK  status: ('A' for Active; 'I' for Inactive)
REMARK    1  A    between atoms: N_1  and  C_2
REMARK    2  A    between atoms: C_2  and  C_3
REMARK    3  A    between atoms: C_3  and  C_4
REMARK    4  A    between atoms: C_7  and  C_8
REMARK    5  A    between atoms: C_8  and  N_9
REMARK                            x       y       z     vdW  Elec       q    Type
REMARK                         _______ _______ _______ _____ _____    ______ ____
ROOT
ATOM      1  C   UNL     1      45.978   2.581   8.231  0.00  0.00    +0.000 A 
ATOM      2  C   UNL     1      46.016   3.974   8.192  0.00  0.00    +0.000 A 
ATOM      3  C   UNL     1      45.185   4.746   9.018  0.00  0.00    +0.000 A 
ATOM      4  C   UNL     1      44.299   4.125   9.920  0.00  0.00    +0.000 A 
ATOM      5  C   UNL     1      44.283   2.727   9.974  0.00  0.00    +0.000 A 
ATOM      6  C   UNL     1      45.116   1.959   9.147  0.00  0.00    +0.000 A 
ENDROOT
BRANCH   1   7
ATOM      7  C   UNL     1      46.811   1.751   7.274  0.00  0.00    +0.000 C 
BRANCH   7   8
ATOM      8  C   UNL     1      47.996   2.512   6.677  0.00  0.00    +0.000 C 
BRANCH   8   9
ATOM      9  N   UNL     1      48.560   1.789   5.530  0.00  0.00    +0.000 NA
ATOM     10  H   UNL     1      48.085   0.891   5.432  0.00  0.00    +0.000 HD
ATOM     11  H   UNL     1      49.541   1.573   5.707  0.00  0.00    +0.000 HD
ENDBRANCH   8   9
ENDBRANCH   7   8
ENDBRANCH   1   7
BRANCH   4  12
ATOM     12  C   UNL     1      43.316   4.940  10.742  0.00  0.00    +0.000 C 
BRANCH  12  13
ATOM     13  N   UNL     1      44.020   5.908  11.579  0.00  0.00    +0.000 N 
ATOM     14  N   UNL     1      43.959   7.227  11.270  0.00  0.00    +0.000 NA
ATOM     15  C   UNL     1      45.094   7.705  11.788  0.00  0.00    +0.000 A 
ATOM     16  C   UNL     1      45.829   6.723  12.490  0.00  0.00    +0.000 A 
ATOM     17  C   UNL     1      47.084   6.646  13.115  0.00  0.00    +0.000 A 
ATOM     18  C   UNL     1      47.413   5.481  13.819  0.00  0.00    +0.000 A 
ATOM     19  C   UNL     1      46.496   4.436  13.942  0.00  0.00    +0.000 A 
ATOM     20  C   UNL     1      45.266   4.473  13.276  0.00  0.00    +0.000 A 
ATOM     21  C   UNL     1      44.990   5.613  12.513  0.00  0.00    +0.000 A 
ENDBRANCH  12  13
ENDBRANCH   4  12
TORSDOF 5
ENDMDL
MODEL 2
REMARK VINA RESULT:    -7.564      0.236      1.127
REMARK INTER + INTRA:         -10.296
REMARK INTER:                  -9.532
REMARK INTRA:                  -0.764
REMARK UNBOUND:                -0.742
REMARK  Name = 
REMARK  5 active torsions:
REMARK  status: ('A' for Active; 'I' for Inactive)
REMARK    1  A    between atoms: N_1  and  C_2
REMARK    2  A    between atoms: C_2  and  C_3
REMARK    3  A    between atoms: C_3  and  C_4
REMARK    4  A    between atoms: C_7  and  C_8
REMARK    5  A    between atoms: C_8  and  N_9
REMARK                            x       y       z     vdW  Elec       q    Type
REMARK                         _______ _______ _______ _____ _____    ______ ____
ROOT
ATOM      1  C   UNL     1      45.821   2.556   8.318  0.00  0.00    +0.000 A 
ATOM      2  C   UNL     1      44.991   1.958   9.263  0.00  0.00    +0.000 A 
ATOM      3  C   UNL     1      44.138   2.726  10.071  0.00  0.00    +0.000 A 
ATOM      4  C   UNL     1      44.095   4.127   9.933  0.00  0.00    +0.000 A 
ATOM      5  C   UNL     1      44.912   4.721   8.965  0.00  0.00    +0.000 A 
ATOM      6  C   UNL     1      45.762   3.949   8.159  0.00  0.00    +0.000 A 
ENDROOT
BRANCH   1   7
ATOM      7  C   UNL     1      46.806   1.732   7.511  0.00  0.00    +0.000 C 
BRANCH   7   8
ATOM      8  C   UNL     1      47.869   2.573   6.802  0.00  0.00    +0.000 C 
BRANCH   8   9
ATOM      9  N   UNL     1      48.501   1.812   5.717  0.00  0.00    +0.000 NA
ATOM     10  H   UNL     1      47.848   1.105   5.375  0.00  0.00    +0.000 HD
ATOM     11  H   UNL     1      49.308   1.301   6.077  0.00  0.00    +0.000 HD
ENDBRANCH   8   9
ENDBRANCH   7   8
ENDBRANCH   1   7
BRANCH   4  12
ATOM     12  C   UNL     1      43.262   4.983  10.870  0.00  0.00    +0.000 C 
BRANCH  12  13
ATOM     13  N   UNL     1      44.108   5.923  11.600  0.00  0.00    +0.000 N 
ATOM     14  N   UNL     1      44.116   7.230  11.243  0.00  0.00    +0.000 NA
ATOM     15  C   UNL     1      45.326   7.638  11.639  0.00  0.00    +0.000 A 
ATOM     16  C   UNL     1      46.046   6.627  12.316  0.00  0.00    +0.000 A 
ATOM     17  C   UNL     1      47.343   6.475  12.831  0.00  0.00    +0.000 A 
ATOM     18  C   UNL     1      47.647   5.315  13.553  0.00  0.00    +0.000 A 
ATOM     19  C   UNL     1      46.671   4.349  13.799  0.00  0.00    +0.000 A 
ATOM     20  C   UNL     1      45.391   4.457  13.243  0.00  0.00    +0.000 A 
ATOM     21  C   UNL     1      45.133   5.587  12.458  0.00  0.00    +0.000 A 
ENDBRANCH  12  13
ENDBRANCH   4  12
TORSDOF 5
ENDMDL
MODEL 3
REMARK VINA RESULT:    -7.117      1.428      2.586
REMARK INTER + INTRA:          -9.732
REMARK INTER:                  -9.264
REMARK INTRA:                  -0.468
REMARK UNBOUND:                -0.742
REMARK  Name = 
REMARK  5 active torsions:
REMARK  status: ('A' for Active; 'I' for Inactive)
REMARK    1  A    between atoms: N_1  and  C_2
REMARK    2  A    between atoms: C_2  and  C_3
REMARK    3  A    between atoms: C_3  and  C_4
REMARK    4  A    between atoms: C_7  and  C_8
REMARK    5  A    between atoms: C_8  and  N_9
REMARK                            x       y       z     vdW  Elec       q    Type
REMARK                         _______ _______ _______ _____ _____    ______ ____
ROOT
ATOM      1  C   UNL     1      45.869   3.223   7.795  0.00  0.00    +0.000 A 
ATOM      2  C   UNL     1      45.300   2.416   8.778  0.00  0.00    +0.000 A 
ATOM      3  C   UNL     1      44.921   2.944  10.022  0.00  0.00    +0.000 A 
ATOM      4  C   UNL     1      45.096   4.314  10.299  0.00  0.00    +0.000 A 
ATOM      5  C   UNL     1      45.645   5.125   9.300  0.00  0.00    +0.000 A 
ATOM      6  C   UNL     1      46.022   4.593   8.058  0.00  0.00    +0.000 A 
ENDROOT
BRANCH   1   7
ATOM      7  C   UNL     1      46.360   2.632   6.489  0.00  0.00    +0.000 C 
BRANCH   7   8
ATOM      8  C   UNL     1      47.470   1.595   6.666  0.00  0.00    +0.000 C 
BRANCH   8   9
ATOM      9  N   UNL     1      48.555   1.818   5.702  0.00  0.00    +0.000 NA
ATOM     10  H   UNL     1      48.169   2.221   4.847  0.00  0.00    +0.000 HD
ATOM     11  H   UNL     1      48.967   0.923   5.433  0.00  0.00    +0.000 HD
ENDBRANCH   8   9
ENDBRANCH   7   8
ENDBRANCH   1   7
BRANCH   4  12
ATOM     12  C   UNL     1      44.794   4.882  11.675  0.00  0.00    +0.000 C 
BRANCH  12  13
ATOM     13  N   UNL     1      45.981   4.839  12.523  0.00  0.00    +0.000 N 
ATOM     14  N   UNL     1      46.075   3.896  13.493  0.00  0.00    +0.000 NA
ATOM     15  C   UNL     1      46.884   4.471  14.388  0.00  0.00    +0.000 A 
ATOM     16  C   UNL     1      47.367   5.727  13.958  0.00  0.00    +0.000 A 
ATOM     17  C   UNL     1      48.129   6.768  14.513  0.00  0.00    +0.000 A 
ATOM     18  C   UNL     1      48.495   7.842  13.694  0.00  0.00    +0.000 A 
ATOM     19  C   UNL     1      48.155   7.859  12.340  0.00  0.00    +0.000 A 
ATOM     20  C   UNL     1      47.346   6.860  11.787  0.00  0.00    +0.000 A 
ATOM     21  C   UNL     1      46.925   5.836  12.643  0.00  0.00    +0.000 A 
ENDBRANCH  12  13
ENDBRANCH   4  12
TORSDOF 5
ENDMDL
MODEL 4
REMARK VINA RESULT:    -6.647      2.181      6.237
REMARK INTER + INTRA:          -9.138
REMARK INTER:                  -8.814
REMARK INTRA:                  -0.323
REMARK UNBOUND:                -0.742
REMARK  Name = 
REMARK  5 active torsions:
REMARK  status: ('A' for Active; 'I' for Inactive)
REMARK    1  A    between atoms: N_1  and  C_2
REMARK    2  A    between atoms: C_2  and  C_3
REMARK    3  A    between atoms: C_3  and  C_4
REMARK    4  A    between atoms: C_7  and  C_8
REMARK    5  A    between atoms: C_8  and  N_9
REMARK                            x       y       z     vdW  Elec       q    Type
REMARK                         _______ _______ _______ _____ _____    ______ ____
ROOT
ATOM      1  C   UNL     1      46.773   5.039  13.429  0.00  0.00    +0.000 A 
ATOM      2  C   UNL     1      45.984   3.926  13.143  0.00  0.00    +0.000 A 
ATOM      3  C   UNL     1      45.270   3.832  11.939  0.00  0.00    +0.000 A 
ATOM      4  C   UNL     1      45.349   4.861  10.980  0.00  0.00    +0.000 A 
ATOM      5  C   UNL     1      46.162   5.964  11.260  0.00  0.00    +0.000 A 
ATOM      6  C   UNL     1      46.875   6.054  12.465  0.00  0.00    +0.000 A 
ENDROOT
BRANCH   1   7
ATOM      7  C   UNL     1      47.470   5.178  14.768  0.00  0.00    +0.000 C 
BRANCH   7   8
ATOM      8  C   UNL     1      47.190   4.019  15.725  0.00  0.00    +0.000 C 
BRANCH   8   9
ATOM      9  N   UNL     1      48.222   2.981  15.609  0.00  0.00    +0.000 NA
ATOM     10  H   UNL     1      48.294   2.476  16.493  0.00  0.00    +0.000 HD
ATOM     11  H   UNL     1      49.133   3.416  15.457  0.00  0.00    +0.000 HD
ENDBRANCH   8   9
ENDBRANCH   7   8
ENDBRANCH   1   7
BRANCH   4  12
ATOM     12  C   UNL     1      44.500   4.828   9.721  0.00  0.00    +0.000 C 
BRANCH  12  13
ATOM     13  N   UNL     1      44.615   3.533   9.055  0.00  0.00    +0.000 N 
ATOM     14  N   UNL     1      43.921   2.472   9.535  0.00  0.00    +0.000 NA
ATOM     15  C   UNL     1      44.660   1.431   9.139  0.00  0.00    +0.000 A 
ATOM     16  C   UNL     1      45.763   1.818   8.345  0.00  0.00    +0.000 A 
ATOM     17  C   UNL     1      46.877   1.182   7.774  0.00  0.00    +0.000 A 
ATOM     18  C   UNL     1      47.718   1.924   6.935  0.00  0.00    +0.000 A 
ATOM     19  C   UNL     1      47.430   3.255   6.631  0.00  0.00    +0.000 A 
ATOM     20  C   UNL     1      46.359   3.920   7.238  0.00  0.00    +0.000 A 
ATOM     21  C   UNL     1      45.578   3.181   8.135  0.00  0.00    +0.000 A 
ENDBRANCH  12  13
ENDBRANCH   4  12
TORSDOF 5
ENDMDL
MODEL 5
REMARK VINA RESULT:    -5.989      2.145      5.959
REMARK INTER + INTRA:          -8.307
REMARK INTER:                  -7.822
REMARK INTRA:                  -0.485
REMARK UNBOUND:                -0.742
REMARK  Name = 
REMARK  5 active torsions:
REMARK  status: ('A' for Active; 'I' for Inactive)
REMARK    1  A    between atoms: N_1  and  C_2
REMARK    2  A    between atoms: C_2  and  C_3
REMARK    3  A    between atoms: C_3  and  C_4
REMARK    4  A    between atoms: C_7  and  C_8
REMARK    5  A    between atoms: C_8  and  N_9
REMARK                            x       y       z     vdW  Elec       q    Type
REMARK                         _______ _______ _______ _____ _____    ______ ____
ROOT
ATOM      1  C   UNL     1      47.302   6.469  13.263  0.00  0.00    +0.000 A 
ATOM      2  C   UNL     1      46.741   5.194  13.279  0.00  0.00    +0.000 A 
ATOM      3  C   UNL     1      45.602   4.891  12.516  0.00  0.00    +0.000 A 
ATOM      4  C   UNL     1      45.007   5.875  11.702  0.00  0.00    +0.000 A 
ATOM      5  C   UNL     1      45.589   7.147  11.670  0.00  0.00    +0.000 A 
ATOM      6  C   UNL     1      46.728   7.444  12.433  0.00  0.00    +0.000 A 
ENDROOT
BRANCH   1   7
ATOM      7  C   UNL     1      48.477   6.816  14.156  0.00  0.00    +0.000 C 
BRANCH   7   8
ATOM      8  C   UNL     1      49.586   7.583  13.436  0.00  0.00    +0.000 C 
BRANCH   8   9
ATOM      9  N   UNL     1      50.833   7.553  14.211  0.00  0.00    +0.000 NA
ATOM     10  H   UNL     1      50.876   6.685  14.747  0.00  0.00    +0.000 HD
ATOM     11  H   UNL     1      50.833   8.310  14.896  0.00  0.00    +0.000 HD
ENDBRANCH   8   9
ENDBRANCH   7   8
ENDBRANCH   1   7
BRANCH   4  12
ATOM     12  C   UNL     1      43.714   5.599  10.956  0.00  0.00    +0.000 C 
BRANCH  12  13
ATOM     13  N   UNL     1      43.700   4.235  10.433  0.00  0.00    +0.000 N 
ATOM     14  N   UNL     1      43.155   3.241  11.176  0.00  0.00    +0.000 NA
ATOM     15  C   UNL     1      43.806   2.157  10.742  0.00  0.00    +0.000 A 
ATOM     16  C   UNL     1      44.691   2.443   9.678  0.00  0.00    +0.000 A 
ATOM     17  C   UNL     1      45.659   1.738   8.943  0.00  0.00    +0.000 A 
ATOM     18  C   UNL     1      46.271   2.374   7.857  0.00  0.00    +0.000 A 
ATOM     19  C   UNL     1      45.895   3.663   7.477  0.00  0.00    +0.000 A 
ATOM     20  C   UNL     1      44.976   4.400   8.234  0.00  0.00    +0.000 A 
ATOM     21  C   UNL     1      44.436   3.774   9.363  0.00  0.00    +0.000 A 
ENDBRANCH  12  13
ENDBRANCH   4  12
TORSDOF 5
ENDMDL
MODEL 6
REMARK VINA RESULT:    -5.797      2.151      6.323
REMARK INTER + INTRA:          -8.064
REMARK INTER:                  -8.047
REMARK INTRA:                  -0.017
REMARK UNBOUND:                -0.742
REMARK  Name = 
REMARK  5 active torsions:
REMARK  status: ('A' for Active; 'I' for Inactive)
REMARK    1  A    between atoms: N_1  and  C_2
REMARK    2  A    between atoms: C_2  and  C_3
REMARK    3  A    between atoms: C_3  and  C_4
REMARK    4  A    between atoms: C_7  and  C_8
REMARK    5  A    between atoms: C_8  and  N_9
REMARK                            x       y       z     vdW  Elec       q    Type
REMARK                         _______ _______ _______ _____ _____    ______ ____
ROOT
ATOM      1  C   UNL     1      47.690   5.073  15.261  0.00  0.00    +0.000 A 
ATOM      2  C   UNL     1      48.009   6.369  14.863  0.00  0.00    +0.000 A 
ATOM      3  C   UNL     1      47.560   6.885  13.638  0.00  0.00    +0.000 A 
ATOM      4  C   UNL     1      46.760   6.101  12.784  0.00  0.00    +0.000 A 
ATOM      5  C   UNL     1      46.421   4.808  13.198  0.00  0.00    +0.000 A 
ATOM      6  C   UNL     1      46.871   4.298  14.425  0.00  0.00    +0.000 A 
ENDROOT
BRANCH   1   7
ATOM      7  C   UNL     1      48.251   4.489  16.542  0.00  0.00    +0.000 C 
BRANCH   7   8
ATOM      8  C   UNL     1      47.855   3.030  16.773  0.00  0.00    +0.000 C 
BRANCH   8   9
ATOM      9  N   UNL     1      46.717   2.935  17.696  0.00  0.00    +0.000 NA
ATOM     10  H   UNL     1      46.524   3.857  18.090  0.00  0.00    +0.000 HD
ATOM     11  H   UNL     1      46.960   2.335  18.485  0.00  0.00    +0.000 HD
ENDBRANCH   8   9
ENDBRANCH   7   8
ENDBRANCH   1   7
BRANCH   4  12
ATOM     12  C   UNL     1      46.356   6.601  11.408  0.00  0.00    +0.000 C 
BRANCH  12  13
ATOM     13  N   UNL     1      45.219   5.841  10.896  0.00  0.00    +0.000 N 
ATOM     14  N   UNL     1      44.100   5.723  11.652  0.00  0.00    +0.000 NA
ATOM     15  C   UNL     1      43.571   4.574  11.220  0.00  0.00    +0.000 A 
ATOM     16  C   UNL     1      44.295   4.011  10.145  0.00  0.00    +0.000 A 
ATOM     17  C   UNL     1      44.254   2.818   9.406  0.00  0.00    +0.000 A 
ATOM     18  C   UNL     1      45.111   2.678   8.308  0.00  0.00    +0.000 A 
ATOM     19  C   UNL     1      45.955   3.721   7.923  0.00  0.00    +0.000 A 
ATOM     20  C   UNL     1      46.051   4.892   8.682  0.00  0.00    +0.000 A 
ATOM     21  C   UNL     1      45.243   4.978   9.822  0.00  0.00    +0.000 A 
ENDBRANCH  12  13
ENDBRANCH   4  12
TORSDOF 5
ENDMDL
MODEL 7
REMARK VINA RESULT:    -5.491      4.916      7.703
REMARK INTER + INTRA:          -7.678
REMARK INTER:                  -7.418
REMARK INTRA:                  -0.260
REMARK UNBOUND:                -0.742
REMARK  Name = 
REMARK  5 active torsions:
REMARK  status: ('A' for Active; 'I' for Inactive)
REMARK    1  A    between atoms: N_1  and  C_2
REMARK    2  A    between atoms: C_2  and  C_3
REMARK    3  A    between atoms: C_3  and  C_4
REMARK    4  A    between atoms: C_7  and  C_8
REMARK    5  A    between atoms: C_8  and  N_9
REMARK                            x       y       z     vdW  Elec       q    Type
REMARK                         _______ _______ _______ _____ _____    ______ ____
ROOT
ATOM      1  C   UNL     1      50.951   2.812  17.569  0.00  0.00    +0.000 A 
ATOM      2  C   UNL     1      50.602   4.142  17.789  0.00  0.00    +0.000 A 
ATOM      3  C   UNL     1      49.374   4.655  17.344  0.00  0.00    +0.000 A 
ATOM      4  C   UNL     1      48.456   3.824  16.673  0.00  0.00    +0.000 A 
ATOM      5  C   UNL     1      48.799   2.483  16.475  0.00  0.00    +0.000 A 
ATOM      6  C   UNL     1      50.028   1.975  16.923  0.00  0.00    +0.000 A 
ENDROOT
BRANCH   1   7
ATOM      7  C   UNL     1      52.315   2.285  17.970  0.00  0.00    +0.000 C 
BRANCH   7   8
ATOM      8  C   UNL     1      52.614   0.887  17.428  0.00  0.00    +0.000 C 
BRANCH   8   9
ATOM      9  N   UNL     1      52.243  -0.145  18.404  0.00  0.00    +0.000 NA
ATOM     10  H   UNL     1      52.105   0.289  19.318  0.00  0.00    +0.000 HD
ATOM     11  H   UNL     1      53.013  -0.805  18.518  0.00  0.00    +0.000 HD
ENDBRANCH   8   9
ENDBRANCH   7   8
ENDBRANCH   1   7
BRANCH   4  12
ATOM     12  C   UNL     1      47.171   4.386  16.088  0.00  0.00    +0.000 C 
BRANCH  12  13
ATOM     13  N   UNL     1      47.405   4.931  14.754  0.00  0.00    +0.000 N 
ATOM     14  N   UNL     1      48.168   6.043  14.613  0.00  0.00    +0.000 NA
ATOM     15  C   UNL     1      47.704   6.577  13.479  0.00  0.00    +0.000 A 
ATOM     16  C   UNL     1      46.719   5.774  12.861  0.00  0.00    +0.000 A 
ATOM     17  C   UNL     1      45.857   5.890  11.759  0.00  0.00    +0.000 A 
ATOM     18  C   UNL     1      45.074   4.787  11.400  0.00  0.00    +0.000 A 
ATOM     19  C   UNL     1      45.182   3.578  12.089  0.00  0.00    +0.000 A 
ATOM     20  C   UNL     1      45.992   3.464  13.224  0.00  0.00    +0.000 A 
ATOM     21  C   UNL     1      46.705   4.604  13.614  0.00  0.00    +0.000 A 
ENDBRANCH  12  13
ENDBRANCH   4  12
TORSDOF 5
ENDMDL
MODEL 8
REMARK VINA RESULT:    -5.450      1.715      2.495
REMARK INTER + INTRA:          -7.626
REMARK INTER:                  -7.357
REMARK INTRA:                  -0.269
REMARK UNBOUND:                -0.742
REMARK  Name = 
REMARK  5 active torsions:
REMARK  status: ('A' for Active; 'I' for Inactive)
REMARK    1  A    between atoms: N_1  and  C_2
REMARK    2  A    between atoms: C_2  and  C_3
REMARK    3  A    between atoms: C_3  and  C_4
REMARK    4  A    between atoms: C_7  and  C_8
REMARK    5  A    between atoms: C_8  and  N_9
REMARK                            x       y       z     vdW  Elec       q    Type
REMARK                         _______ _______ _______ _____ _____    ______ ____
ROOT
ATOM      1  C   UNL     1      44.973   3.985   9.204  0.00  0.00    +0.000 A 
ATOM      2  C   UNL     1      45.727   5.140   9.401  0.00  0.00    +0.000 A 
ATOM      3  C   UNL     1      45.648   5.863  10.602  0.00  0.00    +0.000 A 
ATOM      4  C   UNL     1      44.807   5.425  11.644  0.00  0.00    +0.000 A 
ATOM      5  C   UNL     1      44.070   4.252  11.450  0.00  0.00    +0.000 A 
ATOM      6  C   UNL     1      44.154   3.532  10.249  0.00  0.00    +0.000 A 
ENDROOT
BRANCH   1   7
ATOM      7  C   UNL     1      44.993   3.259   7.873  0.00  0.00    +0.000 C 
BRANCH   7   8
ATOM      8  C   UNL     1      46.308   3.420   7.109  0.00  0.00    +0.000 C 
BRANCH   8   9
ATOM      9  N   UNL     1      47.132   2.210   7.222  0.00  0.00    +0.000 NA
ATOM     10  H   UNL     1      46.892   1.717   8.084  0.00  0.00    +0.000 HD
ATOM     11  H   UNL     1      48.116   2.468   7.308  0.00  0.00    +0.000 HD
ENDBRANCH   8   9
ENDBRANCH   7   8
ENDBRANCH   1   7
BRANCH   4  12
ATOM     12  C   UNL     1      44.625   6.251  12.905  0.00  0.00    +0.000 C 
BRANCH  12  13
ATOM     13  N   UNL     1      45.477   7.437  12.874  0.00  0.00    +0.000 N 
ATOM     14  N   UNL     1      44.952   8.626  12.488  0.00  0.00    +0.000 NA
ATOM     15  C   UNL     1      46.016   9.279  12.011  0.00  0.00    +0.000 A 
ATOM     16  C   UNL     1      47.217   8.550  12.168  0.00  0.00    +0.000 A 
ATOM     17  C   UNL     1      48.557   8.700  11.774  0.00  0.00    +0.000 A 
ATOM     18  C   UNL     1      49.501   7.776  12.237  0.00  0.00    +0.000 A 
ATOM     19  C   UNL     1      49.131   6.754  13.112  0.00  0.00    +0.000 A 
ATOM     20  C   UNL     1      47.793   6.555  13.467  0.00  0.00    +0.000 A 
ATOM     21  C   UNL     1      46.854   7.443  12.929  0.00  0.00    +0.000 A 
ENDBRANCH  12  13
ENDBRANCH   4  12
TORSDOF 5
ENDMDL
MODEL 9
REMARK VINA RESULT:    -4.947      3.363      5.454
REMARK INTER + INTRA:          -6.991
REMARK INTER:                  -6.462
REMARK INTRA:                  -0.529
REMARK UNBOUND:                -0.742
REMARK  Name = 
REMARK  5 active torsions:
REMARK  status: ('A' for Active; 'I' for Inactive)
REMARK    1  A    between atoms: N_1  and  C_2
REMARK    2  A    between atoms: C_2  and  C_3
REMARK    3  A    between atoms: C_3  and  C_4
REMARK    4  A    between atoms: C_7  and  C_8
REMARK    5  A    between atoms: C_8  and  N_9
REMARK                            x       y       z     vdW  Elec       q    Type
REMARK                         _______ _______ _______ _____ _____    ______ ____
ROOT
ATOM      1  C   UNL     1      44.863   5.090  11.776  0.00  0.00    +0.000 A 
ATOM      2  C   UNL     1      45.322   4.689  13.029  0.00  0.00    +0.000 A 
ATOM      3  C   UNL     1      46.505   5.216  13.572  0.00  0.00    +0.000 A 
ATOM      4  C   UNL     1      47.249   6.178  12.862  0.00  0.00    +0.000 A 
ATOM      5  C   UNL     1      46.770   6.597  11.616  0.00  0.00    +0.000 A 
ATOM      6  C   UNL     1      45.587   6.068  11.078  0.00  0.00    +0.000 A 
ENDROOT
BRANCH   1   7
ATOM      7  C   UNL     1      43.636   4.452  11.155  0.00  0.00    +0.000 C 
BRANCH   7   8
ATOM      8  C   UNL     1      43.831   2.980  10.790  0.00  0.00    +0.000 C 
BRANCH   8   9
ATOM      9  N   UNL     1      43.063   2.110  11.690  0.00  0.00    +0.000 NA
ATOM     10  H   UNL     1      43.709   1.565  12.264  0.00  0.00    +0.000 HD
ATOM     11  H   UNL     1      42.529   1.433  11.145  0.00  0.00    +0.000 HD
ENDBRANCH   8   9
ENDBRANCH   7   8
ENDBRANCH   1   7
BRANCH   4  12
ATOM     12  C   UNL     1      48.585   6.679  13.383  0.00  0.00    +0.000 C 
BRANCH  12  13
ATOM     13  N   UNL     1      48.413   7.392  14.645  0.00  0.00    +0.000 N 
ATOM     14  N   UNL     1      48.127   8.717  14.629  0.00  0.00    +0.000 NA
ATOM     15  C   UNL     1      48.613   9.140  15.800  0.00  0.00    +0.000 A 
ATOM     16  C   UNL     1      49.126   8.085  16.589  0.00  0.00    +0.000 A 
ATOM     17  C   UNL     1      49.820   7.968  17.804  0.00  0.00    +0.000 A 
ATOM     18  C   UNL     1      50.064   6.689  18.318  0.00  0.00    +0.000 A 
ATOM     19  C   UNL     1      49.586   5.553  17.664  0.00  0.00    +0.000 A 
ATOM     20  C   UNL     1      48.946   5.648  16.424  0.00  0.00    +0.000 A 
ATOM     21  C   UNL     1      48.782   6.931  15.890  0.00  0.00    +0.000 A 
ENDBRANCH  12  13
ENDBRANCH   4  12
TORSDOF 5
ENDMDL
