MODEL 1
REMARK VINA RESULT:    -7.463      0.000      0.000
REMARK INTER + INTRA:          -9.109
REMARK INTER:                  -8.772
REMARK INTRA:                  -0.337
REMARK UNBOUND:                -0.337
REMARK  Name = 
REMARK  4 active torsions:
REMARK  status: ('A' for Active; 'I' for Inactive)
REMARK    1  A    between atoms: C_1  and  C_2
REMARK    2  A    between atoms: C_2  and  N_3
REMARK    3  A    between atoms: C_2  and  C_13
REMARK    4  A    between atoms: C_7  and  C_8
REMARK                            x       y       z     vdW  Elec       q    Type
REMARK                         _______ _______ _______ _____ _____    ______ ____
ROOT
ATOM      1  N   UNL     1      43.874   4.936   9.805  0.00  0.00    +0.000 N 
ATOM      2  C   UNL     1      44.611   3.906   9.203  0.00  0.00    +0.000 A 
ATOM      3  C   UNL     1      44.916   4.031   7.849  0.00  0.00    +0.000 A 
ATOM      4  C   UNL     1      45.689   3.056   7.214  0.00  0.00    +0.000 A 
ATOM      5  C   UNL     1      46.156   1.961   7.940  0.00  0.00    +0.000 A 
ATOM      6  C   UNL     1      45.786   1.900   9.275  0.00  0.00    +0.000 A 
ATOM      7  N   UNL     1      45.022   2.835   9.910  0.00  0.00    +0.000 NA
ATOM      8  H   UNL     1      44.389   5.799   9.660  0.00  0.00    +0.000 HD
ENDROOT
BRANCH   5   9
ATOM      9  C   UNL     1      47.002   0.951   7.262  0.00  0.00    +0.000 C 
ATOM     10  N   UNL     1      46.803  -0.378   7.527  0.00  0.00    +0.000 N 
ATOM     11  O   UNL     1      47.884   1.288   6.481  0.00  0.00    +0.000 OA
ATOM     12  H   UNL     1      46.128  -0.761   8.168  0.00  0.00    +0.000 HD
ATOM     13  H   UNL     1      47.417  -1.026   7.048  0.00  0.00    +0.000 HD
ENDBRANCH   5   9
BRANCH   1  15
ATOM     14  C   UNL     1      42.331   5.642  11.583  0.00  0.00    +0.000 C 
ATOM     15  C   UNL     1      43.530   4.760  11.219  0.00  0.00    +0.000 C 
BRANCH  15  16
ATOM     16  C   UNL     1      44.707   5.144  12.118  0.00  0.00    +0.000 A 
ATOM     17  C   UNL     1      45.424   6.322  11.835  0.00  0.00    +0.000 A 
ATOM     18  C   UNL     1      46.549   6.670  12.580  0.00  0.00    +0.000 A 
ATOM     19  C   UNL     1      46.964   5.845  13.616  0.00  0.00    +0.000 A 
ATOM     20  F   UNL     1      48.053   6.172  14.323  0.00  0.00    +0.000 F 
ATOM     21  C   UNL     1      46.272   4.679  13.921  0.00  0.00    +0.000 A 
ATOM     22  C   UNL     1      45.151   4.323  13.169  0.00  0.00    +0.000 A 
ENDBRANCH  15  16
ENDBRANCH   1  15
TORSDOF 3
ENDMDL
MODEL 2
REMARK VINA RESULT:    -7.129      3.785      6.717
REMARK INTER + INTRA:          -8.716
REMARK INTER:                  -8.216
REMARK INTRA:                  -0.500
REMARK UNBOUND:                -0.337
REMARK  Name = 
REMARK  4 active torsions:
REMARK  status: ('A' for Active; 'I' for Inactive)
REMARK    1  A    between atoms: C_1  and  C_2
REMARK    2  A    between atoms: C_2  and  N_3
REMARK    3  A    between atoms: C_2  and  C_13
REMARK    4  A    between atoms: C_7  and  C_8
REMARK                            x       y       z     vdW  Elec       q    Type
REMARK                         _______ _______ _______ _____ _____    ______ ____
ROOT
ATOM      1  N   UNL     1      45.361   3.174  11.035  0.00  0.00    +0.000 N 
ATOM      2  C   UNL     1      45.387   4.497  11.498  0.00  0.00    +0.000 A 
ATOM      3  C   UNL     1      46.024   4.750  12.710  0.00  0.00    +0.000 A 
ATOM      4  C   UNL     1      46.119   6.058  13.191  0.00  0.00    +0.000 A 
ATOM      5  C   UNL     1      45.577   7.108  12.452  0.00  0.00    +0.000 A 
ATOM      6  C   UNL     1      44.937   6.767  11.270  0.00  0.00    +0.000 A 
ATOM      7  N   UNL     1      44.823   5.496  10.789  0.00  0.00    +0.000 NA
ATOM      8  H   UNL     1      46.325   2.858  10.974  0.00  0.00    +0.000 HD
ENDROOT
BRANCH   5   9
ATOM      9  C   UNL     1      45.712   8.494  12.958  0.00  0.00    +0.000 C 
ATOM     10  N   UNL     1      46.615   8.760  13.955  0.00  0.00    +0.000 N 
ATOM     11  O   UNL     1      45.020   9.401  12.510  0.00  0.00    +0.000 OA
ATOM     12  H   UNL     1      47.210   8.089  14.410  0.00  0.00    +0.000 HD
ATOM     13  H   UNL     1      46.657   9.720  14.274  0.00  0.00    +0.000 HD
ENDBRANCH   5   9
BRANCH   1  15
ATOM     14  C   UNL     1      43.762   1.685   9.909  0.00  0.00    +0.000 C 
ATOM     15  C   UNL     1      44.648   2.928   9.778  0.00  0.00    +0.000 C 
BRANCH  15  16
ATOM     16  C   UNL     1      45.631   2.707   8.627  0.00  0.00    +0.000 A 
ATOM     17  C   UNL     1      45.923   3.781   7.765  0.00  0.00    +0.000 A 
ATOM     18  C   UNL     1      46.752   3.603   6.658  0.00  0.00    +0.000 A 
ATOM     19  C   UNL     1      47.298   2.352   6.408  0.00  0.00    +0.000 A 
ATOM     20  F   UNL     1      48.084   2.179   5.338  0.00  0.00    +0.000 F 
ATOM     21  C   UNL     1      47.031   1.276   7.246  0.00  0.00    +0.000 A 
ATOM     22  C   UNL     1      46.192   1.449   8.348  0.00  0.00    +0.000 A 
ENDBRANCH  15  16
ENDBRANCH   1  15
TORSDOF 3
ENDMDL
MODEL 3
REMARK VINA RESULT:    -7.075      4.095      6.945
REMARK INTER + INTRA:          -8.652
REMARK INTER:                  -8.165
REMARK INTRA:                  -0.487
REMARK UNBOUND:                -0.337
REMARK  Name = 
REMARK  4 active torsions:
REMARK  status: ('A' for Active; 'I' for Inactive)
REMARK    1  A    between atoms: C_1  and  C_2
REMARK    2  A    between atoms: C_2  and  N_3
REMARK    3  A    between atoms: C_2  and  C_13
REMARK    4  A    between atoms: C_7  and  C_8
REMARK                            x       y       z     vdW  Elec       q    Type
REMARK                         _______ _______ _______ _____ _____    ______ ____
ROOT
ATOM      1  N   UNL     1      45.151   4.699  11.858  0.00  0.00    +0.000 N 
ATOM      2  C   UNL     1      45.139   6.099  11.930  0.00  0.00    +0.000 A 
ATOM      3  C   UNL     1      46.011   6.711  12.828  0.00  0.00    +0.000 A 
ATOM      4  C   UNL     1      46.072   8.104  12.903  0.00  0.00    +0.000 A 
ATOM      5  C   UNL     1      45.261   8.879  12.075  0.00  0.00    +0.000 A 
ATOM      6  C   UNL     1      44.404   8.191  11.230  0.00  0.00    +0.000 A 
ATOM      7  N   UNL     1      44.320   6.832  11.150  0.00  0.00    +0.000 NA
ATOM      8  H   UNL     1      46.102   4.416  11.640  0.00  0.00    +0.000 HD
ENDROOT
BRANCH   5   9
ATOM      9  C   UNL     1      45.359  10.356  12.143  0.00  0.00    +0.000 C 
ATOM     10  N   UNL     1      46.582  10.939  12.348  0.00  0.00    +0.000 N 
ATOM     11  O   UNL     1      44.363  11.061  12.033  0.00  0.00    +0.000 OA
ATOM     12  H   UNL     1      47.455  10.456  12.477  0.00  0.00    +0.000 HD
ATOM     13  H   UNL     1      46.591  11.950  12.400  0.00  0.00    +0.000 HD
ENDBRANCH   5   9
BRANCH   1  15
ATOM     14  C   UNL     1      43.483   2.908  11.625  0.00  0.00    +0.000 C 
ATOM     15  C   UNL     1      44.194   4.078  10.936  0.00  0.00    +0.000 C 
BRANCH  15  16
ATOM     16  C   UNL     1      44.904   3.550   9.688  0.00  0.00    +0.000 A 
ATOM     17  C   UNL     1      45.065   2.160   9.534  0.00  0.00    +0.000 A 
ATOM     18  C   UNL     1      45.772   1.639   8.451  0.00  0.00    +0.000 A 
ATOM     19  C   UNL     1      46.320   2.503   7.514  0.00  0.00    +0.000 A 
ATOM     20  F   UNL     1      47.011   2.003   6.482  0.00  0.00    +0.000 F 
ATOM     21  C   UNL     1      46.171   3.879   7.639  0.00  0.00    +0.000 A 
ATOM     22  C   UNL     1      45.473   4.404   8.728  0.00  0.00    +0.000 A 
ENDBRANCH  15  16
ENDBRANCH   1  15
TORSDOF 3
ENDMDL
MODEL 4
REMARK VINA RESULT:    -7.068      3.649      6.123
REMARK INTER + INTRA:          -8.645
REMARK INTER:                  -9.495
REMARK INTRA:                   0.850
REMARK UNBOUND:                -0.337
REMARK  Name = 
REMARK  4 active torsions:
REMARK  status: ('A' for Active; 'I' for Inactive)
REMARK    1  A    between atoms: C_1  and  C_2
REMARK    2  A    between atoms: C_2  and  N_3
REMARK    3  A    between atoms: C_2  and  C_13
REMARK    4  A    between atoms: C_7  and  C_8
REMARK                            x       y       z     vdW  Elec       q    Type
REMARK                         _______ _______ _______ _____ _____    ______ ____
ROOT
ATOM      1  N   UNL     1      44.736   5.478  10.389  0.00  0.00    +0.000 N 
ATOM      2  C   UNL     1      45.438   5.241  11.580  0.00  0.00    +0.000 A 
ATOM      3  C   UNL     1      46.091   6.318  12.175  0.00  0.00    +0.000 A 
ATOM      4  C   UNL     1      46.763   6.145  13.387  0.00  0.00    +0.000 A 
ATOM      5  C   UNL     1      46.776   4.893  13.999  0.00  0.00    +0.000 A 
ATOM      6  C   UNL     1      46.123   3.870  13.328  0.00  0.00    +0.000 A 
ATOM      7  N   UNL     1      45.472   4.015  12.139  0.00  0.00    +0.000 NA
ATOM      8  H   UNL     1      44.059   6.211  10.580  0.00  0.00    +0.000 HD
ENDROOT
BRANCH   5   9
ATOM      9  C   UNL     1      47.465   4.731  15.301  0.00  0.00    +0.000 C 
ATOM     10  N   UNL     1      47.059   3.742  16.157  0.00  0.00    +0.000 N 
ATOM     11  O   UNL     1      48.381   5.477  15.628  0.00  0.00    +0.000 OA
ATOM     12  H   UNL     1      46.304   3.095  16.001  0.00  0.00    +0.000 HD
ATOM     13  H   UNL     1      47.554   3.684  17.039  0.00  0.00    +0.000 HD
ENDBRANCH   5   9
BRANCH   1  15
ATOM     14  C   UNL     1      43.487   3.408  10.834  0.00  0.00    +0.000 C 
ATOM     15  C   UNL     1      44.093   4.319   9.762  0.00  0.00    +0.000 C 
BRANCH  15  16
ATOM     16  C   UNL     1      45.103   3.509   8.948  0.00  0.00    +0.000 A 
ATOM     17  C   UNL     1      45.904   4.175   8.001  0.00  0.00    +0.000 A 
ATOM     18  C   UNL     1      46.783   3.465   7.184  0.00  0.00    +0.000 A 
ATOM     19  C   UNL     1      46.870   2.086   7.310  0.00  0.00    +0.000 A 
ATOM     20  F   UNL     1      47.704   1.403   6.516  0.00  0.00    +0.000 F 
ATOM     21  C   UNL     1      46.095   1.404   8.241  0.00  0.00    +0.000 A 
ATOM     22  C   UNL     1      45.206   2.111   9.053  0.00  0.00    +0.000 A 
ENDBRANCH  15  16
ENDBRANCH   1  15
TORSDOF 3
ENDMDL
MODEL 5
REMARK VINA RESULT:    -6.900      3.920      6.827
REMARK INTER + INTRA:          -8.447
REMARK INTER:                  -7.947
REMARK INTRA:                  -0.500
REMARK UNBOUND:                -0.337
REMARK  Name = 
REMARK  4 active torsions:
REMARK  status: ('A' for Active; 'I' for Inactive)
REMARK    1  A    between atoms: C_1  and  C_2
REMARK    2  A    between atoms: C_2  and  N_3
REMARK    3  A    between atoms: C_2  and  C_13
REMARK    4  A    between atoms: C_7  and  C_8
REMARK                            x       y       z     vdW  Elec       q    Type
REMARK                         _______ _______ _______ _____ _____    ______ ____
ROOT
ATOM      1  N   UNL     1      45.504   3.862  12.109  0.00  0.00    +0.000 N 
ATOM      2  C   UNL     1      45.998   5.096  12.556  0.00  0.00    +0.000 A 
ATOM      3  C   UNL     1      46.947   5.085  13.576  0.00  0.00    +0.000 A 
ATOM      4  C   UNL     1      47.506   6.285  14.024  0.00  0.00    +0.000 A 
ATOM      5  C   UNL     1      47.113   7.490  13.444  0.00  0.00    +0.000 A 
ATOM      6  C   UNL     1      46.145   7.414  12.454  0.00  0.00    +0.000 A 
ATOM      7  N   UNL     1      45.578   6.255  12.011  0.00  0.00    +0.000 NA
ATOM      8  H   UNL     1      46.302   3.308  11.813  0.00  0.00    +0.000 HD
ENDROOT
BRANCH   5   9
ATOM      9  C   UNL     1      47.737   8.752  13.906  0.00  0.00    +0.000 C 
ATOM     10  N   UNL     1      47.530   9.172  15.194  0.00  0.00    +0.000 N 
ATOM     11  O   UNL     1      48.422   9.432  13.151  0.00  0.00    +0.000 OA
ATOM     12  H   UNL     1      46.966   8.707  15.886  0.00  0.00    +0.000 HD
ATOM     13  H   UNL     1      47.966  10.048  15.454  0.00  0.00    +0.000 HD
ENDBRANCH   5   9
BRANCH   1  15
ATOM     14  C   UNL     1      43.351   2.916  11.394  0.00  0.00    +0.000 C 
ATOM     15  C   UNL     1      44.476   3.903  11.064  0.00  0.00    +0.000 C 
BRANCH  15  16
ATOM     16  C   UNL     1      45.067   3.532   9.703  0.00  0.00    +0.000 A 
ATOM     17  C   UNL     1      45.220   2.171   9.376  0.00  0.00    +0.000 A 
ATOM     18  C   UNL     1      45.824   1.788   8.179  0.00  0.00    +0.000 A 
ATOM     19  C   UNL     1      46.276   2.762   7.300  0.00  0.00    +0.000 A 
ATOM     20  F   UNL     1      46.868   2.394   6.157  0.00  0.00    +0.000 F 
ATOM     21  C   UNL     1      46.132   4.112   7.596  0.00  0.00    +0.000 A 
ATOM     22  C   UNL     1      45.538   4.499   8.798  0.00  0.00    +0.000 A 
ENDBRANCH  15  16
ENDBRANCH   1  15
TORSDOF 3
ENDMDL
MODEL 6
REMARK VINA RESULT:    -6.479      1.372      2.020
REMARK INTER + INTRA:          -7.952
REMARK INTER:                  -8.690
REMARK INTRA:                   0.738
REMARK UNBOUND:                -0.337
REMARK  Name = 
REMARK  4 active torsions:
REMARK  status: ('A' for Active; 'I' for Inactive)
REMARK    1  A    between atoms: C_1  and  C_2
REMARK    2  A    between atoms: C_2  and  N_3
REMARK    3  A    between atoms: C_2  and  C_13
REMARK    4  A    between atoms: C_7  and  C_8
REMARK                            x       y       z     vdW  Elec       q    Type
REMARK                         _______ _______ _______ _____ _____    ______ ____
ROOT
ATOM      1  N   UNL     1      44.118   2.879  10.809  0.00  0.00    +0.000 N 
ATOM      2  C   UNL     1      44.952   2.890   9.682  0.00  0.00    +0.000 A 
ATOM      3  C   UNL     1      45.278   1.666   9.102  0.00  0.00    +0.000 A 
ATOM      4  C   UNL     1      46.065   1.626   7.949  0.00  0.00    +0.000 A 
ATOM      5  C   UNL     1      46.521   2.815   7.381  0.00  0.00    +0.000 A 
ATOM      6  C   UNL     1      46.174   3.987   8.035  0.00  0.00    +0.000 A 
ATOM      7  N   UNL     1      45.416   4.046   9.169  0.00  0.00    +0.000 NA
ATOM      8  H   UNL     1      43.262   2.399  10.546  0.00  0.00    +0.000 HD
ENDROOT
BRANCH   5   9
ATOM      9  C   UNL     1      47.329   2.760   6.140  0.00  0.00    +0.000 C 
ATOM     10  N   UNL     1      48.675   2.515   6.225  0.00  0.00    +0.000 N 
ATOM     11  O   UNL     1      46.815   2.946   5.043  0.00  0.00    +0.000 OA
ATOM     12  H   UNL     1      49.200   2.376   7.072  0.00  0.00    +0.000 HD
ATOM     13  H   UNL     1      49.182   2.503   5.349  0.00  0.00    +0.000 HD
ENDBRANCH   5   9
BRANCH   1  15
ATOM     14  C   UNL     1      43.380   5.179  10.357  0.00  0.00    +0.000 C 
ATOM     15  C   UNL     1      43.826   4.176  11.426  0.00  0.00    +0.000 C 
BRANCH  15  16
ATOM     16  C   UNL     1      45.062   4.735  12.133  0.00  0.00    +0.000 A 
ATOM     17  C   UNL     1      45.793   3.893  12.992  0.00  0.00    +0.000 A 
ATOM     18  C   UNL     1      46.880   4.382  13.716  0.00  0.00    +0.000 A 
ATOM     19  C   UNL     1      47.246   5.714  13.583  0.00  0.00    +0.000 A 
ATOM     20  F   UNL     1      48.281   6.186  14.288  0.00  0.00    +0.000 F 
ATOM     21  C   UNL     1      46.544   6.565  12.738  0.00  0.00    +0.000 A 
ATOM     22  C   UNL     1      45.449   6.081  12.021  0.00  0.00    +0.000 A 
ENDBRANCH  15  16
ENDBRANCH   1  15
TORSDOF 3
ENDMDL
MODEL 7
REMARK VINA RESULT:    -6.347      4.554      6.480
REMARK INTER + INTRA:          -7.797
REMARK INTER:                  -7.359
REMARK INTRA:                  -0.438
REMARK UNBOUND:                -0.337
REMARK  Name = 
REMARK  4 active torsions:
REMARK  status: ('A' for Active; 'I' for Inactive)
REMARK    1  A    between atoms: C_1  and  C_2
REMARK    2  A    between atoms: C_2  and  N_3
REMARK    3  A    between atoms: C_2  and  C_13
REMARK    4  A    between atoms: C_7  and  C_8
REMARK                            x       y       z     vdW  Elec       q    Type
REMARK                         _______ _______ _______ _____ _____    ______ ____
ROOT
ATOM      1  N   UNL     1      47.919   5.359  15.629  0.00  0.00    +0.000 N 
ATOM      2  C   UNL     1      47.141   5.285  14.465  0.00  0.00    +0.000 A 
ATOM      3  C   UNL     1      47.276   6.305  13.526  0.00  0.00    +0.000 A 
ATOM      4  C   UNL     1      46.559   6.253  12.328  0.00  0.00    +0.000 A 
ATOM      5  C   UNL     1      45.712   5.175  12.076  0.00  0.00    +0.000 A 
ATOM      6  C   UNL     1      45.615   4.216  13.072  0.00  0.00    +0.000 A 
ATOM      7  N   UNL     1      46.297   4.256  14.254  0.00  0.00    +0.000 NA
ATOM      8  H   UNL     1      48.891   5.415  15.338  0.00  0.00    +0.000 HD
ENDROOT
BRANCH   5   9
ATOM      9  C   UNL     1      44.981   5.116  10.787  0.00  0.00    +0.000 C 
ATOM     10  N   UNL     1      45.623   5.484   9.634  0.00  0.00    +0.000 N 
ATOM     11  O   UNL     1      43.810   4.758  10.741  0.00  0.00    +0.000 OA
ATOM     12  H   UNL     1      46.570   5.818   9.563  0.00  0.00    +0.000 HD
ATOM     13  H   UNL     1      45.075   5.439   8.784  0.00  0.00    +0.000 HD
ENDBRANCH   5   9
BRANCH   1  15
ATOM     14  C   UNL     1      47.079   4.866  17.886  0.00  0.00    +0.000 C 
ATOM     15  C   UNL     1      47.727   4.296  16.619  0.00  0.00    +0.000 C 
BRANCH  15  16
ATOM     16  C   UNL     1      49.064   3.658  17.001  0.00  0.00    +0.000 A 
ATOM     17  C   UNL     1      50.104   4.485  17.467  0.00  0.00    +0.000 A 
ATOM     18  C   UNL     1      51.362   3.956  17.752  0.00  0.00    +0.000 A 
ATOM     19  C   UNL     1      51.588   2.599  17.578  0.00  0.00    +0.000 A 
ATOM     20  F   UNL     1      52.801   2.094  17.840  0.00  0.00    +0.000 F 
ATOM     21  C   UNL     1      50.578   1.759  17.126  0.00  0.00    +0.000 A 
ATOM     22  C   UNL     1      49.320   2.287  16.828  0.00  0.00    +0.000 A 
ENDBRANCH  15  16
ENDBRANCH   1  15
TORSDOF 3
ENDMDL
MODEL 8
REMARK VINA RESULT:    -5.782      4.602      6.933
REMARK INTER + INTRA:          -7.133
REMARK INTER:                  -6.688
REMARK INTRA:                  -0.445
REMARK UNBOUND:                -0.337
REMARK  Name = 
REMARK  4 active torsions:
REMARK  status: ('A' for Active; 'I' for Inactive)
REMARK    1  A    between atoms: C_1  and  C_2
REMARK    2  A    between atoms: C_2  and  N_3
REMARK    3  A    between atoms: C_2  and  C_13
REMARK    4  A    between atoms: C_7  and  C_8
REMARK                            x       y       z     vdW  Elec       q    Type
REMARK                         _______ _______ _______ _____ _____    ______ ____
ROOT
ATOM      1  N   UNL     1      46.250   6.139  12.460  0.00  0.00    +0.000 N 
ATOM      2  C   UNL     1      47.483   6.776  12.660  0.00  0.00    +0.000 A 
ATOM      3  C   UNL     1      48.110   6.604  13.893  0.00  0.00    +0.000 A 
ATOM      4  C   UNL     1      49.363   7.177  14.125  0.00  0.00    +0.000 A 
ATOM      5  C   UNL     1      49.982   7.918  13.120  0.00  0.00    +0.000 A 
ATOM      6  C   UNL     1      49.279   8.062  11.934  0.00  0.00    +0.000 A 
ATOM      7  N   UNL     1      48.050   7.521  11.691  0.00  0.00    +0.000 NA
ATOM      8  H   UNL     1      46.393   5.147  12.623  0.00  0.00    +0.000 HD
ENDROOT
BRANCH   5   9
ATOM      9  C   UNL     1      51.325   8.494  13.369  0.00  0.00    +0.000 C 
ATOM     10  N   UNL     1      52.228   7.791  14.122  0.00  0.00    +0.000 N 
ATOM     11  O   UNL     1      51.633   9.594  12.925  0.00  0.00    +0.000 OA
ATOM     12  H   UNL     1      52.070   6.897  14.556  0.00  0.00    +0.000 HD
ATOM     13  H   UNL     1      53.125   8.236  14.274  0.00  0.00    +0.000 HD
ENDBRANCH   5   9
BRANCH   1  15
ATOM     14  C   UNL     1      44.304   7.179  11.375  0.00  0.00    +0.000 C 
ATOM     15  C   UNL     1      45.590   6.371  11.171  0.00  0.00    +0.000 C 
BRANCH  15  16
ATOM     16  C   UNL     1      45.230   5.045  10.497  0.00  0.00    +0.000 A 
ATOM     17  C   UNL     1      44.657   4.020  11.274  0.00  0.00    +0.000 A 
ATOM     18  C   UNL     1      44.385   2.771  10.718  0.00  0.00    +0.000 A 
ATOM     19  C   UNL     1      44.680   2.539   9.382  0.00  0.00    +0.000 A 
ATOM     20  F   UNL     1      44.431   1.334   8.852  0.00  0.00    +0.000 F 
ATOM     21  C   UNL     1      45.241   3.535   8.591  0.00  0.00    +0.000 A 
ATOM     22  C   UNL     1      45.525   4.783   9.148  0.00  0.00    +0.000 A 
ENDBRANCH  15  16
ENDBRANCH   1  15
TORSDOF 3
ENDMDL
MODEL 9
REMARK VINA RESULT:    -5.485      5.883      8.453
REMARK INTER + INTRA:          -6.784
REMARK INTER:                  -6.296
REMARK INTRA:                  -0.488
REMARK UNBOUND:                -0.337
REMARK  Name = 
REMARK  4 active torsions:
REMARK  status: ('A' for Active; 'I' for Inactive)
REMARK    1  A    between atoms: C_1  and  C_2
REMARK    2  A    between atoms: C_2  and  N_3
REMARK    3  A    between atoms: C_2  and  C_13
REMARK    4  A    between atoms: C_7  and  C_8
REMARK                            x       y       z     vdW  Elec       q    Type
REMARK                         _______ _______ _______ _____ _____    ______ ____
ROOT
ATOM      1  N   UNL     1      48.309   7.192  14.765  0.00  0.00    +0.000 N 
ATOM      2  C   UNL     1      48.546   6.504  15.963  0.00  0.00    +0.000 A 
ATOM      3  C   UNL     1      48.688   7.255  17.128  0.00  0.00    +0.000 A 
ATOM      4  C   UNL     1      48.877   6.614  18.354  0.00  0.00    +0.000 A 
ATOM      5  C   UNL     1      48.920   5.222  18.409  0.00  0.00    +0.000 A 
ATOM      6  C   UNL     1      48.795   4.551  17.202  0.00  0.00    +0.000 A 
ATOM      7  N   UNL     1      48.623   5.159  15.992  0.00  0.00    +0.000 NA
ATOM      8  H   UNL     1      47.473   7.754  14.900  0.00  0.00    +0.000 HD
ENDROOT
BRANCH   5   9
ATOM      9  C   UNL     1      49.089   4.555  19.721  0.00  0.00    +0.000 C 
ATOM     10  N   UNL     1      48.443   3.370  19.959  0.00  0.00    +0.000 N 
ATOM     11  O   UNL     1      49.783   5.054  20.599  0.00  0.00    +0.000 OA
ATOM     12  H   UNL     1      47.831   2.889  19.322  0.00  0.00    +0.000 HD
ATOM     13  H   UNL     1      48.581   2.963  20.876  0.00  0.00    +0.000 HD
ENDBRANCH   5   9
BRANCH   1  15
ATOM     14  C   UNL     1      48.989   7.040  12.408  0.00  0.00    +0.000 C 
ATOM     15  C   UNL     1      48.205   6.381  13.548  0.00  0.00    +0.000 C 
BRANCH  15  16
ATOM     16  C   UNL     1      46.745   6.234  13.114  0.00  0.00    +0.000 A 
ATOM     17  C   UNL     1      46.015   5.113  13.552  0.00  0.00    +0.000 A 
ATOM     18  C   UNL     1      44.707   4.899  13.119  0.00  0.00    +0.000 A 
ATOM     19  C   UNL     1      44.120   5.805  12.247  0.00  0.00    +0.000 A 
ATOM     20  F   UNL     1      42.869   5.592  11.820  0.00  0.00    +0.000 F 
ATOM     21  C   UNL     1      44.816   6.922  11.803  0.00  0.00    +0.000 A 
ATOM     22  C   UNL     1      46.130   7.133  12.226  0.00  0.00    +0.000 A 
ENDBRANCH  15  16
ENDBRANCH   1  15
TORSDOF 3
ENDMDL
