MODEL 1
REMARK VINA RESULT:    -8.519      0.000      0.000
REMARK INTER + INTRA:         -12.012
REMARK INTER:                 -10.760
REMARK INTRA:                  -1.252
REMARK UNBOUND:                -1.252
REMARK  Name = 
REMARK  5 active torsions:
REMARK  status: ('A' for Active; 'I' for Inactive)
REMARK    1  A    between atoms: C_2  and  C_4
REMARK    2  A    between atoms: N_8  and  C_9
REMARK    3  A    between atoms: C_9  and  C_10
REMARK    4  A    between atoms: C_15  and  N_16
REMARK    5  A    between atoms: C_19  and  O_20
REMARK                            x       y       z     vdW  Elec       q    Type
REMARK                         _______ _______ _______ _____ _____    ______ ____
ROOT
ATOM      1  C   UNL     1      43.827   4.941  11.392  0.00  0.00    +0.000 C 
ATOM      2  C   UNL     1      42.465   5.127  12.061  0.00  0.00    +0.000 C 
ATOM      3  C   UNL     1      42.935   6.127  11.063  0.00  0.00    +0.000 C 
ENDROOT
BRANCH   1   8
ATOM      4  C   UNL     1      46.556   2.765   7.519  0.00  0.00    +0.000 A 
ATOM      5  C   UNL     1      46.171   4.094   7.666  0.00  0.00    +0.000 A 
ATOM      6  C   UNL     1      45.299   4.443   8.701  0.00  0.00    +0.000 A 
ATOM      7  C   UNL     1      44.833   3.465   9.567  0.00  0.00    +0.000 A 
ATOM      8  N   UNL     1      43.918   3.712  10.589  0.00  0.00    +0.000 N 
ATOM      9  N   UNL     1      45.182   2.165   9.417  0.00  0.00    +0.000 NA
ATOM     10  C   UNL     1      46.022   1.840   8.397  0.00  0.00    +0.000 A 
ATOM     11  H   UNL     1      43.811   2.833  11.091  0.00  0.00    +0.000 HD
BRANCH   4  13
ATOM     12  N   UNL     1      47.392   2.975   5.255  0.00  0.00    +0.000 N 
ATOM     13  C   UNL     1      47.469   2.311   6.450  0.00  0.00    +0.000 C 
ATOM     14  O   UNL     1      48.276   1.416   6.628  0.00  0.00    +0.000 OA
ATOM     15  H   UNL     1      48.078   2.730   4.556  0.00  0.00    +0.000 HD
ATOM     16  H   UNL     1      46.925   3.866   5.155  0.00  0.00    +0.000 HD
ENDBRANCH   4  13
ENDBRANCH   1   8
BRANCH   1  17
ATOM     17  C   UNL     1      45.079   5.272  12.201  0.00  0.00    +0.000 A 
ATOM     18  C   UNL     1      45.580   4.384  13.162  0.00  0.00    +0.000 A 
ATOM     19  C   UNL     1      46.790   4.634  13.803  0.00  0.00    +0.000 A 
ATOM     20  C   UNL     1      47.516   5.784  13.496  0.00  0.00    +0.000 A 
ATOM     21  F   UNL     1      48.669   5.969  14.157  0.00  0.00    +0.000 F 
ATOM     22  C   UNL     1      47.058   6.733  12.565  0.00  0.00    +0.000 A 
ATOM     23  C   UNL     1      45.823   6.446  11.953  0.00  0.00    +0.000 A 
BRANCH  22  24
ATOM     24  N   UNL     1      47.762   7.878  12.224  0.00  0.00    +0.000 N 
ATOM     25  C   UNL     1      47.357   9.200  12.700  0.00  0.00    +0.000 C 
ATOM     26  C   UNL     1      48.503   9.823  13.493  0.00  0.00    +0.000 C 
ATOM     27  C   UNL     1      49.818   9.806  12.716  0.00  0.00    +0.000 C 
ATOM     28  C   UNL     1      50.146   8.420  12.161  0.00  0.00    +0.000 C 
ATOM     29  C   UNL     1      48.968   7.824  11.396  0.00  0.00    +0.000 C 
BRANCH  27  30
ATOM     30  O   UNL     1      49.788  10.775  11.666  0.00  0.00    +0.000 OA
ATOM     31  H   UNL     1      50.509  10.586  11.043  0.00  0.00    +0.000 HD
ENDBRANCH  27  30
ENDBRANCH  22  24
ENDBRANCH   1  17
TORSDOF 5
ENDMDL
MODEL 2
REMARK VINA RESULT:    -8.236      2.658      3.747
REMARK INTER + INTRA:         -11.655
REMARK INTER:                 -10.968
REMARK INTRA:                  -0.688
REMARK UNBOUND:                -1.252
REMARK  Name = 
REMARK  5 active torsions:
REMARK  status: ('A' for Active; 'I' for Inactive)
REMARK    1  A    between atoms: C_2  and  C_4
REMARK    2  A    between atoms: N_8  and  C_9
REMARK    3  A    between atoms: C_9  and  C_10
REMARK    4  A    between atoms: C_15  and  N_16
REMARK    5  A    between atoms: C_19  and  O_20
REMARK                            x       y       z     vdW  Elec       q    Type
REMARK                         _______ _______ _______ _____ _____    ______ ____
ROOT
ATOM      1  C   UNL     1      44.191   4.939  11.616  0.00  0.00    +0.000 C 
ATOM      2  C   UNL     1      42.937   5.099  12.477  0.00  0.00    +0.000 C 
ATOM      3  C   UNL     1      43.229   6.098  11.410  0.00  0.00    +0.000 C 
ENDROOT
BRANCH   1   8
ATOM      4  C   UNL     1      46.473   2.730   7.481  0.00  0.00    +0.000 A 
ATOM      5  C   UNL     1      46.103   4.060   7.658  0.00  0.00    +0.000 A 
ATOM      6  C   UNL     1      45.352   4.417   8.781  0.00  0.00    +0.000 A 
ATOM      7  C   UNL     1      44.990   3.447   9.704  0.00  0.00    +0.000 A 
ATOM      8  N   UNL     1      44.195   3.702  10.820  0.00  0.00    +0.000 N 
ATOM      9  N   UNL     1      45.325   2.147   9.528  0.00  0.00    +0.000 NA
ATOM     10  C   UNL     1      46.046   1.814   8.423  0.00  0.00    +0.000 A 
ATOM     11  H   UNL     1      44.149   2.827  11.340  0.00  0.00    +0.000 HD
BRANCH   4  13
ATOM     12  N   UNL     1      47.221   3.055   5.200  0.00  0.00    +0.000 N 
ATOM     13  C   UNL     1      47.262   2.269   6.320  0.00  0.00    +0.000 C 
ATOM     14  O   UNL     1      47.943   1.259   6.363  0.00  0.00    +0.000 OA
ATOM     15  H   UNL     1      47.833   2.791   4.440  0.00  0.00    +0.000 HD
ATOM     16  H   UNL     1      46.880   4.005   5.213  0.00  0.00    +0.000 HD
ENDBRANCH   4  13
ENDBRANCH   1   8
BRANCH   1  17
ATOM     17  C   UNL     1      45.539   5.311  12.229  0.00  0.00    +0.000 A 
ATOM     18  C   UNL     1      46.392   6.232  11.607  0.00  0.00    +0.000 A 
ATOM     19  C   UNL     1      47.558   6.660  12.234  0.00  0.00    +0.000 A 
ATOM     20  C   UNL     1      47.894   6.167  13.494  0.00  0.00    +0.000 A 
ATOM     21  F   UNL     1      49.037   6.614  14.037  0.00  0.00    +0.000 F 
ATOM     22  C   UNL     1      47.100   5.217  14.162  0.00  0.00    +0.000 A 
ATOM     23  C   UNL     1      45.938   4.802  13.484  0.00  0.00    +0.000 A 
BRANCH  22  24
ATOM     24  N   UNL     1      47.396   4.719  15.422  0.00  0.00    +0.000 N 
ATOM     25  C   UNL     1      47.246   3.300  15.742  0.00  0.00    +0.000 C 
ATOM     26  C   UNL     1      48.591   2.741  16.198  0.00  0.00    +0.000 C 
ATOM     27  C   UNL     1      49.214   3.579  17.313  0.00  0.00    +0.000 C 
ATOM     28  C   UNL     1      49.260   5.066  16.965  0.00  0.00    +0.000 C 
ATOM     29  C   UNL     1      47.903   5.578  16.493  0.00  0.00    +0.000 C 
BRANCH  27  30
ATOM     30  O   UNL     1      48.516   3.369  18.542  0.00  0.00    +0.000 OA
ATOM     31  H   UNL     1      48.402   4.224  18.988  0.00  0.00    +0.000 HD
ENDBRANCH  27  30
ENDBRANCH  22  24
ENDBRANCH   1  17
TORSDOF 5
ENDMDL
MODEL 3
REMARK VINA RESULT:    -6.831      3.882      8.284
REMARK INTER + INTRA:          -9.880
REMARK INTER:                  -8.809
REMARK INTRA:                  -1.071
REMARK UNBOUND:                -1.252
REMARK  Name = 
REMARK  5 active torsions:
REMARK  status: ('A' for Active; 'I' for Inactive)
REMARK    1  A    between atoms: C_2  and  C_4
REMARK    2  A    between atoms: N_8  and  C_9
REMARK    3  A    between atoms: C_9  and  C_10
REMARK    4  A    between atoms: C_15  and  N_16
REMARK    5  A    between atoms: C_19  and  O_20
REMARK                            x       y       z     vdW  Elec       q    Type
REMARK                         _______ _______ _______ _____ _____    ______ ____
ROOT
ATOM      1  C   UNL     1      48.603   7.955  12.798  0.00  0.00    +0.000 C 
ATOM      2  C   UNL     1      49.648   8.206  11.711  0.00  0.00    +0.000 C 
ATOM      3  C   UNL     1      49.392   9.252  12.740  0.00  0.00    +0.000 C 
ENDROOT
BRANCH   1   8
ATOM      4  C   UNL     1      48.421   6.400  17.772  0.00  0.00    +0.000 A 
ATOM      5  C   UNL     1      48.707   7.667  17.271  0.00  0.00    +0.000 A 
ATOM      6  C   UNL     1      48.866   7.837  15.893  0.00  0.00    +0.000 A 
ATOM      7  C   UNL     1      48.732   6.747  15.045  0.00  0.00    +0.000 A 
ATOM      8  N   UNL     1      48.930   6.813  13.667  0.00  0.00    +0.000 N 
ATOM      9  N   UNL     1      48.478   5.507  15.526  0.00  0.00    +0.000 NA
ATOM     10  C   UNL     1      48.338   5.356  16.870  0.00  0.00    +0.000 A 
ATOM     11  H   UNL     1      48.705   5.888  13.305  0.00  0.00    +0.000 HD
BRANCH   4  13
ATOM     12  N   UNL     1      47.106   5.462  19.578  0.00  0.00    +0.000 N 
ATOM     13  C   UNL     1      48.243   6.133  19.214  0.00  0.00    +0.000 C 
ATOM     14  O   UNL     1      49.077   6.462  20.039  0.00  0.00    +0.000 OA
ATOM     15  H   UNL     1      47.029   5.197  20.550  0.00  0.00    +0.000 HD
ATOM     16  H   UNL     1      46.532   4.963  18.913  0.00  0.00    +0.000 HD
ENDBRANCH   4  13
ENDBRANCH   1   8
BRANCH   1  17
ATOM     17  C   UNL     1      47.128   8.071  12.422  0.00  0.00    +0.000 A 
ATOM     18  C   UNL     1      46.549   9.311  12.121  0.00  0.00    +0.000 A 
ATOM     19  C   UNL     1      45.240   9.393  11.656  0.00  0.00    +0.000 A 
ATOM     20  C   UNL     1      44.485   8.233  11.492  0.00  0.00    +0.000 A 
ATOM     21  F   UNL     1      43.226   8.384  11.050  0.00  0.00    +0.000 F 
ATOM     22  C   UNL     1      44.991   6.959  11.805  0.00  0.00    +0.000 A 
ATOM     23  C   UNL     1      46.314   6.925  12.285  0.00  0.00    +0.000 A 
BRANCH  22  24
ATOM     24  N   UNL     1      44.273   5.784  11.638  0.00  0.00    +0.000 N 
ATOM     25  C   UNL     1      44.608   4.822  10.589  0.00  0.00    +0.000 C 
ATOM     26  C   UNL     1      44.926   3.472  11.227  0.00  0.00    +0.000 C 
ATOM     27  C   UNL     1      43.827   3.011  12.181  0.00  0.00    +0.000 C 
ATOM     28  C   UNL     1      43.450   4.089  13.197  0.00  0.00    +0.000 C 
ATOM     29  C   UNL     1      43.162   5.426  12.521  0.00  0.00    +0.000 C 
BRANCH  27  30
ATOM     30  O   UNL     1      42.677   2.587  11.447  0.00  0.00    +0.000 OA
ATOM     31  H   UNL     1      42.198   1.922  11.968  0.00  0.00    +0.000 HD
ENDBRANCH  27  30
ENDBRANCH  22  24
ENDBRANCH   1  17
TORSDOF 5
ENDMDL
MODEL 4
REMARK VINA RESULT:    -6.726      3.879      5.944
REMARK INTER + INTRA:          -9.748
REMARK INTER:                  -9.108
REMARK INTRA:                  -0.639
REMARK UNBOUND:                -1.252
REMARK  Name = 
REMARK  5 active torsions:
REMARK  status: ('A' for Active; 'I' for Inactive)
REMARK    1  A    between atoms: C_2  and  C_4
REMARK    2  A    between atoms: N_8  and  C_9
REMARK    3  A    between atoms: C_9  and  C_10
REMARK    4  A    between atoms: C_15  and  N_16
REMARK    5  A    between atoms: C_19  and  O_20
REMARK                            x       y       z     vdW  Elec       q    Type
REMARK                         _______ _______ _______ _____ _____    ______ ____
ROOT
ATOM      1  C   UNL     1      47.724   8.117  13.163  0.00  0.00    +0.000 C 
ATOM      2  C   UNL     1      47.576   9.611  12.878  0.00  0.00    +0.000 C 
ATOM      3  C   UNL     1      48.138   8.715  11.829  0.00  0.00    +0.000 C 
ENDROOT
BRANCH   1   8
ATOM      4  C   UNL     1      44.746   4.186  11.468  0.00  0.00    +0.000 A 
ATOM      5  C   UNL     1      45.534   5.060  10.723  0.00  0.00    +0.000 A 
ATOM      6  C   UNL     1      46.129   6.153  11.357  0.00  0.00    +0.000 A 
ATOM      7  C   UNL     1      45.934   6.351  12.717  0.00  0.00    +0.000 A 
ATOM      8  N   UNL     1      46.441   7.444  13.418  0.00  0.00    +0.000 N 
ATOM      9  N   UNL     1      45.150   5.520  13.444  0.00  0.00    +0.000 NA
ATOM     10  C   UNL     1      44.568   4.467  12.809  0.00  0.00    +0.000 A 
ATOM     11  H   UNL     1      46.194   7.292  14.394  0.00  0.00    +0.000 HD
BRANCH   4  13
ATOM     12  N   UNL     1      44.717   2.408   9.823  0.00  0.00    +0.000 N 
ATOM     13  C   UNL     1      44.078   3.010  10.874  0.00  0.00    +0.000 C 
ATOM     14  O   UNL     1      43.029   2.573  11.314  0.00  0.00    +0.000 OA
ATOM     15  H   UNL     1      44.309   1.551   9.477  0.00  0.00    +0.000 HD
ATOM     16  H   UNL     1      45.686   2.584   9.601  0.00  0.00    +0.000 HD
ENDBRANCH   4  13
ENDBRANCH   1   8
BRANCH   1  17
ATOM     17  C   UNL     1      48.874   7.664  14.060  0.00  0.00    +0.000 A 
ATOM     18  C   UNL     1      50.162   8.197  13.917  0.00  0.00    +0.000 A 
ATOM     19  C   UNL     1      51.171   7.874  14.819  0.00  0.00    +0.000 A 
ATOM     20  C   UNL     1      50.909   7.005  15.877  0.00  0.00    +0.000 A 
ATOM     21  F   UNL     1      51.930   6.729  16.703  0.00  0.00    +0.000 F 
ATOM     22  C   UNL     1      49.649   6.410  16.063  0.00  0.00    +0.000 A 
ATOM     23  C   UNL     1      48.662   6.754  15.119  0.00  0.00    +0.000 A 
BRANCH  22  24
ATOM     24  N   UNL     1      49.349   5.556  17.113  0.00  0.00    +0.000 N 
ATOM     25  C   UNL     1      48.254   5.833  18.041  0.00  0.00    +0.000 C 
ATOM     26  C   UNL     1      47.259   4.675  18.007  0.00  0.00    +0.000 C 
ATOM     27  C   UNL     1      47.940   3.325  18.217  0.00  0.00    +0.000 C 
ATOM     28  C   UNL     1      49.136   3.126  17.287  0.00  0.00    +0.000 C 
ATOM     29  C   UNL     1      50.092   4.315  17.335  0.00  0.00    +0.000 C 
BRANCH  27  30
ATOM     30  O   UNL     1      48.333   3.173  19.583  0.00  0.00    +0.000 OA
ATOM     31  H   UNL     1      48.817   3.967  19.861  0.00  0.00    +0.000 HD
ENDBRANCH  27  30
ENDBRANCH  22  24
ENDBRANCH   1  17
TORSDOF 5
ENDMDL
MODEL 5
REMARK VINA RESULT:    -6.382      1.775      2.379
REMARK INTER + INTRA:          -9.312
REMARK INTER:                  -9.144
REMARK INTRA:                  -0.169
REMARK UNBOUND:                -1.252
REMARK  Name = 
REMARK  5 active torsions:
REMARK  status: ('A' for Active; 'I' for Inactive)
REMARK    1  A    between atoms: C_2  and  C_4
REMARK    2  A    between atoms: N_8  and  C_9
REMARK    3  A    between atoms: C_9  and  C_10
REMARK    4  A    between atoms: C_15  and  N_16
REMARK    5  A    between atoms: C_19  and  O_20
REMARK                            x       y       z     vdW  Elec       q    Type
REMARK                         _______ _______ _______ _____ _____    ______ ____
ROOT
ATOM      1  C   UNL     1      43.919   4.905  11.663  0.00  0.00    +0.000 C 
ATOM      2  C   UNL     1      44.301   3.859  12.710  0.00  0.00    +0.000 C 
ATOM      3  C   UNL     1      43.064   4.668  12.897  0.00  0.00    +0.000 C 
ENDROOT
BRANCH   1   8
ATOM      4  C   UNL     1      46.319   3.419   7.278  0.00  0.00    +0.000 A 
ATOM      5  C   UNL     1      46.604   4.510   8.094  0.00  0.00    +0.000 A 
ATOM      6  C   UNL     1      45.734   4.827   9.140  0.00  0.00    +0.000 A 
ATOM      7  C   UNL     1      44.604   4.051   9.355  0.00  0.00    +0.000 A 
ATOM      8  N   UNL     1      43.653   4.328  10.336  0.00  0.00    +0.000 N 
ATOM      9  N   UNL     1      44.306   3.002   8.551  0.00  0.00    +0.000 NA
ATOM     10  C   UNL     1      45.157   2.714   7.530  0.00  0.00    +0.000 A 
ATOM     11  H   UNL     1      42.980   3.564  10.299  0.00  0.00    +0.000 HD
BRANCH   4  13
ATOM     12  N   UNL     1      48.462   2.638   6.461  0.00  0.00    +0.000 N 
ATOM     13  C   UNL     1      47.184   3.018   6.149  0.00  0.00    +0.000 C 
ATOM     14  O   UNL     1      46.776   2.994   5.001  0.00  0.00    +0.000 OA
ATOM     15  H   UNL     1      49.023   2.276   5.703  0.00  0.00    +0.000 HD
ATOM     16  H   UNL     1      48.748   2.409   7.403  0.00  0.00    +0.000 HD
ENDBRANCH   4  13
ENDBRANCH   1   8
BRANCH   1  17
ATOM     17  C   UNL     1      44.689   6.223  11.645  0.00  0.00    +0.000 A 
ATOM     18  C   UNL     1      44.051   7.434  11.344  0.00  0.00    +0.000 A 
ATOM     19  C   UNL     1      44.729   8.644  11.454  0.00  0.00    +0.000 A 
ATOM     20  C   UNL     1      46.062   8.661  11.862  0.00  0.00    +0.000 A 
ATOM     21  F   UNL     1      46.659   9.861  11.938  0.00  0.00    +0.000 F 
ATOM     22  C   UNL     1      46.773   7.482  12.150  0.00  0.00    +0.000 A 
ATOM     23  C   UNL     1      46.051   6.281  12.010  0.00  0.00    +0.000 A 
BRANCH  22  24
ATOM     24  N   UNL     1      48.093   7.464  12.573  0.00  0.00    +0.000 N 
ATOM     25  C   UNL     1      49.200   7.718  11.652  0.00  0.00    +0.000 C 
ATOM     26  C   UNL     1      50.004   8.917  12.149  0.00  0.00    +0.000 C 
ATOM     27  C   UNL     1      50.419   8.766  13.611  0.00  0.00    +0.000 C 
ATOM     28  C   UNL     1      49.241   8.408  14.515  0.00  0.00    +0.000 C 
ATOM     29  C   UNL     1      48.452   7.220  13.971  0.00  0.00    +0.000 C 
BRANCH  27  30
ATOM     30  O   UNL     1      51.462   7.797  13.734  0.00  0.00    +0.000 OA
ATOM     31  H   UNL     1      51.463   7.448  14.640  0.00  0.00    +0.000 HD
ENDBRANCH  27  30
ENDBRANCH  22  24
ENDBRANCH   1  17
TORSDOF 5
ENDMDL
MODEL 6
REMARK VINA RESULT:    -6.094      5.461      8.206
REMARK INTER + INTRA:          -8.950
REMARK INTER:                  -8.558
REMARK INTRA:                  -0.392
REMARK UNBOUND:                -1.252
REMARK  Name = 
REMARK  5 active torsions:
REMARK  status: ('A' for Active; 'I' for Inactive)
REMARK    1  A    between atoms: C_2  and  C_4
REMARK    2  A    between atoms: N_8  and  C_9
REMARK    3  A    between atoms: C_9  and  C_10
REMARK    4  A    between atoms: C_15  and  N_16
REMARK    5  A    between atoms: C_19  and  O_20
REMARK                            x       y       z     vdW  Elec       q    Type
REMARK                         _______ _______ _______ _____ _____    ______ ____
ROOT
ATOM      1  C   UNL     1      48.299   4.905  17.192  0.00  0.00    +0.000 C 
ATOM      2  C   UNL     1      47.127   5.185  18.132  0.00  0.00    +0.000 C 
ATOM      3  C   UNL     1      47.129   3.943  17.310  0.00  0.00    +0.000 C 
ENDROOT
BRANCH   1   8
ATOM      4  C   UNL     1      52.404   1.713  17.589  0.00  0.00    +0.000 A 
ATOM      5  C   UNL     1      51.062   1.382  17.425  0.00  0.00    +0.000 A 
ATOM      6  C   UNL     1      50.095   2.387  17.505  0.00  0.00    +0.000 A 
ATOM      7  C   UNL     1      50.482   3.698  17.741  0.00  0.00    +0.000 A 
ATOM      8  N   UNL     1      49.583   4.752  17.894  0.00  0.00    +0.000 N 
ATOM      9  N   UNL     1      51.783   4.026  17.927  0.00  0.00    +0.000 NA
ATOM     10  C   UNL     1      52.711   3.034  17.857  0.00  0.00    +0.000 A 
ATOM     11  H   UNL     1      50.149   5.593  17.993  0.00  0.00    +0.000 HD
BRANCH   4  13
ATOM     12  N   UNL     1      53.323  -0.420  18.277  0.00  0.00    +0.000 N 
ATOM     13  C   UNL     1      53.488   0.712  17.523  0.00  0.00    +0.000 C 
ATOM     14  O   UNL     1      54.465   0.864  16.812  0.00  0.00    +0.000 OA
ATOM     15  H   UNL     1      54.017  -1.145  18.161  0.00  0.00    +0.000 HD
ATOM     16  H   UNL     1      52.432  -0.687  18.670  0.00  0.00    +0.000 HD
ENDBRANCH   4  13
ENDBRANCH   1   8
BRANCH   1  17
ATOM     17  C   UNL     1      48.375   5.683  15.880  0.00  0.00    +0.000 A 
ATOM     18  C   UNL     1      49.418   6.584  15.628  0.00  0.00    +0.000 A 
ATOM     19  C   UNL     1      49.549   7.192  14.383  0.00  0.00    +0.000 A 
ATOM     20  C   UNL     1      48.632   6.913  13.371  0.00  0.00    +0.000 A 
ATOM     21  F   UNL     1      48.811   7.541  12.198  0.00  0.00    +0.000 F 
ATOM     22  C   UNL     1      47.544   6.044  13.565  0.00  0.00    +0.000 A 
ATOM     23  C   UNL     1      47.442   5.463  14.843  0.00  0.00    +0.000 A 
BRANCH  22  24
ATOM     24  N   UNL     1      46.624   5.731  12.575  0.00  0.00    +0.000 N 
ATOM     25  C   UNL     1      45.800   4.525  12.645  0.00  0.00    +0.000 C 
ATOM     26  C   UNL     1      44.326   4.921  12.627  0.00  0.00    +0.000 C 
ATOM     27  C   UNL     1      43.992   5.848  11.461  0.00  0.00    +0.000 C 
ATOM     28  C   UNL     1      44.943   7.042  11.378  0.00  0.00    +0.000 C 
ATOM     29  C   UNL     1      46.404   6.605  11.422  0.00  0.00    +0.000 C 
BRANCH  27  30
ATOM     30  O   UNL     1      43.989   5.120  10.231  0.00  0.00    +0.000 OA
ATOM     31  H   UNL     1      43.989   5.750   9.492  0.00  0.00    +0.000 HD
ENDBRANCH  27  30
ENDBRANCH  22  24
ENDBRANCH   1  17
TORSDOF 5
ENDMDL
