MODEL 1
REMARK VINA RESULT:    -8.273      0.000      0.000
REMARK INTER + INTRA:         -10.476
REMARK INTER:                 -10.208
REMARK INTRA:                  -0.268
REMARK UNBOUND:                -0.268
REMARK  Name = 
REMARK  4 active torsions:
REMARK  status: ('A' for Active; 'I' for Inactive)
REMARK    1  A    between atoms: C_2  and  C_4
REMARK    2  A    between atoms: N_8  and  C_9
REMARK    3  A    between atoms: C_9  and  C_10
REMARK    4  A    between atoms: C_13  and  C_14
REMARK                            x       y       z     vdW  Elec       q    Type
REMARK                         _______ _______ _______ _____ _____    ______ ____
ROOT
ATOM      1  C   UNL     1      44.622   4.511  11.010  0.00  0.00    +0.000 C 
ATOM      2  C   UNL     1      44.060   5.926  10.998  0.00  0.00    +0.000 C 
ATOM      3  C   UNL     1      43.119   4.778  10.953  0.00  0.00    +0.000 C 
ATOM      4  F   UNL     1      42.379   4.485  12.085  0.00  0.00    +0.000 F 
ENDROOT
BRANCH   1   9
ATOM      5  C   UNL     1      47.978   6.006  14.675  0.00  0.00    +0.000 A 
ATOM      6  C   UNL     1      47.850   6.420  13.353  0.00  0.00    +0.000 A 
ATOM      7  C   UNL     1      46.931   5.772  12.518  0.00  0.00    +0.000 A 
ATOM      8  C   UNL     1      46.148   4.734  13.023  0.00  0.00    +0.000 A 
ATOM      9  N   UNL     1      45.232   4.011  12.257  0.00  0.00    +0.000 N 
ATOM     10  N   UNL     1      46.265   4.328  14.305  0.00  0.00    +0.000 NA
ATOM     11  C   UNL     1      47.175   4.957  15.096  0.00  0.00    +0.000 A 
ATOM     12  H   UNL     1      44.683   3.422  12.877  0.00  0.00    +0.000 HD
BRANCH   5  14
ATOM     13  N   UNL     1      48.460   6.986  16.853  0.00  0.00    +0.000 N 
ATOM     14  C   UNL     1      48.940   6.588  15.635  0.00  0.00    +0.000 C 
ATOM     15  O   UNL     1      50.131   6.681  15.371  0.00  0.00    +0.000 OA
ATOM     16  H   UNL     1      49.152   7.288  17.528  0.00  0.00    +0.000 HD
ATOM     17  H   UNL     1      47.557   6.706  17.205  0.00  0.00    +0.000 HD
ENDBRANCH   5  14
ENDBRANCH   1   9
BRANCH   1  18
ATOM     18  C   UNL     1      45.145   3.867   9.724  0.00  0.00    +0.000 A 
ATOM     19  C   UNL     1      45.743   4.669   8.740  0.00  0.00    +0.000 A 
ATOM     20  C   UNL     1      46.392   4.084   7.655  0.00  0.00    +0.000 A 
ATOM     21  C   UNL     1      46.416   2.697   7.553  0.00  0.00    +0.000 A 
ATOM     22  C   UNL     1      45.761   1.964   8.533  0.00  0.00    +0.000 A 
ATOM     23  N   UNL     1      45.126   2.514   9.601  0.00  0.00    +0.000 NA
BRANCH  21  24
ATOM     24  C   UNL     1      47.165   1.973   6.505  0.00  0.00    +0.000 C 
ATOM     25  N   UNL     1      47.874   2.713   5.602  0.00  0.00    +0.000 N 
ATOM     26  O   UNL     1      47.147   0.750   6.443  0.00  0.00    +0.000 OA
ATOM     27  H   UNL     1      47.760   3.709   5.485  0.00  0.00    +0.000 HD
ATOM     28  H   UNL     1      48.333   2.202   4.857  0.00  0.00    +0.000 HD
ENDBRANCH  21  24
ENDBRANCH   1  18
TORSDOF 4
ENDMDL
MODEL 2
REMARK VINA RESULT:    -7.736      0.997      6.938
REMARK INTER + INTRA:          -9.813
REMARK INTER:                 -10.064
REMARK INTRA:                   0.252
REMARK UNBOUND:                -0.268
REMARK  Name = 
REMARK  4 active torsions:
REMARK  status: ('A' for Active; 'I' for Inactive)
REMARK    1  A    between atoms: C_2  and  C_4
REMARK    2  A    between atoms: N_8  and  C_9
REMARK    3  A    between atoms: C_9  and  C_10
REMARK    4  A    between atoms: C_13  and  C_14
REMARK                            x       y       z     vdW  Elec       q    Type
REMARK                         _______ _______ _______ _____ _____    ______ ____
ROOT
ATOM      1  C   UNL     1      44.095   4.574  11.868  0.00  0.00    +0.000 C 
ATOM      2  C   UNL     1      42.744   4.989  12.433  0.00  0.00    +0.000 C 
ATOM      3  C   UNL     1      43.356   5.809  11.357  0.00  0.00    +0.000 C 
ATOM      4  F   UNL     1      42.813   5.742  10.086  0.00  0.00    +0.000 F 
ENDROOT
BRANCH   1   9
ATOM      5  C   UNL     1      46.441   2.814   7.587  0.00  0.00    +0.000 A 
ATOM      6  C   UNL     1      46.161   4.117   7.985  0.00  0.00    +0.000 A 
ATOM      7  C   UNL     1      45.402   4.332   9.142  0.00  0.00    +0.000 A 
ATOM      8  C   UNL     1      44.950   3.242   9.887  0.00  0.00    +0.000 A 
ATOM      9  N   UNL     1      44.161   3.360  11.033  0.00  0.00    +0.000 N 
ATOM     10  N   UNL     1      45.220   1.975   9.509  0.00  0.00    +0.000 NA
ATOM     11  C   UNL     1      45.944   1.786   8.373  0.00  0.00    +0.000 A 
ATOM     12  H   UNL     1      44.094   2.448  11.476  0.00  0.00    +0.000 HD
BRANCH   5  14
ATOM     13  N   UNL     1      47.103   3.311   5.295  0.00  0.00    +0.000 N 
ATOM     14  C   UNL     1      47.199   2.466   6.366  0.00  0.00    +0.000 C 
ATOM     15  O   UNL     1      47.916   1.475   6.319  0.00  0.00    +0.000 OA
ATOM     16  H   UNL     1      47.706   3.106   4.509  0.00  0.00    +0.000 HD
ATOM     17  H   UNL     1      46.735   4.249   5.368  0.00  0.00    +0.000 HD
ENDBRANCH   5  14
ENDBRANCH   1   9
BRANCH   1  18
ATOM     18  C   UNL     1      45.391   4.936  12.597  0.00  0.00    +0.000 A 
ATOM     19  C   UNL     1      46.125   6.061  12.191  0.00  0.00    +0.000 A 
ATOM     20  C   UNL     1      47.197   6.516  12.957  0.00  0.00    +0.000 A 
ATOM     21  C   UNL     1      47.540   5.822  14.112  0.00  0.00    +0.000 A 
ATOM     22  C   UNL     1      46.806   4.688  14.429  0.00  0.00    +0.000 A 
ATOM     23  N   UNL     1      45.755   4.230  13.699  0.00  0.00    +0.000 NA
BRANCH  21  24
ATOM     24  C   UNL     1      48.587   6.277  15.051  0.00  0.00    +0.000 C 
ATOM     25  N   UNL     1      48.302   6.247  16.387  0.00  0.00    +0.000 N 
ATOM     26  O   UNL     1      49.673   6.673  14.647  0.00  0.00    +0.000 OA
ATOM     27  H   UNL     1      47.370   6.126  16.756  0.00  0.00    +0.000 HD
ATOM     28  H   UNL     1      49.009   6.617  17.010  0.00  0.00    +0.000 HD
ENDBRANCH  21  24
ENDBRANCH   1  18
TORSDOF 4
ENDMDL
MODEL 3
REMARK VINA RESULT:    -7.343      2.733      3.267
REMARK INTER + INTRA:          -9.328
REMARK INTER:                 -10.124
REMARK INTRA:                   0.797
REMARK UNBOUND:                -0.268
REMARK  Name = 
REMARK  4 active torsions:
REMARK  status: ('A' for Active; 'I' for Inactive)
REMARK    1  A    between atoms: C_2  and  C_4
REMARK    2  A    between atoms: N_8  and  C_9
REMARK    3  A    between atoms: C_9  and  C_10
REMARK    4  A    between atoms: C_13  and  C_14
REMARK                            x       y       z     vdW  Elec       q    Type
REMARK                         _______ _______ _______ _____ _____    ______ ____
ROOT
ATOM      1  C   UNL     1      44.055   3.818  11.070  0.00  0.00    +0.000 C 
ATOM      2  C   UNL     1      43.389   2.726  11.897  0.00  0.00    +0.000 C 
ATOM      3  C   UNL     1      44.737   3.207  12.292  0.00  0.00    +0.000 C 
ATOM      4  F   UNL     1      44.851   4.004  13.419  0.00  0.00    +0.000 F 
ENDROOT
BRANCH   1   9
ATOM      5  C   UNL     1      45.619   8.699  11.874  0.00  0.00    +0.000 A 
ATOM      6  C   UNL     1      46.196   7.496  12.268  0.00  0.00    +0.000 A 
ATOM      7  C   UNL     1      45.511   6.298  12.030  0.00  0.00    +0.000 A 
ATOM      8  C   UNL     1      44.271   6.324  11.390  0.00  0.00    +0.000 A 
ATOM      9  N   UNL     1      43.504   5.184  11.142  0.00  0.00    +0.000 N 
ATOM     10  N   UNL     1      43.707   7.487  11.002  0.00  0.00    +0.000 NA
ATOM     11  C   UNL     1      44.379   8.642  11.258  0.00  0.00    +0.000 A 
ATOM     12  H   UNL     1      42.729   5.440  10.535  0.00  0.00    +0.000 HD
BRANCH   5  14
ATOM     13  N   UNL     1      45.394  11.105  12.192  0.00  0.00    +0.000 N 
ATOM     14  C   UNL     1      46.230  10.026  12.107  0.00  0.00    +0.000 C 
ATOM     15  O   UNL     1      47.438  10.156  12.255  0.00  0.00    +0.000 OA
ATOM     16  H   UNL     1      45.825  11.984  12.450  0.00  0.00    +0.000 HD
ATOM     17  H   UNL     1      44.397  11.017  12.326  0.00  0.00    +0.000 HD
ENDBRANCH   5  14
ENDBRANCH   1   9
BRANCH   1  18
ATOM     18  C   UNL     1      44.785   3.476   9.768  0.00  0.00    +0.000 A 
ATOM     19  C   UNL     1      45.309   4.508   8.975  0.00  0.00    +0.000 A 
ATOM     20  C   UNL     1      46.136   4.213   7.894  0.00  0.00    +0.000 A 
ATOM     21  C   UNL     1      46.413   2.881   7.602  0.00  0.00    +0.000 A 
ATOM     22  C   UNL     1      45.821   1.908   8.395  0.00  0.00    +0.000 A 
ATOM     23  N   UNL     1      45.015   2.174   9.456  0.00  0.00    +0.000 NA
BRANCH  21  24
ATOM     24  C   UNL     1      47.360   2.461   6.548  0.00  0.00    +0.000 C 
ATOM     25  N   UNL     1      47.341   3.144   5.365  0.00  0.00    +0.000 N 
ATOM     26  O   UNL     1      48.133   1.528   6.725  0.00  0.00    +0.000 OA
ATOM     27  H   UNL     1      46.600   3.775   5.097  0.00  0.00    +0.000 HD
ATOM     28  H   UNL     1      47.955   2.804   4.635  0.00  0.00    +0.000 HD
ENDBRANCH  21  24
ENDBRANCH   1  18
TORSDOF 4
ENDMDL
MODEL 4
REMARK VINA RESULT:    -6.472      4.268      8.330
REMARK INTER + INTRA:          -8.253
REMARK INTER:                  -8.089
REMARK INTRA:                  -0.164
REMARK UNBOUND:                -0.268
REMARK  Name = 
REMARK  4 active torsions:
REMARK  status: ('A' for Active; 'I' for Inactive)
REMARK    1  A    between atoms: C_2  and  C_4
REMARK    2  A    between atoms: N_8  and  C_9
REMARK    3  A    between atoms: C_9  and  C_10
REMARK    4  A    between atoms: C_13  and  C_14
REMARK                            x       y       z     vdW  Elec       q    Type
REMARK                         _______ _______ _______ _____ _____    ______ ____
ROOT
ATOM      1  C   UNL     1      48.364   5.126  17.018  0.00  0.00    +0.000 C 
ATOM      2  C   UNL     1      47.086   4.863  17.803  0.00  0.00    +0.000 C 
ATOM      3  C   UNL     1      48.100   5.788  18.369  0.00  0.00    +0.000 C 
ATOM      4  F   UNL     1      47.829   7.146  18.368  0.00  0.00    +0.000 F 
ENDROOT
BRANCH   1   9
ATOM      5  C   UNL     1      45.960   5.067  12.420  0.00  0.00    +0.000 A 
ATOM      6  C   UNL     1      46.263   4.022  13.287  0.00  0.00    +0.000 A 
ATOM      7  C   UNL     1      47.034   4.281  14.428  0.00  0.00    +0.000 A 
ATOM      8  C   UNL     1      47.474   5.579  14.688  0.00  0.00    +0.000 A 
ATOM      9  N   UNL     1      48.272   5.922  15.780  0.00  0.00    +0.000 N 
ATOM     10  N   UNL     1      47.181   6.598  13.853  0.00  0.00    +0.000 NA
ATOM     11  C   UNL     1      46.446   6.324  12.741  0.00  0.00    +0.000 A 
ATOM     12  H   UNL     1      48.328   6.936  15.835  0.00  0.00    +0.000 HD
BRANCH   5  14
ATOM     13  N   UNL     1      45.229   5.929  10.261  0.00  0.00    +0.000 N 
ATOM     14  C   UNL     1      45.188   4.907  11.169  0.00  0.00    +0.000 C 
ATOM     15  O   UNL     1      44.561   3.883  10.931  0.00  0.00    +0.000 OA
ATOM     16  H   UNL     1      44.776   5.756   9.373  0.00  0.00    +0.000 HD
ATOM     17  H   UNL     1      45.916   6.667  10.298  0.00  0.00    +0.000 HD
ENDBRANCH   5  14
ENDBRANCH   1   9
BRANCH   1  18
ATOM     18  C   UNL     1      49.533   4.140  17.075  0.00  0.00    +0.000 A 
ATOM     19  C   UNL     1      50.798   4.588  17.484  0.00  0.00    +0.000 A 
ATOM     20  C   UNL     1      51.824   3.675  17.725  0.00  0.00    +0.000 A 
ATOM     21  C   UNL     1      51.577   2.320  17.531  0.00  0.00    +0.000 A 
ATOM     22  C   UNL     1      50.319   1.949  17.076  0.00  0.00    +0.000 A 
ATOM     23  N   UNL     1      49.305   2.822  16.840  0.00  0.00    +0.000 NA
BRANCH  21  24
ATOM     24  C   UNL     1      52.555   1.262  17.858  0.00  0.00    +0.000 C 
ATOM     25  N   UNL     1      52.072   0.049  18.260  0.00  0.00    +0.000 N 
ATOM     26  O   UNL     1      53.760   1.465  17.777  0.00  0.00    +0.000 OA
ATOM     27  H   UNL     1      51.113  -0.106  18.535  0.00  0.00    +0.000 HD
ATOM     28  H   UNL     1      52.757  -0.644  18.536  0.00  0.00    +0.000 HD
ENDBRANCH  21  24
ENDBRANCH   1  18
TORSDOF 4
ENDMDL
MODEL 5
REMARK VINA RESULT:    -6.310      4.082      5.547
REMARK INTER + INTRA:          -8.054
REMARK INTER:                  -7.678
REMARK INTRA:                  -0.376
REMARK UNBOUND:                -0.268
REMARK  Name = 
REMARK  4 active torsions:
REMARK  status: ('A' for Active; 'I' for Inactive)
REMARK    1  A    between atoms: C_2  and  C_4
REMARK    2  A    between atoms: N_8  and  C_9
REMARK    3  A    between atoms: C_9  and  C_10
REMARK    4  A    between atoms: C_13  and  C_14
REMARK                            x       y       z     vdW  Elec       q    Type
REMARK                         _______ _______ _______ _____ _____    ______ ____
ROOT
ATOM      1  C   UNL     1      45.777   4.715  12.894  0.00  0.00    +0.000 C 
ATOM      2  C   UNL     1      44.311   4.452  13.210  0.00  0.00    +0.000 C 
ATOM      3  C   UNL     1      44.810   4.189  11.836  0.00  0.00    +0.000 C 
ATOM      4  F   UNL     1      44.966   2.875  11.431  0.00  0.00    +0.000 F 
ENDROOT
BRANCH   1   9
ATOM      5  C   UNL     1      48.297   3.919  17.360  0.00  0.00    +0.000 A 
ATOM      6  C   UNL     1      47.701   5.072  16.859  0.00  0.00    +0.000 A 
ATOM      7  C   UNL     1      47.181   5.065  15.559  0.00  0.00    +0.000 A 
ATOM      8  C   UNL     1      47.252   3.903  14.790  0.00  0.00    +0.000 A 
ATOM      9  N   UNL     1      46.790   3.814  13.476  0.00  0.00    +0.000 N 
ATOM     10  N   UNL     1      47.826   2.780  15.270  0.00  0.00    +0.000 NA
ATOM     11  C   UNL     1      48.342   2.811  16.529  0.00  0.00    +0.000 A 
ATOM     12  H   UNL     1      46.811   2.839  13.190  0.00  0.00    +0.000 HD
BRANCH   5  14
ATOM     13  N   UNL     1      48.298   3.023  19.627  0.00  0.00    +0.000 N 
ATOM     14  C   UNL     1      48.913   3.820  18.700  0.00  0.00    +0.000 C 
ATOM     15  O   UNL     1      49.957   4.400  18.969  0.00  0.00    +0.000 OA
ATOM     16  H   UNL     1      48.790   2.893  20.502  0.00  0.00    +0.000 HD
ATOM     17  H   UNL     1      47.593   2.343  19.383  0.00  0.00    +0.000 HD
ENDBRANCH   5  14
ENDBRANCH   1   9
BRANCH   1  18
ATOM     18  C   UNL     1      46.267   6.130  12.578  0.00  0.00    +0.000 A 
ATOM     19  C   UNL     1      45.443   7.229  12.863  0.00  0.00    +0.000 A 
ATOM     20  C   UNL     1      45.941   8.527  12.761  0.00  0.00    +0.000 A 
ATOM     21  C   UNL     1      47.257   8.712  12.351  0.00  0.00    +0.000 A 
ATOM     22  C   UNL     1      48.002   7.585  12.035  0.00  0.00    +0.000 A 
ATOM     23  N   UNL     1      47.537   6.311  12.131  0.00  0.00    +0.000 NA
BRANCH  21  24
ATOM     24  C   UNL     1      47.916  10.034  12.312  0.00  0.00    +0.000 C 
ATOM     25  N   UNL     1      47.957  10.760  13.469  0.00  0.00    +0.000 N 
ATOM     26  O   UNL     1      48.406  10.469  11.277  0.00  0.00    +0.000 OA
ATOM     27  H   UNL     1      47.400  10.544  14.283  0.00  0.00    +0.000 HD
ATOM     28  H   UNL     1      48.360  11.687  13.409  0.00  0.00    +0.000 HD
ENDBRANCH  21  24
ENDBRANCH   1  18
TORSDOF 4
ENDMDL
MODEL 6
REMARK VINA RESULT:    -6.272      1.776      2.122
REMARK INTER + INTRA:          -8.007
REMARK INTER:                  -8.239
REMARK INTRA:                   0.232
REMARK UNBOUND:                -0.268
REMARK  Name = 
REMARK  4 active torsions:
REMARK  status: ('A' for Active; 'I' for Inactive)
REMARK    1  A    between atoms: C_2  and  C_4
REMARK    2  A    between atoms: N_8  and  C_9
REMARK    3  A    between atoms: C_9  and  C_10
REMARK    4  A    between atoms: C_13  and  C_14
REMARK                            x       y       z     vdW  Elec       q    Type
REMARK                         _______ _______ _______ _____ _____    ______ ____
ROOT
ATOM      1  C   UNL     1      43.653   5.401  11.208  0.00  0.00    +0.000 C 
ATOM      2  C   UNL     1      42.151   5.498  11.437  0.00  0.00    +0.000 C 
ATOM      3  C   UNL     1      42.991   4.814  12.453  0.00  0.00    +0.000 C 
ATOM      4  F   UNL     1      43.224   5.454  13.657  0.00  0.00    +0.000 F 
ENDROOT
BRANCH   1   9
ATOM      5  C   UNL     1      48.172   7.038  13.165  0.00  0.00    +0.000 A 
ATOM      6  C   UNL     1      47.376   5.956  13.528  0.00  0.00    +0.000 A 
ATOM      7  C   UNL     1      46.126   5.790  12.920  0.00  0.00    +0.000 A 
ATOM      8  C   UNL     1      45.701   6.699  11.951  0.00  0.00    +0.000 A 
ATOM      9  N   UNL     1      44.459   6.631  11.317  0.00  0.00    +0.000 N 
ATOM     10  N   UNL     1      46.468   7.749  11.591  0.00  0.00    +0.000 NA
ATOM     11  C   UNL     1      47.672   7.904  12.205  0.00  0.00    +0.000 A 
ATOM     12  H   UNL     1      44.448   7.301  10.552  0.00  0.00    +0.000 HD
BRANCH   5  14
ATOM     13  N   UNL     1      49.702   6.945  15.059  0.00  0.00    +0.000 N 
ATOM     14  C   UNL     1      49.490   7.335  13.765  0.00  0.00    +0.000 C 
ATOM     15  O   UNL     1      50.378   7.879  13.122  0.00  0.00    +0.000 OA
ATOM     16  H   UNL     1      50.642   7.070  15.415  0.00  0.00    +0.000 HD
ATOM     17  H   UNL     1      49.106   6.286  15.538  0.00  0.00    +0.000 HD
ENDBRANCH   5  14
ENDBRANCH   1   9
BRANCH   1  18
ATOM     18  C   UNL     1      44.236   4.317  10.297  0.00  0.00    +0.000 A 
ATOM     19  C   UNL     1      44.311   4.540   8.915  0.00  0.00    +0.000 A 
ATOM     20  C   UNL     1      45.007   3.653   8.096  0.00  0.00    +0.000 A 
ATOM     21  C   UNL     1      45.604   2.535   8.669  0.00  0.00    +0.000 A 
ATOM     22  C   UNL     1      45.449   2.347  10.035  0.00  0.00    +0.000 A 
ATOM     23  N   UNL     1      44.778   3.201  10.852  0.00  0.00    +0.000 NA
BRANCH  21  24
ATOM     24  C   UNL     1      46.453   1.591   7.914  0.00  0.00    +0.000 C 
ATOM     25  N   UNL     1      47.403   2.113   7.082  0.00  0.00    +0.000 N 
ATOM     26  O   UNL     1      46.309   0.380   8.023  0.00  0.00    +0.000 OA
ATOM     27  H   UNL     1      47.428   3.084   6.803  0.00  0.00    +0.000 HD
ATOM     28  H   UNL     1      47.935   1.453   6.529  0.00  0.00    +0.000 HD
ENDBRANCH  21  24
ENDBRANCH   1  18
TORSDOF 4
ENDMDL
MODEL 7
REMARK VINA RESULT:    -6.266      4.241      5.413
REMARK INTER + INTRA:          -7.999
REMARK INTER:                  -8.036
REMARK INTRA:                   0.037
REMARK UNBOUND:                -0.268
REMARK  Name = 
REMARK  4 active torsions:
REMARK  status: ('A' for Active; 'I' for Inactive)
REMARK    1  A    between atoms: C_2  and  C_4
REMARK    2  A    between atoms: N_8  and  C_9
REMARK    3  A    between atoms: C_9  and  C_10
REMARK    4  A    between atoms: C_13  and  C_14
REMARK                            x       y       z     vdW  Elec       q    Type
REMARK                         _______ _______ _______ _____ _____    ______ ____
ROOT
ATOM      1  C   UNL     1      48.202   7.706  12.622  0.00  0.00    +0.000 C 
ATOM      2  C   UNL     1      49.414   7.611  11.705  0.00  0.00    +0.000 C 
ATOM      3  C   UNL     1      48.708   8.912  11.832  0.00  0.00    +0.000 C 
ATOM      4  F   UNL     1      49.320   9.927  12.548  0.00  0.00    +0.000 F 
ENDROOT
BRANCH   1   9
ATOM      5  C   UNL     1      47.914   4.307  16.531  0.00  0.00    +0.000 A 
ATOM      6  C   UNL     1      47.260   4.319  15.303  0.00  0.00    +0.000 A 
ATOM      7  C   UNL     1      47.416   5.423  14.455  0.00  0.00    +0.000 A 
ATOM      8  C   UNL     1      48.233   6.485  14.843  0.00  0.00    +0.000 A 
ATOM      9  N   UNL     1      48.420   7.638  14.079  0.00  0.00    +0.000 N 
ATOM     10  N   UNL     1      48.872   6.479  16.032  0.00  0.00    +0.000 NA
ATOM     11  C   UNL     1      48.694   5.407  16.850  0.00  0.00    +0.000 A 
ATOM     12  H   UNL     1      49.168   8.186  14.496  0.00  0.00    +0.000 HD
BRANCH   5  14
ATOM     13  N   UNL     1      48.901   2.903  18.261  0.00  0.00    +0.000 N 
ATOM     14  C   UNL     1      47.793   3.216  17.522  0.00  0.00    +0.000 C 
ATOM     15  O   UNL     1      46.732   2.634  17.706  0.00  0.00    +0.000 OA
ATOM     16  H   UNL     1      48.767   2.223  19.000  0.00  0.00    +0.000 HD
ATOM     17  H   UNL     1      49.707   3.506  18.323  0.00  0.00    +0.000 HD
ENDBRANCH   5  14
ENDBRANCH   1   9
BRANCH   1  18
ATOM     18  C   UNL     1      46.824   7.241  12.146  0.00  0.00    +0.000 A 
ATOM     19  C   UNL     1      46.729   6.264  11.144  0.00  0.00    +0.000 A 
ATOM     20  C   UNL     1      45.497   5.692  10.833  0.00  0.00    +0.000 A 
ATOM     21  C   UNL     1      44.364   6.123  11.514  0.00  0.00    +0.000 A 
ATOM     22  C   UNL     1      44.519   7.129  12.457  0.00  0.00    +0.000 A 
ATOM     23  N   UNL     1      45.711   7.697  12.779  0.00  0.00    +0.000 NA
BRANCH  21  24
ATOM     24  C   UNL     1      43.030   5.511  11.340  0.00  0.00    +0.000 C 
ATOM     25  N   UNL     1      41.938   6.254  11.689  0.00  0.00    +0.000 N 
ATOM     26  O   UNL     1      42.906   4.374  10.903  0.00  0.00    +0.000 OA
ATOM     27  H   UNL     1      41.991   7.102  12.235  0.00  0.00    +0.000 HD
ATOM     28  H   UNL     1      41.037   5.797  11.619  0.00  0.00    +0.000 HD
ENDBRANCH  21  24
ENDBRANCH   1  18
TORSDOF 4
ENDMDL
MODEL 8
REMARK VINA RESULT:    -5.715      4.068      5.395
REMARK INTER + INTRA:          -7.320
REMARK INTER:                  -7.169
REMARK INTRA:                  -0.151
REMARK UNBOUND:                -0.268
REMARK  Name = 
REMARK  4 active torsions:
REMARK  status: ('A' for Active; 'I' for Inactive)
REMARK    1  A    between atoms: C_2  and  C_4
REMARK    2  A    between atoms: N_8  and  C_9
REMARK    3  A    between atoms: C_9  and  C_10
REMARK    4  A    between atoms: C_13  and  C_14
REMARK                            x       y       z     vdW  Elec       q    Type
REMARK                         _______ _______ _______ _____ _____    ______ ____
ROOT
ATOM      1  C   UNL     1      47.896   7.188  13.412  0.00  0.00    +0.000 C 
ATOM      2  C   UNL     1      49.183   6.984  12.625  0.00  0.00    +0.000 C 
ATOM      3  C   UNL     1      48.207   8.001  12.158  0.00  0.00    +0.000 C 
ATOM      4  F   UNL     1      48.514   9.340  12.330  0.00  0.00    +0.000 F 
ENDROOT
BRANCH   1   9
ATOM      5  C   UNL     1      49.640   6.191  18.197  0.00  0.00    +0.000 A 
ATOM      6  C   UNL     1      49.253   5.320  17.183  0.00  0.00    +0.000 A 
ATOM      7  C   UNL     1      48.697   5.840  16.008  0.00  0.00    +0.000 A 
ATOM      8  C   UNL     1      48.553   7.220  15.861  0.00  0.00    +0.000 A 
ATOM      9  N   UNL     1      47.981   7.824  14.740  0.00  0.00    +0.000 N 
ATOM     10  N   UNL     1      48.928   8.072  16.839  0.00  0.00    +0.000 NA
ATOM     11  C   UNL     1      49.449   7.547  17.980  0.00  0.00    +0.000 A 
ATOM     12  H   UNL     1      48.129   8.828  14.801  0.00  0.00    +0.000 HD
BRANCH   5  14
ATOM     13  N   UNL     1      50.110   4.429  19.813  0.00  0.00    +0.000 N 
ATOM     14  C   UNL     1      50.200   5.756  19.494  0.00  0.00    +0.000 C 
ATOM     15  O   UNL     1      50.759   6.544  20.246  0.00  0.00    +0.000 OA
ATOM     16  H   UNL     1      50.588   4.139  20.657  0.00  0.00    +0.000 HD
ATOM     17  H   UNL     1      49.890   3.716  19.133  0.00  0.00    +0.000 HD
ENDBRANCH   5  14
ENDBRANCH   1   9
BRANCH   1  18
ATOM     18  C   UNL     1      46.702   6.251  13.213  0.00  0.00    +0.000 A 
ATOM     19  C   UNL     1      45.450   6.784  12.875  0.00  0.00    +0.000 A 
ATOM     20  C   UNL     1      44.402   5.943  12.505  0.00  0.00    +0.000 A 
ATOM     21  C   UNL     1      44.614   4.568  12.500  0.00  0.00    +0.000 A 
ATOM     22  C   UNL     1      45.861   4.103  12.895  0.00  0.00    +0.000 A 
ATOM     23  N   UNL     1      46.896   4.906  13.255  0.00  0.00    +0.000 NA
BRANCH  21  24
ATOM     24  C   UNL     1      43.610   3.594  12.023  0.00  0.00    +0.000 C 
ATOM     25  N   UNL     1      43.707   2.307  12.473  0.00  0.00    +0.000 N 
ATOM     26  O   UNL     1      42.724   3.925  11.246  0.00  0.00    +0.000 OA
ATOM     27  H   UNL     1      44.522   1.941  12.943  0.00  0.00    +0.000 HD
ATOM     28  H   UNL     1      43.047   1.642  12.090  0.00  0.00    +0.000 HD
ENDBRANCH  21  24
ENDBRANCH   1  18
TORSDOF 4
ENDMDL
