MODEL 1
REMARK VINA RESULT:    -7.551      0.000      0.000
REMARK INTER + INTRA:         -11.515
REMARK INTER:                 -10.862
REMARK INTRA:                  -0.653
REMARK UNBOUND:                -0.653
REMARK  Name = 
REMARK  8 active torsions:
REMARK  status: ('A' for Active; 'I' for Inactive)
REMARK    1  A    between atoms: N_1  and  C_2
REMARK    2  A    between atoms: C_2  and  C_3
REMARK    3  A    between atoms: C_3  and  N_4
REMARK    4  A    between atoms: N_4  and  C_5
REMARK    5  A    between atoms: C_5  and  C_6
REMARK    6  A    between atoms: C_9  and  C_10
REMARK    7  A    between atoms: C_10  and  N_11
REMARK    8  A    between atoms: C_12  and  C_14
REMARK                            x       y       z     vdW  Elec       q    Type
REMARK                         _______ _______ _______ _____ _____    ______ ____
ROOT
ATOM      1  C   UNL     1      44.203   4.773  12.800  0.00  0.00    +0.000 C 
ENDROOT
BRANCH   1   5
ATOM      2  C   UNL     1      45.248   3.854   8.772  0.00  0.00    +0.000 A 
ATOM      3  C   UNL     1      45.651   5.075   9.302  0.00  0.00    +0.000 A 
ATOM      4  C   UNL     1      45.321   5.387  10.618  0.00  0.00    +0.000 A 
ATOM      5  C   UNL     1      44.579   4.478  11.378  0.00  0.00    +0.000 A 
ATOM      6  C   UNL     1      44.235   3.274  10.775  0.00  0.00    +0.000 A 
ATOM      7  N   UNL     1      44.549   2.942   9.499  0.00  0.00    +0.000 NA
BRANCH   2   8
ATOM      8  C   UNL     1      45.692   3.461   7.376  0.00  0.00    +0.000 C 
BRANCH   8   9
ATOM      9  N   UNL     1      47.132   3.678   7.126  0.00  0.00    +0.000 NA
ATOM     10  H   UNL     1      47.199   4.184   6.239  0.00  0.00    +0.000 HD
BRANCH   9  11
ATOM     11  C   UNL     1      47.850   2.405   6.919  0.00  0.00    +0.000 C 
BRANCH  11  12
ATOM     12  C   UNL     1      46.919   1.192   6.724  0.00  0.00    +0.000 C 
BRANCH  12  13
ATOM     13  N   UNL     1      47.138   0.188   7.771  0.00  0.00    +0.000 NA
ATOM     14  H   UNL     1      48.121   0.209   8.043  0.00  0.00    +0.000 HD
ATOM     15  H   UNL     1      46.972  -0.737   7.378  0.00  0.00    +0.000 HD
ENDBRANCH  12  13
ENDBRANCH  11  12
ENDBRANCH   9  11
ENDBRANCH   8   9
ENDBRANCH   2   8
ENDBRANCH   1   5
BRANCH   1  16
ATOM     16  N   UNL     1      45.297   5.362  13.528  0.00  0.00    +0.000 N 
ATOM     17  C   UNL     1      46.324   4.588  14.010  0.00  0.00    +0.000 C 
ATOM     18  O   UNL     1      46.384   3.381  13.793  0.00  0.00    +0.000 OA
ATOM     19  H   UNL     1      45.153   6.288  13.918  0.00  0.00    +0.000 HD
BRANCH  17  20
ATOM     20  C   UNL     1      47.383   5.287  14.748  0.00  0.00    +0.000 A 
ATOM     21  C   UNL     1      48.103   6.301  14.129  0.00  0.00    +0.000 A 
ATOM     22  S   UNL     1      49.265   7.031  15.140  0.00  0.00    +0.000 S 
ATOM     23  C   UNL     1      48.882   5.988  16.428  0.00  0.00    +0.000 A 
ATOM     24  N   UNL     1      49.545   6.065  17.613  0.00  0.00    +0.000 NA
ATOM     25  C   UNL     1      49.172   5.197  18.491  0.00  0.00    +0.000 A 
ATOM     26  N   UNL     1      48.187   4.262  18.295  0.00  0.00    +0.000 N 
ATOM     27  C   UNL     1      47.469   4.165  17.128  0.00  0.00    +0.000 A 
ATOM     28  O   UNL     1      46.564   3.349  17.001  0.00  0.00    +0.000 OA
ATOM     29  C   UNL     1      47.865   5.108  16.099  0.00  0.00    +0.000 A 
ATOM     30  H   UNL     1      47.933   3.618  19.031  0.00  0.00    +0.000 HD
ENDBRANCH  17  20
ENDBRANCH   1  16
TORSDOF 8
ENDMDL
MODEL 2
REMARK VINA RESULT:    -7.074      3.792      8.247
REMARK INTER + INTRA:         -10.829
REMARK INTER:                  -9.835
REMARK INTRA:                  -0.994
REMARK UNBOUND:                -0.653
REMARK  Name = 
REMARK  8 active torsions:
REMARK  status: ('A' for Active; 'I' for Inactive)
REMARK    1  A    between atoms: N_1  and  C_2
REMARK    2  A    between atoms: C_2  and  C_3
REMARK    3  A    between atoms: C_3  and  N_4
REMARK    4  A    between atoms: N_4  and  C_5
REMARK    5  A    between atoms: C_5  and  C_6
REMARK    6  A    between atoms: C_9  and  C_10
REMARK    7  A    between atoms: C_10  and  N_11
REMARK    8  A    between atoms: C_12  and  C_14
REMARK                            x       y       z     vdW  Elec       q    Type
REMARK                         _______ _______ _______ _____ _____    ______ ____
ROOT
ATOM      1  C   UNL     1      47.167   3.398  16.893  0.00  0.00    +0.000 C 
ENDROOT
BRANCH   1   5
ATOM      2  C   UNL     1      51.358   3.468  17.665  0.00  0.00    +0.000 A 
ATOM      3  C   UNL     1      50.611   4.609  17.941  0.00  0.00    +0.000 A 
ATOM      4  C   UNL     1      49.240   4.599  17.699  0.00  0.00    +0.000 A 
ATOM      5  C   UNL     1      48.641   3.453  17.168  0.00  0.00    +0.000 A 
ATOM      6  C   UNL     1      49.459   2.352  16.940  0.00  0.00    +0.000 A 
ATOM      7  N   UNL     1      50.794   2.333  17.173  0.00  0.00    +0.000 NA
BRANCH   2   8
ATOM      8  C   UNL     1      52.831   3.433  18.023  0.00  0.00    +0.000 C 
BRANCH   8   9
ATOM      9  N   UNL     1      53.169   2.433  19.057  0.00  0.00    +0.000 NA
ATOM     10  H   UNL     1      53.588   2.950  19.834  0.00  0.00    +0.000 HD
BRANCH   9  11
ATOM     11  C   UNL     1      54.207   1.493  18.591  0.00  0.00    +0.000 C 
BRANCH  11  12
ATOM     12  C   UNL     1      53.654   0.325  17.751  0.00  0.00    +0.000 C 
BRANCH  12  13
ATOM     13  N   UNL     1      52.374  -0.149  18.289  0.00  0.00    +0.000 NA
ATOM     14  H   UNL     1      52.428  -0.149  19.307  0.00  0.00    +0.000 HD
ATOM     15  H   UNL     1      52.242  -1.121  18.011  0.00  0.00    +0.000 HD
ENDBRANCH  12  13
ENDBRANCH  11  12
ENDBRANCH   9  11
ENDBRANCH   8   9
ENDBRANCH   2   8
ENDBRANCH   1   5
BRANCH   1  16
ATOM     16  N   UNL     1      46.770   4.387  15.925  0.00  0.00    +0.000 N 
ATOM     17  C   UNL     1      46.895   4.148  14.578  0.00  0.00    +0.000 C 
ATOM     18  O   UNL     1      47.291   3.070  14.144  0.00  0.00    +0.000 OA
ATOM     19  H   UNL     1      46.672   5.344  16.248  0.00  0.00    +0.000 HD
BRANCH  17  20
ATOM     20  C   UNL     1      46.471   5.227  13.677  0.00  0.00    +0.000 A 
ATOM     21  C   UNL     1      47.326   6.293  13.426  0.00  0.00    +0.000 A 
ATOM     22  S   UNL     1      46.693   7.435  12.330  0.00  0.00    +0.000 S 
ATOM     23  C   UNL     1      45.234   6.572  12.188  0.00  0.00    +0.000 A 
ATOM     24  N   UNL     1      44.223   7.031  11.402  0.00  0.00    +0.000 NA
ATOM     25  C   UNL     1      43.164   6.294  11.409  0.00  0.00    +0.000 A 
ATOM     26  N   UNL     1      43.027   5.131  12.125  0.00  0.00    +0.000 N 
ATOM     27  C   UNL     1      44.030   4.611  12.907  0.00  0.00    +0.000 A 
ATOM     28  O   UNL     1      43.893   3.547  13.497  0.00  0.00    +0.000 OA
ATOM     29  C   UNL     1      45.237   5.417  12.949  0.00  0.00    +0.000 A 
ATOM     30  H   UNL     1      42.175   4.592  12.075  0.00  0.00    +0.000 HD
ENDBRANCH  17  20
ENDBRANCH   1  16
TORSDOF 8
ENDMDL
MODEL 3
REMARK VINA RESULT:    -7.024      1.715      2.163
REMARK INTER + INTRA:         -10.757
REMARK INTER:                 -10.421
REMARK INTRA:                  -0.337
REMARK UNBOUND:                -0.653
REMARK  Name = 
REMARK  8 active torsions:
REMARK  status: ('A' for Active; 'I' for Inactive)
REMARK    1  A    between atoms: N_1  and  C_2
REMARK    2  A    between atoms: C_2  and  C_3
REMARK    3  A    between atoms: C_3  and  N_4
REMARK    4  A    between atoms: N_4  and  C_5
REMARK    5  A    between atoms: C_5  and  C_6
REMARK    6  A    between atoms: C_9  and  C_10
REMARK    7  A    between atoms: C_10  and  N_11
REMARK    8  A    between atoms: C_12  and  C_14
REMARK                            x       y       z     vdW  Elec       q    Type
REMARK                         _______ _______ _______ _____ _____    ______ ____
ROOT
ATOM      1  C   UNL     1      45.979   7.062  12.424  0.00  0.00    +0.000 C 
ENDROOT
BRANCH   1   5
ATOM      2  C   UNL     1      44.849   3.650  10.134  0.00  0.00    +0.000 A 
ATOM      3  C   UNL     1      45.290   4.786   9.463  0.00  0.00    +0.000 A 
ATOM      4  C   UNL     1      45.667   5.906  10.198  0.00  0.00    +0.000 A 
ATOM      5  C   UNL     1      45.582   5.878  11.593  0.00  0.00    +0.000 A 
ATOM      6  C   UNL     1      45.148   4.695  12.182  0.00  0.00    +0.000 A 
ATOM      7  N   UNL     1      44.781   3.589  11.491  0.00  0.00    +0.000 NA
BRANCH   2   8
ATOM      8  C   UNL     1      44.536   2.391   9.349  0.00  0.00    +0.000 C 
BRANCH   8   9
ATOM      9  N   UNL     1      45.731   1.593   9.003  0.00  0.00    +0.000 NA
ATOM     10  H   UNL     1      46.419   1.766   9.741  0.00  0.00    +0.000 HD
BRANCH   9  11
ATOM     11  C   UNL     1      46.357   2.059   7.751  0.00  0.00    +0.000 C 
BRANCH  11  12
ATOM     12  C   UNL     1      47.466   1.126   7.226  0.00  0.00    +0.000 C 
BRANCH  12  13
ATOM     13  N   UNL     1      48.289   1.804   6.218  0.00  0.00    +0.000 NA
ATOM     14  H   UNL     1      48.502   2.744   6.549  0.00  0.00    +0.000 HD
ATOM     15  H   UNL     1      47.738   1.920   5.368  0.00  0.00    +0.000 HD
ENDBRANCH  12  13
ENDBRANCH  11  12
ENDBRANCH   9  11
ENDBRANCH   8   9
ENDBRANCH   2   8
ENDBRANCH   1   5
BRANCH   1  16
ATOM     16  N   UNL     1      46.621   6.661  13.649  0.00  0.00    +0.000 N 
ATOM     17  C   UNL     1      47.985   6.734  13.790  0.00  0.00    +0.000 C 
ATOM     18  O   UNL     1      48.704   7.194  12.908  0.00  0.00    +0.000 OA
ATOM     19  H   UNL     1      46.091   6.070  14.282  0.00  0.00    +0.000 HD
BRANCH  17  20
ATOM     20  C   UNL     1      48.537   6.290  15.075  0.00  0.00    +0.000 A 
ATOM     21  C   UNL     1      49.606   6.973  15.641  0.00  0.00    +0.000 A 
ATOM     22  S   UNL     1      50.096   6.350  17.150  0.00  0.00    +0.000 S 
ATOM     23  C   UNL     1      48.929   5.114  17.081  0.00  0.00    +0.000 A 
ATOM     24  N   UNL     1      48.827   4.191  18.075  0.00  0.00    +0.000 NA
ATOM     25  C   UNL     1      47.919   3.296  17.881  0.00  0.00    +0.000 A 
ATOM     26  N   UNL     1      47.095   3.244  16.784  0.00  0.00    +0.000 N 
ATOM     27  C   UNL     1      47.139   4.171  15.771  0.00  0.00    +0.000 A 
ATOM     28  O   UNL     1      46.359   4.123  14.828  0.00  0.00    +0.000 OA
ATOM     29  C   UNL     1      48.161   5.189  15.932  0.00  0.00    +0.000 A 
ATOM     30  H   UNL     1      46.393   2.523  16.700  0.00  0.00    +0.000 HD
ENDBRANCH  17  20
ENDBRANCH   1  16
TORSDOF 8
ENDMDL
MODEL 4
REMARK VINA RESULT:    -6.584      4.230      8.062
REMARK INTER + INTRA:         -10.124
REMARK INTER:                  -8.864
REMARK INTRA:                  -1.260
REMARK UNBOUND:                -0.653
REMARK  Name = 
REMARK  8 active torsions:
REMARK  status: ('A' for Active; 'I' for Inactive)
REMARK    1  A    between atoms: N_1  and  C_2
REMARK    2  A    between atoms: C_2  and  C_3
REMARK    3  A    between atoms: C_3  and  N_4
REMARK    4  A    between atoms: N_4  and  C_5
REMARK    5  A    between atoms: C_5  and  C_6
REMARK    6  A    between atoms: C_9  and  C_10
REMARK    7  A    between atoms: C_10  and  N_11
REMARK    8  A    between atoms: C_12  and  C_14
REMARK                            x       y       z     vdW  Elec       q    Type
REMARK                         _______ _______ _______ _____ _____    ______ ____
ROOT
ATOM      1  C   UNL     1      47.227   3.471  16.894  0.00  0.00    +0.000 C 
ENDROOT
BRANCH   1   5
ATOM      2  C   UNL     1      51.418   3.426  17.666  0.00  0.00    +0.000 A 
ATOM      3  C   UNL     1      50.703   4.589  17.935  0.00  0.00    +0.000 A 
ATOM      4  C   UNL     1      49.333   4.617  17.692  0.00  0.00    +0.000 A 
ATOM      5  C   UNL     1      48.701   3.485  17.169  0.00  0.00    +0.000 A 
ATOM      6  C   UNL     1      49.488   2.360  16.949  0.00  0.00    +0.000 A 
ATOM      7  N   UNL     1      50.822   2.304  17.182  0.00  0.00    +0.000 NA
BRANCH   2   8
ATOM      8  C   UNL     1      52.889   3.351  18.025  0.00  0.00    +0.000 C 
BRANCH   8   9
ATOM      9  N   UNL     1      53.198   2.348  19.066  0.00  0.00    +0.000 NA
ATOM     10  H   UNL     1      53.619   2.859  19.846  0.00  0.00    +0.000 HD
BRANCH   9  11
ATOM     11  C   UNL     1      54.223   1.388  18.613  0.00  0.00    +0.000 C 
BRANCH  11  12
ATOM     12  C   UNL     1      53.658   0.227  17.770  0.00  0.00    +0.000 C 
BRANCH  12  13
ATOM     13  N   UNL     1      52.356  -0.212  18.287  0.00  0.00    +0.000 NA
ATOM     14  H   UNL     1      52.214  -1.187  18.026  0.00  0.00    +0.000 HD
ATOM     15  H   UNL     1      51.622   0.318  17.820  0.00  0.00    +0.000 HD
ENDBRANCH  12  13
ENDBRANCH  11  12
ENDBRANCH   9  11
ENDBRANCH   8   9
ENDBRANCH   2   8
ENDBRANCH   1   5
BRANCH   1  16
ATOM     16  N   UNL     1      46.857   4.470  15.925  0.00  0.00    +0.000 N 
ATOM     17  C   UNL     1      46.919   4.207  14.578  0.00  0.00    +0.000 C 
ATOM     18  O   UNL     1      47.233   3.101  14.147  0.00  0.00    +0.000 OA
ATOM     19  H   UNL     1      46.829   5.435  16.238  0.00  0.00    +0.000 HD
BRANCH  17  20
ATOM     20  C   UNL     1      46.531   5.298  13.677  0.00  0.00    +0.000 A 
ATOM     21  C   UNL     1      45.367   5.194  12.927  0.00  0.00    +0.000 A 
ATOM     22  S   UNL     1      45.046   6.565  11.965  0.00  0.00    +0.000 S 
ATOM     23  C   UNL     1      46.477   7.328  12.480  0.00  0.00    +0.000 A 
ATOM     24  N   UNL     1      46.826   8.554  12.003  0.00  0.00    +0.000 NA
ATOM     25  C   UNL     1      47.948   9.002  12.456  0.00  0.00    +0.000 A 
ATOM     26  N   UNL     1      48.749   8.340  13.352  0.00  0.00    +0.000 N 
ATOM     27  C   UNL     1      48.423   7.117  13.885  0.00  0.00    +0.000 A 
ATOM     28  O   UNL     1      49.138   6.572  14.718  0.00  0.00    +0.000 OA
ATOM     29  C   UNL     1      47.178   6.558  13.390  0.00  0.00    +0.000 A 
ATOM     30  H   UNL     1      49.610   8.755  13.678  0.00  0.00    +0.000 HD
ENDBRANCH  17  20
ENDBRANCH   1  16
TORSDOF 8
ENDMDL
MODEL 5
REMARK VINA RESULT:    -6.502      2.321      3.458
REMARK INTER + INTRA:         -10.005
REMARK INTER:                  -9.363
REMARK INTRA:                  -0.643
REMARK UNBOUND:                -0.653
REMARK  Name = 
REMARK  8 active torsions:
REMARK  status: ('A' for Active; 'I' for Inactive)
REMARK    1  A    between atoms: N_1  and  C_2
REMARK    2  A    between atoms: C_2  and  C_3
REMARK    3  A    between atoms: C_3  and  N_4
REMARK    4  A    between atoms: N_4  and  C_5
REMARK    5  A    between atoms: C_5  and  C_6
REMARK    6  A    between atoms: C_9  and  C_10
REMARK    7  A    between atoms: C_10  and  N_11
REMARK    8  A    between atoms: C_12  and  C_14
REMARK                            x       y       z     vdW  Elec       q    Type
REMARK                         _______ _______ _______ _____ _____    ______ ____
ROOT
ATOM      1  C   UNL     1      48.002   6.444  13.460  0.00  0.00    +0.000 C 
ENDROOT
BRANCH   1   5
ATOM      2  C   UNL     1      44.638   4.419  11.802  0.00  0.00    +0.000 A 
ATOM      3  C   UNL     1      45.007   5.649  11.266  0.00  0.00    +0.000 A 
ATOM      4  C   UNL     1      46.106   6.319  11.794  0.00  0.00    +0.000 A 
ATOM      5  C   UNL     1      46.811   5.756  12.862  0.00  0.00    +0.000 A 
ATOM      6  C   UNL     1      46.385   4.516  13.324  0.00  0.00    +0.000 A 
ATOM      7  N   UNL     1      45.323   3.839  12.823  0.00  0.00    +0.000 NA
BRANCH   2   8
ATOM      8  C   UNL     1      43.508   3.633  11.166  0.00  0.00    +0.000 C 
BRANCH   8   9
ATOM      9  N   UNL     1      43.939   2.358  10.557  0.00  0.00    +0.000 NA
ATOM     10  H   UNL     1      44.333   1.793  11.314  0.00  0.00    +0.000 HD
BRANCH   9  11
ATOM     11  C   UNL     1      45.037   2.557   9.590  0.00  0.00    +0.000 C 
BRANCH  11  12
ATOM     12  C   UNL     1      44.622   3.349   8.334  0.00  0.00    +0.000 C 
BRANCH  12  13
ATOM     13  N   UNL     1      45.645   4.338   7.976  0.00  0.00    +0.000 NA
ATOM     14  H   UNL     1      46.490   4.143   8.512  0.00  0.00    +0.000 HD
ATOM     15  H   UNL     1      45.327   5.260   8.273  0.00  0.00    +0.000 HD
ENDBRANCH  12  13
ENDBRANCH  11  12
ENDBRANCH   9  11
ENDBRANCH   8   9
ENDBRANCH   2   8
ENDBRANCH   1   5
BRANCH   1  16
ATOM     16  N   UNL     1      47.892   6.548  14.892  0.00  0.00    +0.000 N 
ATOM     17  C   UNL     1      49.011   6.660  15.682  0.00  0.00    +0.000 C 
ATOM     18  O   UNL     1      50.139   6.733  15.202  0.00  0.00    +0.000 OA
ATOM     19  H   UNL     1      47.017   6.255  15.316  0.00  0.00    +0.000 HD
BRANCH  17  20
ATOM     20  C   UNL     1      48.787   6.749  17.129  0.00  0.00    +0.000 A 
ATOM     21  C   UNL     1      48.506   7.979  17.710  0.00  0.00    +0.000 A 
ATOM     22  S   UNL     1      48.235   7.896  19.392  0.00  0.00    +0.000 S 
ATOM     23  C   UNL     1      48.531   6.221  19.412  0.00  0.00    +0.000 A 
ATOM     24  N   UNL     1      48.485   5.517  20.576  0.00  0.00    +0.000 NA
ATOM     25  C   UNL     1      48.756   4.261  20.451  0.00  0.00    +0.000 A 
ATOM     26  N   UNL     1      49.061   3.643  19.264  0.00  0.00    +0.000 N 
ATOM     27  C   UNL     1      49.089   4.305  18.061  0.00  0.00    +0.000 A 
ATOM     28  O   UNL     1      49.319   3.715  17.012  0.00  0.00    +0.000 OA
ATOM     29  C   UNL     1      48.810   5.727  18.151  0.00  0.00    +0.000 A 
ATOM     30  H   UNL     1      49.250   2.651  19.233  0.00  0.00    +0.000 HD
ENDBRANCH  17  20
ENDBRANCH   1  16
TORSDOF 8
ENDMDL
MODEL 6
REMARK VINA RESULT:    -6.477      4.005      5.357
REMARK INTER + INTRA:          -9.969
REMARK INTER:                  -9.340
REMARK INTRA:                  -0.629
REMARK UNBOUND:                -0.653
REMARK  Name = 
REMARK  8 active torsions:
REMARK  status: ('A' for Active; 'I' for Inactive)
REMARK    1  A    between atoms: N_1  and  C_2
REMARK    2  A    between atoms: C_2  and  C_3
REMARK    3  A    between atoms: C_3  and  N_4
REMARK    4  A    between atoms: N_4  and  C_5
REMARK    5  A    between atoms: C_5  and  C_6
REMARK    6  A    between atoms: C_9  and  C_10
REMARK    7  A    between atoms: C_10  and  N_11
REMARK    8  A    between atoms: C_12  and  C_14
REMARK                            x       y       z     vdW  Elec       q    Type
REMARK                         _______ _______ _______ _____ _____    ______ ____
ROOT
ATOM      1  C   UNL     1      46.526   4.269  14.094  0.00  0.00    +0.000 C 
ENDROOT
BRANCH   1   5
ATOM      2  C   UNL     1      45.096   7.744  12.084  0.00  0.00    +0.000 A 
ATOM      3  C   UNL     1      46.402   7.742  12.563  0.00  0.00    +0.000 A 
ATOM      4  C   UNL     1      46.885   6.612  13.217  0.00  0.00    +0.000 A 
ATOM      5  C   UNL     1      46.047   5.507  13.396  0.00  0.00    +0.000 A 
ATOM      6  C   UNL     1      44.763   5.588  12.869  0.00  0.00    +0.000 A 
ATOM      7  N   UNL     1      44.271   6.672  12.222  0.00  0.00    +0.000 NA
BRANCH   2   8
ATOM      8  C   UNL     1      44.596   8.927  11.279  0.00  0.00    +0.000 C 
BRANCH   8   9
ATOM      9  N   UNL     1      43.180   8.814  10.871  0.00  0.00    +0.000 NA
ATOM     10  H   UNL     1      43.149   8.122  10.118  0.00  0.00    +0.000 HD
BRANCH   9  11
ATOM     11  C   UNL     1      42.678  10.071  10.282  0.00  0.00    +0.000 C 
BRANCH  11  12
ATOM     12  C   UNL     1      41.223  10.402  10.672  0.00  0.00    +0.000 C 
BRANCH  12  13
ATOM     13  N   UNL     1      40.619   9.299  11.429  0.00  0.00    +0.000 NA
ATOM     14  H   UNL     1      41.247   9.043  12.190  0.00  0.00    +0.000 HD
ATOM     15  H   UNL     1      40.559   8.481  10.823  0.00  0.00    +0.000 HD
ENDBRANCH  12  13
ENDBRANCH  11  12
ENDBRANCH   9  11
ENDBRANCH   8   9
ENDBRANCH   2   8
ENDBRANCH   1   5
BRANCH   1  16
ATOM     16  N   UNL     1      47.587   4.559  15.023  0.00  0.00    +0.000 N 
ATOM     17  C   UNL     1      47.510   4.154  16.334  0.00  0.00    +0.000 C 
ATOM     18  O   UNL     1      46.570   3.484  16.751  0.00  0.00    +0.000 OA
ATOM     19  H   UNL     1      48.239   5.296  14.772  0.00  0.00    +0.000 HD
BRANCH  17  20
ATOM     20  C   UNL     1      48.641   4.512  17.199  0.00  0.00    +0.000 A 
ATOM     21  C   UNL     1      48.645   5.732  17.862  0.00  0.00    +0.000 A 
ATOM     22  S   UNL     1      50.011   5.969  18.853  0.00  0.00    +0.000 S 
ATOM     23  C   UNL     1      50.671   4.470  18.395  0.00  0.00    +0.000 A 
ATOM     24  N   UNL     1      51.876   4.059  18.877  0.00  0.00    +0.000 NA
ATOM     25  C   UNL     1      52.269   2.916  18.427  0.00  0.00    +0.000 A 
ATOM     26  N   UNL     1      51.562   2.139  17.544  0.00  0.00    +0.000 N 
ATOM     27  C   UNL     1      50.328   2.496  17.055  0.00  0.00    +0.000 A 
ATOM     28  O   UNL     1      49.701   1.759  16.303  0.00  0.00    +0.000 OA
ATOM     29  C   UNL     1      49.850   3.787  17.516  0.00  0.00    +0.000 A 
ATOM     30  H   UNL     1      51.921   1.245  17.241  0.00  0.00    +0.000 HD
ENDBRANCH  17  20
ENDBRANCH   1  16
TORSDOF 8
ENDMDL
MODEL 7
REMARK VINA RESULT:    -6.412      3.760      8.115
REMARK INTER + INTRA:          -9.877
REMARK INTER:                  -8.818
REMARK INTRA:                  -1.059
REMARK UNBOUND:                -0.653
REMARK  Name = 
REMARK  8 active torsions:
REMARK  status: ('A' for Active; 'I' for Inactive)
REMARK    1  A    between atoms: N_1  and  C_2
REMARK    2  A    between atoms: C_2  and  C_3
REMARK    3  A    between atoms: C_3  and  N_4
REMARK    4  A    between atoms: N_4  and  C_5
REMARK    5  A    between atoms: C_5  and  C_6
REMARK    6  A    between atoms: C_9  and  C_10
REMARK    7  A    between atoms: C_10  and  N_11
REMARK    8  A    between atoms: C_12  and  C_14
REMARK                            x       y       z     vdW  Elec       q    Type
REMARK                         _______ _______ _______ _____ _____    ______ ____
ROOT
ATOM      1  C   UNL     1      47.335   3.526  16.627  0.00  0.00    +0.000 C 
ENDROOT
BRANCH   1   5
ATOM      2  C   UNL     1      51.275   4.765  17.675  0.00  0.00    +0.000 A 
ATOM      3  C   UNL     1      50.975   3.406  17.699  0.00  0.00    +0.000 A 
ATOM      4  C   UNL     1      49.694   2.987  17.355  0.00  0.00    +0.000 A 
ATOM      5  C   UNL     1      48.727   3.935  17.006  0.00  0.00    +0.000 A 
ATOM      6  C   UNL     1      49.118   5.269  16.990  0.00  0.00    +0.000 A 
ATOM      7  N   UNL     1      50.360   5.703  17.314  0.00  0.00    +0.000 NA
BRANCH   2   8
ATOM      8  C   UNL     1      52.695   5.223  17.946  0.00  0.00    +0.000 C 
BRANCH   8   9
ATOM      9  N   UNL     1      53.444   5.596  16.728  0.00  0.00    +0.000 NA
ATOM     10  H   UNL     1      54.373   5.178  16.819  0.00  0.00    +0.000 HD
BRANCH   9  11
ATOM     11  C   UNL     1      53.663   7.053  16.645  0.00  0.00    +0.000 C 
BRANCH  11  12
ATOM     12  C   UNL     1      53.156   7.684  15.332  0.00  0.00    +0.000 C 
BRANCH  12  13
ATOM     13  N   UNL     1      51.743   7.359  15.106  0.00  0.00    +0.000 NA
ATOM     14  H   UNL     1      51.248   8.215  14.855  0.00  0.00    +0.000 HD
ATOM     15  H   UNL     1      51.335   7.043  15.985  0.00  0.00    +0.000 HD
ENDBRANCH  12  13
ENDBRANCH  11  12
ENDBRANCH   9  11
ENDBRANCH   8   9
ENDBRANCH   2   8
ENDBRANCH   1   5
BRANCH   1  16
ATOM     16  N   UNL     1      46.735   4.464  15.713  0.00  0.00    +0.000 N 
ATOM     17  C   UNL     1      46.732   4.230  14.359  0.00  0.00    +0.000 C 
ATOM     18  O   UNL     1      47.184   3.194  13.879  0.00  0.00    +0.000 OA
ATOM     19  H   UNL     1      46.579   5.409  16.050  0.00  0.00    +0.000 HD
BRANCH  17  20
ATOM     20  C   UNL     1      46.106   5.255  13.517  0.00  0.00    +0.000 A 
ATOM     21  C   UNL     1      46.772   6.449  13.271  0.00  0.00    +0.000 A 
ATOM     22  S   UNL     1      45.920   7.510  12.243  0.00  0.00    +0.000 S 
ATOM     23  C   UNL     1      44.608   6.432  12.128  0.00  0.00    +0.000 A 
ATOM     24  N   UNL     1      43.504   6.750  11.399  0.00  0.00    +0.000 NA
ATOM     25  C   UNL     1      42.575   5.855  11.421  0.00  0.00    +0.000 A 
ATOM     26  N   UNL     1      42.654   4.664  12.098  0.00  0.00    +0.000 N 
ATOM     27  C   UNL     1      43.759   4.285  12.821  0.00  0.00    +0.000 A 
ATOM     28  O   UNL     1      43.817   3.195  13.376  0.00  0.00    +0.000 OA
ATOM     29  C   UNL     1      44.826   5.270  12.845  0.00  0.00    +0.000 A 
ATOM     30  H   UNL     1      41.895   3.999  12.062  0.00  0.00    +0.000 HD
ENDBRANCH  17  20
ENDBRANCH   1  16
TORSDOF 8
ENDMDL
MODEL 8
REMARK VINA RESULT:    -6.373      3.058      8.060
REMARK INTER + INTRA:          -9.821
REMARK INTER:                  -8.733
REMARK INTRA:                  -1.088
REMARK UNBOUND:                -0.653
REMARK  Name = 
REMARK  8 active torsions:
REMARK  status: ('A' for Active; 'I' for Inactive)
REMARK    1  A    between atoms: N_1  and  C_2
REMARK    2  A    between atoms: C_2  and  C_3
REMARK    3  A    between atoms: C_3  and  N_4
REMARK    4  A    between atoms: N_4  and  C_5
REMARK    5  A    between atoms: C_5  and  C_6
REMARK    6  A    between atoms: C_9  and  C_10
REMARK    7  A    between atoms: C_10  and  N_11
REMARK    8  A    between atoms: C_12  and  C_14
REMARK                            x       y       z     vdW  Elec       q    Type
REMARK                         _______ _______ _______ _____ _____    ______ ____
ROOT
ATOM      1  C   UNL     1      48.255   7.842  12.444  0.00  0.00    +0.000 C 
ENDROOT
BRANCH   1   5
ATOM      2  C   UNL     1      49.846   6.532  16.175  0.00  0.00    +0.000 A 
ATOM      3  C   UNL     1      50.491   7.565  15.501  0.00  0.00    +0.000 A 
ATOM      4  C   UNL     1      49.980   8.006  14.284  0.00  0.00    +0.000 A 
ATOM      5  C   UNL     1      48.840   7.397  13.752  0.00  0.00    +0.000 A 
ATOM      6  C   UNL     1      48.249   6.386  14.501  0.00  0.00    +0.000 A 
ATOM      7  N   UNL     1      48.722   5.941  15.690  0.00  0.00    +0.000 NA
BRANCH   2   8
ATOM      8  C   UNL     1      50.333   6.116  17.549  0.00  0.00    +0.000 C 
BRANCH   8   9
ATOM      9  N   UNL     1      49.438   5.159  18.233  0.00  0.00    +0.000 NA
ATOM     10  H   UNL     1      48.743   4.866  17.542  0.00  0.00    +0.000 HD
BRANCH   9  11
ATOM     11  C   UNL     1      48.677   5.804  19.321  0.00  0.00    +0.000 C 
BRANCH  11  12
ATOM     12  C   UNL     1      47.168   5.931  19.033  0.00  0.00    +0.000 C 
BRANCH  12  13
ATOM     13  N   UNL     1      46.721   4.886  18.104  0.00  0.00    +0.000 NA
ATOM     14  H   UNL     1      46.687   5.278  17.164  0.00  0.00    +0.000 HD
ATOM     15  H   UNL     1      45.764   4.627  18.339  0.00  0.00    +0.000 HD
ENDBRANCH  12  13
ENDBRANCH  11  12
ENDBRANCH   9  11
ENDBRANCH   8   9
ENDBRANCH   2   8
ENDBRANCH   1   5
BRANCH   1  16
ATOM     16  N   UNL     1      47.569   6.768  11.775  0.00  0.00    +0.000 N 
ATOM     17  C   UNL     1      46.227   6.851  11.495  0.00  0.00    +0.000 C 
ATOM     18  O   UNL     1      45.573   7.859  11.748  0.00  0.00    +0.000 OA
ATOM     19  H   UNL     1      48.017   5.857  11.775  0.00  0.00    +0.000 HD
BRANCH  17  20
ATOM     20  C   UNL     1      45.623   5.696  10.821  0.00  0.00    +0.000 A 
ATOM     21  C   UNL     1      45.783   5.535   9.450  0.00  0.00    +0.000 A 
ATOM     22  S   UNL     1      45.052   4.122   8.837  0.00  0.00    +0.000 S 
ATOM     23  C   UNL     1      44.455   3.698  10.372  0.00  0.00    +0.000 A 
ATOM     24  N   UNL     1      43.702   2.578  10.545  0.00  0.00    +0.000 NA
ATOM     25  C   UNL     1      43.292   2.392  11.754  0.00  0.00    +0.000 A 
ATOM     26  N   UNL     1      43.575   3.221  12.811  0.00  0.00    +0.000 N 
ATOM     27  C   UNL     1      44.357   4.345  12.692  0.00  0.00    +0.000 A 
ATOM     28  O   UNL     1      44.630   5.039  13.664  0.00  0.00    +0.000 OA
ATOM     29  C   UNL     1      44.826   4.610  11.344  0.00  0.00    +0.000 A 
ATOM     30  H   UNL     1      43.235   3.010  13.738  0.00  0.00    +0.000 HD
ENDBRANCH  17  20
ENDBRANCH   1  16
TORSDOF 8
ENDMDL
MODEL 9
REMARK VINA RESULT:    -6.224      3.952      5.564
REMARK INTER + INTRA:          -9.606
REMARK INTER:                  -8.691
REMARK INTRA:                  -0.915
REMARK UNBOUND:                -0.653
REMARK  Name = 
REMARK  8 active torsions:
REMARK  status: ('A' for Active; 'I' for Inactive)
REMARK    1  A    between atoms: N_1  and  C_2
REMARK    2  A    between atoms: C_2  and  C_3
REMARK    3  A    between atoms: C_3  and  N_4
REMARK    4  A    between atoms: N_4  and  C_5
REMARK    5  A    between atoms: C_5  and  C_6
REMARK    6  A    between atoms: C_9  and  C_10
REMARK    7  A    between atoms: C_10  and  N_11
REMARK    8  A    between atoms: C_12  and  C_14
REMARK                            x       y       z     vdW  Elec       q    Type
REMARK                         _______ _______ _______ _____ _____    ______ ____
ROOT
ATOM      1  C   UNL     1      46.142   4.930  13.398  0.00  0.00    +0.000 C 
ENDROOT
BRANCH   1   5
ATOM      2  C   UNL     1      44.788   8.636  11.787  0.00  0.00    +0.000 A 
ATOM      3  C   UNL     1      45.949   8.628  12.553  0.00  0.00    +0.000 A 
ATOM      4  C   UNL     1      46.406   7.424  13.082  0.00  0.00    +0.000 A 
ATOM      5  C   UNL     1      45.685   6.249  12.849  0.00  0.00    +0.000 A 
ATOM      6  C   UNL     1      44.546   6.346  12.057  0.00  0.00    +0.000 A 
ATOM      7  N   UNL     1      44.083   7.504  11.525  0.00  0.00    +0.000 NA
BRANCH   2   8
ATOM      8  C   UNL     1      44.341   9.923  11.120  0.00  0.00    +0.000 C 
BRANCH   8   9
ATOM      9  N   UNL     1      43.586  10.825  12.015  0.00  0.00    +0.000 NA
ATOM     10  H   UNL     1      43.319  10.269  12.830  0.00  0.00    +0.000 HD
BRANCH   9  11
ATOM     11  C   UNL     1      42.321  11.273  11.400  0.00  0.00    +0.000 C 
BRANCH  11  12
ATOM     12  C   UNL     1      41.629  10.191  10.546  0.00  0.00    +0.000 C 
BRANCH  12  13
ATOM     13  N   UNL     1      40.703   9.394  11.359  0.00  0.00    +0.000 NA
ATOM     14  H   UNL     1      39.750   9.589  11.054  0.00  0.00    +0.000 HD
ATOM     15  H   UNL     1      40.762   9.709  12.327  0.00  0.00    +0.000 HD
ENDBRANCH  12  13
ENDBRANCH  11  12
ENDBRANCH   9  11
ENDBRANCH   8   9
ENDBRANCH   2   8
ENDBRANCH   1   5
BRANCH   1  16
ATOM     16  N   UNL     1      46.776   5.080  14.682  0.00  0.00    +0.000 N 
ATOM     17  C   UNL     1      47.446   4.033  15.267  0.00  0.00    +0.000 C 
ATOM     18  O   UNL     1      47.582   2.952  14.700  0.00  0.00    +0.000 OA
ATOM     19  H   UNL     1      46.481   5.861  15.260  0.00  0.00    +0.000 HD
BRANCH  17  20
ATOM     20  C   UNL     1      48.047   4.290  16.581  0.00  0.00    +0.000 A 
ATOM     21  C   UNL     1      47.719   3.479  17.660  0.00  0.00    +0.000 A 
ATOM     22  S   UNL     1      48.535   3.892  19.099  0.00  0.00    +0.000 S 
ATOM     23  C   UNL     1      49.320   5.199  18.344  0.00  0.00    +0.000 A 
ATOM     24  N   UNL     1      50.165   6.005  19.042  0.00  0.00    +0.000 NA
ATOM     25  C   UNL     1      50.669   6.973  18.353  0.00  0.00    +0.000 A 
ATOM     26  N   UNL     1      50.412   7.203  17.025  0.00  0.00    +0.000 N 
ATOM     27  C   UNL     1      49.592   6.399  16.272  0.00  0.00    +0.000 A 
ATOM     28  O   UNL     1      49.418   6.604  15.076  0.00  0.00    +0.000 OA
ATOM     29  C   UNL     1      48.982   5.306  17.007  0.00  0.00    +0.000 A 
ATOM     30  H   UNL     1      50.852   7.972  16.540  0.00  0.00    +0.000 HD
ENDBRANCH  17  20
ENDBRANCH   1  16
TORSDOF 8
ENDMDL
