MODEL 1
REMARK VINA RESULT:    -8.071      0.000      0.000
REMARK INTER + INTRA:         -10.588
REMARK INTER:                 -10.430
REMARK INTRA:                  -0.157
REMARK UNBOUND:                -0.157
REMARK  Name = 
REMARK  5 active torsions:
REMARK  status: ('A' for Active; 'I' for Inactive)
REMARK    1  A    between atoms: C_2  and  C_18
REMARK    2  A    between atoms: N_3  and  C_4
REMARK    3  A    between atoms: C_4  and  C_5
REMARK    4  A    between atoms: C_8  and  C_9
REMARK    5  A    between atoms: C_9  and  N_10
REMARK                            x       y       z     vdW  Elec       q    Type
REMARK                         _______ _______ _______ _____ _____    ______ ____
ROOT
ATOM      1  O   UNL     1      46.904   3.288  13.826  0.00  0.00    +0.000 OA
ATOM      2  C   UNL     1      46.687   4.445  14.159  0.00  0.00    +0.000 C 
ATOM      3  N   UNL     1      45.521   5.101  13.832  0.00  0.00    +0.000 N 
ATOM      4  H   UNL     1      45.342   6.028  14.194  0.00  0.00    +0.000 HD
ENDROOT
BRANCH   2   5
ATOM      5  C   UNL     1      47.627   5.213  14.979  0.00  0.00    +0.000 A 
ATOM      6  C   UNL     1      48.430   6.235  14.482  0.00  0.00    +0.000 A 
ATOM      7  S   UNL     1      49.348   7.007  15.698  0.00  0.00    +0.000 S 
ATOM      8  C   UNL     1      48.699   6.014  16.917  0.00  0.00    +0.000 A 
ATOM      9  N   UNL     1      49.059   6.168  18.221  0.00  0.00    +0.000 NA
ATOM     10  C   UNL     1      48.467   5.352  19.032  0.00  0.00    +0.000 A 
ATOM     11  N   UNL     1      47.565   4.391  18.657  0.00  0.00    +0.000 N 
ATOM     12  C   UNL     1      47.240   4.140  17.341  0.00  0.00    +0.000 A 
ATOM     13  O   UNL     1      46.578   3.149  17.035  0.00  0.00    +0.000 OA
ATOM     14  C   UNL     1      47.814   5.084  16.403  0.00  0.00    +0.000 A 
ATOM     15  H   UNL     1      47.185   3.745  19.333  0.00  0.00    +0.000 HD
ENDBRANCH   2   5
BRANCH   3  16
ATOM     16  C   UNL     1      44.440   4.431  13.122  0.00  0.00    +0.000 C 
BRANCH  16  17
ATOM     17  C   UNL     1      44.616   4.532  11.626  0.00  0.00    +0.000 A 
ATOM     18  C   UNL     1      45.394   5.546  11.077  0.00  0.00    +0.000 A 
ATOM     19  N   UNL     1      45.845   5.520   9.796  0.00  0.00    +0.000 NA
ATOM     20  C   UNL     1      45.472   4.445   9.049  0.00  0.00    +0.000 A 
ATOM     21  C   UNL     1      44.583   3.505   9.563  0.00  0.00    +0.000 A 
ATOM     22  N   UNL     1      44.157   3.510  10.855  0.00  0.00    +0.000 NA
BRANCH  20  23
ATOM     23  C   UNL     1      46.267   4.138   7.782  0.00  0.00    +0.000 C 
BRANCH  23  24
ATOM     24  N   UNL     1      45.829   3.004   6.943  0.00  0.00    +0.000 NA
ATOM     25  C   UNL     1      46.086   1.702   7.617  0.00  0.00    +0.000 C 
ATOM     26  C   UNL     1      47.519   1.113   7.516  0.00  0.00    +0.000 C 
ATOM     27  O   UNL     1      48.128   1.268   6.230  0.00  0.00    +0.000 OA
ATOM     28  C   UNL     1      48.003   2.615   5.761  0.00  0.00    +0.000 C 
ATOM     29  C   UNL     1      46.515   2.960   5.634  0.00  0.00    +0.000 C 
ENDBRANCH  23  24
ENDBRANCH  20  23
ENDBRANCH  16  17
ENDBRANCH   3  16
TORSDOF 5
ENDMDL
MODEL 2
REMARK VINA RESULT:    -7.676      3.841      6.131
REMARK INTER + INTRA:         -10.077
REMARK INTER:                  -9.381
REMARK INTRA:                  -0.696
REMARK UNBOUND:                -0.157
REMARK  Name = 
REMARK  5 active torsions:
REMARK  status: ('A' for Active; 'I' for Inactive)
REMARK    1  A    between atoms: C_2  and  C_18
REMARK    2  A    between atoms: N_3  and  C_4
REMARK    3  A    between atoms: C_4  and  C_5
REMARK    4  A    between atoms: C_8  and  C_9
REMARK    5  A    between atoms: C_9  and  N_10
REMARK                            x       y       z     vdW  Elec       q    Type
REMARK                         _______ _______ _______ _____ _____    ______ ____
ROOT
ATOM      1  O   UNL     1      51.489   6.188  16.568  0.00  0.00    +0.000 OA
ATOM      2  C   UNL     1      51.295   5.327  17.414  0.00  0.00    +0.000 C 
ATOM      3  N   UNL     1      50.068   5.146  18.017  0.00  0.00    +0.000 N 
ATOM      4  H   UNL     1      49.924   4.373  18.651  0.00  0.00    +0.000 HD
ENDROOT
BRANCH   2   5
ATOM      5  C   UNL     1      52.335   4.380  17.822  0.00  0.00    +0.000 A 
ATOM      6  C   UNL     1      53.567   4.762  18.344  0.00  0.00    +0.000 A 
ATOM      7  S   UNL     1      54.528   3.431  18.815  0.00  0.00    +0.000 S 
ATOM      8  C   UNL     1      53.335   2.313  18.349  0.00  0.00    +0.000 A 
ATOM      9  N   UNL     1      53.519   0.974  18.506  0.00  0.00    +0.000 NA
ATOM     10  C   UNL     1      52.516   0.253  18.123  0.00  0.00    +0.000 A 
ATOM     11  N   UNL     1      51.357   0.747  17.584  0.00  0.00    +0.000 N 
ATOM     12  C   UNL     1      51.163   2.087  17.322  0.00  0.00    +0.000 A 
ATOM     13  O   UNL     1      50.194   2.465  16.666  0.00  0.00    +0.000 OA
ATOM     14  C   UNL     1      52.226   2.942  17.812  0.00  0.00    +0.000 A 
ATOM     15  H   UNL     1      50.635   0.126  17.247  0.00  0.00    +0.000 HD
ENDBRANCH   2   5
BRANCH   3  16
ATOM     16  C   UNL     1      48.904   5.932  17.631  0.00  0.00    +0.000 C 
BRANCH  16  17
ATOM     17  C   UNL     1      48.348   5.478  16.302  0.00  0.00    +0.000 A 
ATOM     18  C   UNL     1      47.501   4.376  16.235  0.00  0.00    +0.000 A 
ATOM     19  N   UNL     1      46.731   4.103  15.149  0.00  0.00    +0.000 NA
ATOM     20  C   UNL     1      46.848   4.958  14.098  0.00  0.00    +0.000 A 
ATOM     21  C   UNL     1      47.797   5.977  14.121  0.00  0.00    +0.000 A 
ATOM     22  N   UNL     1      48.545   6.275  15.218  0.00  0.00    +0.000 NA
BRANCH  20  23
ATOM     23  C   UNL     1      45.738   4.967  13.050  0.00  0.00    +0.000 C 
BRANCH  23  24
ATOM     24  N   UNL     1      44.605   4.036  13.228  0.00  0.00    +0.000 NA
ATOM     25  C   UNL     1      44.648   2.934  12.228  0.00  0.00    +0.000 C 
ATOM     26  C   UNL     1      44.075   3.226  10.815  0.00  0.00    +0.000 C 
ATOM     27  O   UNL     1      42.874   4.005  10.817  0.00  0.00    +0.000 OA
ATOM     28  C   UNL     1      43.011   5.158  11.655  0.00  0.00    +0.000 C 
ATOM     29  C   UNL     1      43.290   4.698  13.090  0.00  0.00    +0.000 C 
ENDBRANCH  23  24
ENDBRANCH  20  23
ENDBRANCH  16  17
ENDBRANCH   3  16
TORSDOF 5
ENDMDL
MODEL 3
REMARK VINA RESULT:    -7.328      3.070      4.435
REMARK INTER + INTRA:          -9.628
REMARK INTER:                  -8.727
REMARK INTRA:                  -0.901
REMARK UNBOUND:                -0.157
REMARK  Name = 
REMARK  5 active torsions:
REMARK  status: ('A' for Active; 'I' for Inactive)
REMARK    1  A    between atoms: C_2  and  C_18
REMARK    2  A    between atoms: N_3  and  C_4
REMARK    3  A    between atoms: C_4  and  C_5
REMARK    4  A    between atoms: C_8  and  C_9
REMARK    5  A    between atoms: C_9  and  N_10
REMARK                            x       y       z     vdW  Elec       q    Type
REMARK                         _______ _______ _______ _____ _____    ______ ____
ROOT
ATOM      1  O   UNL     1      50.431   7.684  15.002  0.00  0.00    +0.000 OA
ATOM      2  C   UNL     1      49.484   7.473  15.746  0.00  0.00    +0.000 C 
ATOM      3  N   UNL     1      48.281   8.134  15.617  0.00  0.00    +0.000 N 
ATOM      4  H   UNL     1      47.496   7.875  16.197  0.00  0.00    +0.000 HD
ENDROOT
BRANCH   2   5
ATOM      5  C   UNL     1      49.530   6.462  16.804  0.00  0.00    +0.000 A 
ATOM      6  C   UNL     1      50.322   6.571  17.943  0.00  0.00    +0.000 A 
ATOM      7  S   UNL     1      50.087   5.281  19.039  0.00  0.00    +0.000 S 
ATOM      8  C   UNL     1      48.923   4.549  18.038  0.00  0.00    +0.000 A 
ATOM      9  N   UNL     1      48.298   3.397  18.404  0.00  0.00    +0.000 NA
ATOM     10  C   UNL     1      47.426   2.973  17.548  0.00  0.00    +0.000 A 
ATOM     11  N   UNL     1      47.134   3.586  16.357  0.00  0.00    +0.000 N 
ATOM     12  C   UNL     1      47.806   4.701  15.904  0.00  0.00    +0.000 A 
ATOM     13  O   UNL     1      47.649   5.105  14.753  0.00  0.00    +0.000 OA
ATOM     14  C   UNL     1      48.734   5.261  16.867  0.00  0.00    +0.000 A 
ATOM     15  H   UNL     1      46.487   3.170  15.705  0.00  0.00    +0.000 HD
ENDBRANCH   2   5
BRANCH   3  16
ATOM     16  C   UNL     1      48.042   9.083  14.538  0.00  0.00    +0.000 C 
BRANCH  16  17
ATOM     17  C   UNL     1      47.380   8.416  13.355  0.00  0.00    +0.000 A 
ATOM     18  C   UNL     1      48.148   7.757  12.401  0.00  0.00    +0.000 A 
ATOM     19  N   UNL     1      47.620   6.888  11.500  0.00  0.00    +0.000 NA
ATOM     20  C   UNL     1      46.272   6.709  11.556  0.00  0.00    +0.000 A 
ATOM     21  C   UNL     1      45.495   7.475  12.422  0.00  0.00    +0.000 A 
ATOM     22  N   UNL     1      46.024   8.319  13.349  0.00  0.00    +0.000 NA
BRANCH  20  23
ATOM     23  C   UNL     1      45.682   5.469  10.889  0.00  0.00    +0.000 C 
BRANCH  23  24
ATOM     24  N   UNL     1      44.211   5.354  10.811  0.00  0.00    +0.000 NA
ATOM     25  C   UNL     1      43.636   4.876  12.098  0.00  0.00    +0.000 C 
ATOM     26  C   UNL     1      43.656   3.347  12.368  0.00  0.00    +0.000 C 
ATOM     27  O   UNL     1      43.348   2.545  11.223  0.00  0.00    +0.000 OA
ATOM     28  C   UNL     1      44.111   2.958  10.084  0.00  0.00    +0.000 C 
ATOM     29  C   UNL     1      43.764   4.415   9.759  0.00  0.00    +0.000 C 
ENDBRANCH  23  24
ENDBRANCH  20  23
ENDBRANCH  16  17
ENDBRANCH   3  16
TORSDOF 5
ENDMDL
MODEL 4
REMARK VINA RESULT:    -7.272      2.104      3.344
REMARK INTER + INTRA:          -9.556
REMARK INTER:                  -8.515
REMARK INTRA:                  -1.040
REMARK UNBOUND:                -0.157
REMARK  Name = 
REMARK  5 active torsions:
REMARK  status: ('A' for Active; 'I' for Inactive)
REMARK    1  A    between atoms: C_2  and  C_18
REMARK    2  A    between atoms: N_3  and  C_4
REMARK    3  A    between atoms: C_4  and  C_5
REMARK    4  A    between atoms: C_8  and  C_9
REMARK    5  A    between atoms: C_9  and  N_10
REMARK                            x       y       z     vdW  Elec       q    Type
REMARK                         _______ _______ _______ _____ _____    ______ ____
ROOT
ATOM      1  O   UNL     1      46.410   3.458  13.625  0.00  0.00    +0.000 OA
ATOM      2  C   UNL     1      46.243   4.664  13.737  0.00  0.00    +0.000 C 
ATOM      3  N   UNL     1      45.019   5.263  13.531  0.00  0.00    +0.000 N 
ATOM      4  H   UNL     1      44.901   6.250  13.713  0.00  0.00    +0.000 HD
ENDROOT
BRANCH   2   5
ATOM      5  C   UNL     1      47.318   5.568  14.150  0.00  0.00    +0.000 A 
ATOM      6  C   UNL     1      47.882   5.570  15.422  0.00  0.00    +0.000 A 
ATOM      7  S   UNL     1      49.179   6.671  15.571  0.00  0.00    +0.000 S 
ATOM      8  C   UNL     1      49.035   7.169  13.951  0.00  0.00    +0.000 A 
ATOM      9  N   UNL     1      49.875   8.099  13.419  0.00  0.00    +0.000 NA
ATOM     10  C   UNL     1      49.653   8.360  12.172  0.00  0.00    +0.000 A 
ATOM     11  N   UNL     1      48.661   7.790  11.416  0.00  0.00    +0.000 N 
ATOM     12  C   UNL     1      47.732   6.914  11.936  0.00  0.00    +0.000 A 
ATOM     13  O   UNL     1      46.750   6.576  11.278  0.00  0.00    +0.000 OA
ATOM     14  C   UNL     1      47.992   6.527  13.309  0.00  0.00    +0.000 A 
ATOM     15  H   UNL     1      48.502   8.083  10.464  0.00  0.00    +0.000 HD
ENDBRANCH   2   5
BRANCH   3  16
ATOM     16  C   UNL     1      43.827   4.482  13.232  0.00  0.00    +0.000 C 
BRANCH  16  17
ATOM     17  C   UNL     1      43.772   4.095  11.773  0.00  0.00    +0.000 A 
ATOM     18  C   UNL     1      43.729   5.076  10.788  0.00  0.00    +0.000 A 
ATOM     19  N   UNL     1      43.989   4.819   9.479  0.00  0.00    +0.000 NA
ATOM     20  C   UNL     1      44.272   3.526   9.165  0.00  0.00    +0.000 A 
ATOM     21  C   UNL     1      44.179   2.529  10.132  0.00  0.00    +0.000 A 
ATOM     22  N   UNL     1      43.954   2.787  11.449  0.00  0.00    +0.000 NA
BRANCH  20  23
ATOM     23  C   UNL     1      44.975   3.245   7.838  0.00  0.00    +0.000 C 
BRANCH  23  24
ATOM     24  N   UNL     1      46.451   3.295   7.808  0.00  0.00    +0.000 NA
ATOM     25  C   UNL     1      46.948   3.827   6.510  0.00  0.00    +0.000 C 
ATOM     26  C   UNL     1      47.042   2.836   5.318  0.00  0.00    +0.000 C 
ATOM     27  O   UNL     1      47.523   1.535   5.672  0.00  0.00    +0.000 OA
ATOM     28  C   UNL     1      46.831   1.025   6.817  0.00  0.00    +0.000 C 
ATOM     29  C   UNL     1      47.074   1.967   8.002  0.00  0.00    +0.000 C 
ENDBRANCH  23  24
ENDBRANCH  20  23
ENDBRANCH  16  17
ENDBRANCH   3  16
TORSDOF 5
ENDMDL
MODEL 5
REMARK VINA RESULT:    -7.029      3.473      8.910
REMARK INTER + INTRA:          -9.241
REMARK INTER:                  -8.487
REMARK INTRA:                  -0.754
REMARK UNBOUND:                -0.157
REMARK  Name = 
REMARK  5 active torsions:
REMARK  status: ('A' for Active; 'I' for Inactive)
REMARK    1  A    between atoms: C_2  and  C_18
REMARK    2  A    between atoms: N_3  and  C_4
REMARK    3  A    between atoms: C_4  and  C_5
REMARK    4  A    between atoms: C_8  and  C_9
REMARK    5  A    between atoms: C_9  and  N_10
REMARK                            x       y       z     vdW  Elec       q    Type
REMARK                         _______ _______ _______ _____ _____    ______ ____
ROOT
ATOM      1  O   UNL     1      45.720   7.811  11.690  0.00  0.00    +0.000 OA
ATOM      2  C   UNL     1      46.225   6.704  11.567  0.00  0.00    +0.000 C 
ATOM      3  N   UNL     1      47.407   6.358  12.187  0.00  0.00    +0.000 N 
ATOM      4  H   UNL     1      47.750   5.410  12.129  0.00  0.00    +0.000 HD
ENDROOT
BRANCH   2   5
ATOM      5  C   UNL     1      45.590   5.634  10.795  0.00  0.00    +0.000 A 
ATOM      6  C   UNL     1      45.727   5.489   9.418  0.00  0.00    +0.000 A 
ATOM      7  S   UNL     1      44.948   4.092   8.818  0.00  0.00    +0.000 S 
ATOM      8  C   UNL     1      44.415   3.638  10.367  0.00  0.00    +0.000 A 
ATOM      9  N   UNL     1      43.694   2.500  10.563  0.00  0.00    +0.000 NA
ATOM     10  C   UNL     1      43.378   2.279  11.798  0.00  0.00    +0.000 A 
ATOM     11  N   UNL     1      43.703   3.098  12.848  0.00  0.00    +0.000 N 
ATOM     12  C   UNL     1      44.352   4.303  12.686  0.00  0.00    +0.000 A 
ATOM     13  O   UNL     1      44.454   5.093  13.624  0.00  0.00    +0.000 OA
ATOM     14  C   UNL     1      44.800   4.553  11.330  0.00  0.00    +0.000 A 
ATOM     15  H   UNL     1      43.372   2.900  13.781  0.00  0.00    +0.000 HD
ENDBRANCH   2   5
BRANCH   3  16
ATOM     16  C   UNL     1      48.096   7.275  13.084  0.00  0.00    +0.000 C 
BRANCH  16  17
ATOM     17  C   UNL     1      48.431   6.612  14.399  0.00  0.00    +0.000 A 
ATOM     18  C   UNL     1      49.214   7.273  15.339  0.00  0.00    +0.000 A 
ATOM     19  N   UNL     1      49.296   6.882  16.638  0.00  0.00    +0.000 NA
ATOM     20  C   UNL     1      48.584   5.774  16.978  0.00  0.00    +0.000 A 
ATOM     21  C   UNL     1      47.913   5.040  16.003  0.00  0.00    +0.000 A 
ATOM     22  N   UNL     1      47.800   5.448  14.710  0.00  0.00    +0.000 NA
BRANCH  20  23
ATOM     23  C   UNL     1      48.290   5.534  18.458  0.00  0.00    +0.000 C 
BRANCH  23  24
ATOM     24  N   UNL     1      48.813   4.300  19.080  0.00  0.00    +0.000 NA
ATOM     25  C   UNL     1      48.905   4.438  20.559  0.00  0.00    +0.000 C 
ATOM     26  C   UNL     1      50.153   5.157  21.137  0.00  0.00    +0.000 C 
ATOM     27  O   UNL     1      51.379   4.829  20.475  0.00  0.00    +0.000 OA
ATOM     28  C   UNL     1      51.239   4.929  19.053  0.00  0.00    +0.000 C 
ATOM     29  C   UNL     1      50.163   3.940  18.592  0.00  0.00    +0.000 C 
ENDBRANCH  23  24
ENDBRANCH  20  23
ENDBRANCH  16  17
ENDBRANCH   3  16
TORSDOF 5
ENDMDL
MODEL 6
REMARK VINA RESULT:    -7.028      2.890      8.842
REMARK INTER + INTRA:          -9.239
REMARK INTER:                  -8.376
REMARK INTRA:                  -0.863
REMARK UNBOUND:                -0.157
REMARK  Name = 
REMARK  5 active torsions:
REMARK  status: ('A' for Active; 'I' for Inactive)
REMARK    1  A    between atoms: C_2  and  C_18
REMARK    2  A    between atoms: N_3  and  C_4
REMARK    3  A    between atoms: C_4  and  C_5
REMARK    4  A    between atoms: C_8  and  C_9
REMARK    5  A    between atoms: C_9  and  N_10
REMARK                            x       y       z     vdW  Elec       q    Type
REMARK                         _______ _______ _______ _____ _____    ______ ____
ROOT
ATOM      1  O   UNL     1      44.946   7.704  11.548  0.00  0.00    +0.000 OA
ATOM      2  C   UNL     1      45.631   6.695  11.638  0.00  0.00    +0.000 C 
ATOM      3  N   UNL     1      46.993   6.744  11.844  0.00  0.00    +0.000 N 
ATOM      4  H   UNL     1      47.514   5.891  11.996  0.00  0.00    +0.000 HD
ENDROOT
BRANCH   2   5
ATOM      5  C   UNL     1      45.056   5.350  11.586  0.00  0.00    +0.000 A 
ATOM      6  C   UNL     1      44.422   4.738  12.663  0.00  0.00    +0.000 A 
ATOM      7  S   UNL     1      43.770   3.210  12.268  0.00  0.00    +0.000 S 
ATOM      8  C   UNL     1      44.301   3.322  10.656  0.00  0.00    +0.000 A 
ATOM      9  N   UNL     1      44.046   2.333   9.756  0.00  0.00    +0.000 NA
ATOM     10  C   UNL     1      44.497   2.570   8.567  0.00  0.00    +0.000 A 
ATOM     11  N   UNL     1      45.189   3.695   8.202  0.00  0.00    +0.000 N 
ATOM     12  C   UNL     1      45.549   4.679   9.099  0.00  0.00    +0.000 A 
ATOM     13  O   UNL     1      46.330   5.571   8.773  0.00  0.00    +0.000 OA
ATOM     14  C   UNL     1      44.994   4.497  10.426  0.00  0.00    +0.000 A 
ATOM     15  H   UNL     1      45.568   3.792   7.271  0.00  0.00    +0.000 HD
ENDBRANCH   2   5
BRANCH   3  16
ATOM     16  C   UNL     1      47.693   8.006  12.036  0.00  0.00    +0.000 C 
BRANCH  16  17
ATOM     17  C   UNL     1      48.397   8.050  13.372  0.00  0.00    +0.000 A 
ATOM     18  C   UNL     1      47.918   8.864  14.392  0.00  0.00    +0.000 A 
ATOM     19  N   UNL     1      48.300   8.725  15.688  0.00  0.00    +0.000 NA
ATOM     20  C   UNL     1      49.214   7.751  15.945  0.00  0.00    +0.000 A 
ATOM     21  C   UNL     1      49.790   7.032  14.900  0.00  0.00    +0.000 A 
ATOM     22  N   UNL     1      49.384   7.144  13.606  0.00  0.00    +0.000 NA
BRANCH  20  23
ATOM     23  C   UNL     1      49.362   7.263  17.385  0.00  0.00    +0.000 C 
BRANCH  23  24
ATOM     24  N   UNL     1      48.259   6.472  17.968  0.00  0.00    +0.000 NA
ATOM     25  C   UNL     1      48.540   6.117  19.386  0.00  0.00    +0.000 C 
ATOM     26  C   UNL     1      49.449   4.887  19.651  0.00  0.00    +0.000 C 
ATOM     27  O   UNL     1      49.207   3.779  18.778  0.00  0.00    +0.000 OA
ATOM     28  C   UNL     1      49.160   4.201  17.411  0.00  0.00    +0.000 C 
ATOM     29  C   UNL     1      48.015   5.206  17.243  0.00  0.00    +0.000 C 
ENDBRANCH  23  24
ENDBRANCH  20  23
ENDBRANCH  16  17
ENDBRANCH   3  16
TORSDOF 5
ENDMDL
MODEL 7
REMARK VINA RESULT:    -6.890      4.038      9.224
REMARK INTER + INTRA:          -9.062
REMARK INTER:                  -8.315
REMARK INTRA:                  -0.747
REMARK UNBOUND:                -0.157
REMARK  Name = 
REMARK  5 active torsions:
REMARK  status: ('A' for Active; 'I' for Inactive)
REMARK    1  A    between atoms: C_2  and  C_18
REMARK    2  A    between atoms: N_3  and  C_4
REMARK    3  A    between atoms: C_4  and  C_5
REMARK    4  A    between atoms: C_8  and  C_9
REMARK    5  A    between atoms: C_9  and  N_10
REMARK                            x       y       z     vdW  Elec       q    Type
REMARK                         _______ _______ _______ _____ _____    ______ ____
ROOT
ATOM      1  O   UNL     1      47.215   3.161  13.950  0.00  0.00    +0.000 OA
ATOM      2  C   UNL     1      46.810   4.204  14.444  0.00  0.00    +0.000 C 
ATOM      3  N   UNL     1      46.754   4.403  15.806  0.00  0.00    +0.000 N 
ATOM      4  H   UNL     1      46.491   5.307  16.176  0.00  0.00    +0.000 HD
ENDROOT
BRANCH   2   5
ATOM      5  C   UNL     1      46.398   5.348  13.628  0.00  0.00    +0.000 A 
ATOM      6  C   UNL     1      47.203   6.459  13.393  0.00  0.00    +0.000 A 
ATOM      7  S   UNL     1      46.485   7.583  12.326  0.00  0.00    +0.000 S 
ATOM      8  C   UNL     1      45.093   6.624  12.139  0.00  0.00    +0.000 A 
ATOM      9  N   UNL     1      44.072   7.008  11.325  0.00  0.00    +0.000 NA
ATOM     10  C   UNL     1      43.091   6.167  11.273  0.00  0.00    +0.000 A 
ATOM     11  N   UNL     1      43.033   4.987  11.969  0.00  0.00    +0.000 N 
ATOM     12  C   UNL     1      44.000   4.602  12.873  0.00  0.00    +0.000 A 
ATOM     13  O   UNL     1      43.818   3.637  13.615  0.00  0.00    +0.000 OA
ATOM     14  C   UNL     1      45.158   5.473  12.904  0.00  0.00    +0.000 A 
ATOM     15  H   UNL     1      42.210   4.403  11.932  0.00  0.00    +0.000 HD
ENDBRANCH   2   5
BRANCH   3  16
ATOM     16  C   UNL     1      47.240   3.403  16.746  0.00  0.00    +0.000 C 
BRANCH  16  17
ATOM     17  C   UNL     1      48.611   3.759  17.270  0.00  0.00    +0.000 A 
ATOM     18  C   UNL     1      49.640   2.824  17.235  0.00  0.00    +0.000 A 
ATOM     19  N   UNL     1      50.947   3.159  17.393  0.00  0.00    +0.000 NA
ATOM     20  C   UNL     1      51.208   4.475  17.620  0.00  0.00    +0.000 A 
ATOM     21  C   UNL     1      50.163   5.381  17.789  0.00  0.00    +0.000 A 
ATOM     22  N   UNL     1      48.856   5.056  17.597  0.00  0.00    +0.000 NA
BRANCH  20  23
ATOM     23  C   UNL     1      52.630   4.978  17.384  0.00  0.00    +0.000 C 
BRANCH  23  24
ATOM     24  N   UNL     1      53.407   5.441  18.552  0.00  0.00    +0.000 NA
ATOM     25  C   UNL     1      54.850   5.588  18.218  0.00  0.00    +0.000 C 
ATOM     26  C   UNL     1      55.727   4.307  18.249  0.00  0.00    +0.000 C 
ATOM     27  O   UNL     1      55.437   3.422  19.335  0.00  0.00    +0.000 OA
ATOM     28  C   UNL     1      54.029   3.183  19.442  0.00  0.00    +0.000 C 
ATOM     29  C   UNL     1      53.319   4.515  19.703  0.00  0.00    +0.000 C 
ENDBRANCH  23  24
ENDBRANCH  20  23
ENDBRANCH  16  17
ENDBRANCH   3  16
TORSDOF 5
ENDMDL
MODEL 8
REMARK VINA RESULT:    -6.871      4.054      9.711
REMARK INTER + INTRA:          -9.037
REMARK INTER:                  -8.257
REMARK INTRA:                  -0.780
REMARK UNBOUND:                -0.157
REMARK  Name = 
REMARK  5 active torsions:
REMARK  status: ('A' for Active; 'I' for Inactive)
REMARK    1  A    between atoms: C_2  and  C_18
REMARK    2  A    between atoms: N_3  and  C_4
REMARK    3  A    between atoms: C_4  and  C_5
REMARK    4  A    between atoms: C_8  and  C_9
REMARK    5  A    between atoms: C_9  and  N_10
REMARK                            x       y       z     vdW  Elec       q    Type
REMARK                         _______ _______ _______ _____ _____    ______ ____
ROOT
ATOM      1  O   UNL     1      47.221   3.250  13.703  0.00  0.00    +0.000 OA
ATOM      2  C   UNL     1      46.748   4.254  14.217  0.00  0.00    +0.000 C 
ATOM      3  N   UNL     1      46.749   4.457  15.580  0.00  0.00    +0.000 N 
ATOM      4  H   UNL     1      46.424   5.335  15.962  0.00  0.00    +0.000 HD
ENDROOT
BRANCH   2   5
ATOM      5  C   UNL     1      46.188   5.350  13.423  0.00  0.00    +0.000 A 
ATOM      6  C   UNL     1      46.882   6.517  13.117  0.00  0.00    +0.000 A 
ATOM      7  S   UNL     1      46.000   7.564  12.097  0.00  0.00    +0.000 S 
ATOM      8  C   UNL     1      44.678   6.496  12.025  0.00  0.00    +0.000 A 
ATOM      9  N   UNL     1      43.573   6.787  11.286  0.00  0.00    +0.000 NA
ATOM     10  C   UNL     1      42.661   5.870  11.315  0.00  0.00    +0.000 A 
ATOM     11  N   UNL     1      42.748   4.701  12.026  0.00  0.00    +0.000 N 
ATOM     12  C   UNL     1      43.806   4.406  12.858  0.00  0.00    +0.000 A 
ATOM     13  O   UNL     1      43.757   3.442  13.620  0.00  0.00    +0.000 OA
ATOM     14  C   UNL     1      44.891   5.366  12.793  0.00  0.00    +0.000 A 
ATOM     15  H   UNL     1      41.974   4.054  12.056  0.00  0.00    +0.000 HD
ENDBRANCH   2   5
BRANCH   3  16
ATOM     16  C   UNL     1      47.377   3.512  16.493  0.00  0.00    +0.000 C 
BRANCH  16  17
ATOM     17  C   UNL     1      47.765   4.177  17.793  0.00  0.00    +0.000 A 
ATOM     18  C   UNL     1      49.076   4.107  18.252  0.00  0.00    +0.000 A 
ATOM     19  N   UNL     1      49.561   4.921  19.226  0.00  0.00    +0.000 NA
ATOM     20  C   UNL     1      48.679   5.809  19.762  0.00  0.00    +0.000 A 
ATOM     21  C   UNL     1      47.337   5.778  19.393  0.00  0.00    +0.000 A 
ATOM     22  N   UNL     1      46.856   4.989  18.395  0.00  0.00    +0.000 NA
BRANCH  20  23
ATOM     23  C   UNL     1      49.239   7.007  20.526  0.00  0.00    +0.000 C 
BRANCH  23  24
ATOM     24  N   UNL     1      50.173   7.907  19.820  0.00  0.00    +0.000 NA
ATOM     25  C   UNL     1      50.690   8.969  20.727  0.00  0.00    +0.000 C 
ATOM     26  C   UNL     1      49.793  10.216  20.954  0.00  0.00    +0.000 C 
ATOM     27  O   UNL     1      49.131  10.686  19.775  0.00  0.00    +0.000 OA
ATOM     28  C   UNL     1      48.489   9.609  19.083  0.00  0.00    +0.000 C 
ATOM     29  C   UNL     1      49.551   8.587  18.663  0.00  0.00    +0.000 C 
ENDBRANCH  23  24
ENDBRANCH  20  23
ENDBRANCH  16  17
ENDBRANCH   3  16
TORSDOF 5
ENDMDL
MODEL 9
REMARK VINA RESULT:    -6.472      3.351      4.616
REMARK INTER + INTRA:          -8.522
REMARK INTER:                  -8.280
REMARK INTRA:                  -0.242
REMARK UNBOUND:                -0.157
REMARK  Name = 
REMARK  5 active torsions:
REMARK  status: ('A' for Active; 'I' for Inactive)
REMARK    1  A    between atoms: C_2  and  C_18
REMARK    2  A    between atoms: N_3  and  C_4
REMARK    3  A    between atoms: C_4  and  C_5
REMARK    4  A    between atoms: C_8  and  C_9
REMARK    5  A    between atoms: C_9  and  N_10
REMARK                            x       y       z     vdW  Elec       q    Type
REMARK                         _______ _______ _______ _____ _____    ______ ____
ROOT
ATOM      1  O   UNL     1      49.796   8.630  15.065  0.00  0.00    +0.000 OA
ATOM      2  C   UNL     1      48.776   8.669  15.739  0.00  0.00    +0.000 C 
ATOM      3  N   UNL     1      47.545   8.974  15.199  0.00  0.00    +0.000 N 
ATOM      4  H   UNL     1      46.713   8.916  15.770  0.00  0.00    +0.000 HD
ENDROOT
BRANCH   2   5
ATOM      5  C   UNL     1      48.768   8.344  17.167  0.00  0.00    +0.000 A 
ATOM      6  C   UNL     1      48.803   9.300  18.177  0.00  0.00    +0.000 A 
ATOM      7  S   UNL     1      48.685   8.618  19.739  0.00  0.00    +0.000 S 
ATOM      8  C   UNL     1      48.576   7.039  19.118  0.00  0.00    +0.000 A 
ATOM      9  N   UNL     1      48.434   5.963  19.940  0.00  0.00    +0.000 NA
ATOM     10  C   UNL     1      48.347   4.831  19.320  0.00  0.00    +0.000 A 
ATOM     11  N   UNL     1      48.403   4.677  17.959  0.00  0.00    +0.000 N 
ATOM     12  C   UNL     1      48.637   5.725  17.095  0.00  0.00    +0.000 A 
ATOM     13  O   UNL     1      48.870   5.519  15.905  0.00  0.00    +0.000 OA
ATOM     14  C   UNL     1      48.658   7.025  17.737  0.00  0.00    +0.000 A 
ATOM     15  H   UNL     1      48.391   3.759  17.540  0.00  0.00    +0.000 HD
ENDBRANCH   2   5
BRANCH   3  16
ATOM     16  C   UNL     1      47.372   9.203  13.771  0.00  0.00    +0.000 C 
BRANCH  16  17
ATOM     17  C   UNL     1      46.520   8.129  13.139  0.00  0.00    +0.000 A 
ATOM     18  C   UNL     1      45.465   8.472  12.301  0.00  0.00    +0.000 A 
ATOM     19  N   UNL     1      44.864   7.583  11.468  0.00  0.00    +0.000 NA
ATOM     20  C   UNL     1      45.334   6.306  11.512  0.00  0.00    +0.000 A 
ATOM     21  C   UNL     1      46.296   5.941  12.450  0.00  0.00    +0.000 A 
ATOM     22  N   UNL     1      46.924   6.836  13.260  0.00  0.00    +0.000 NA
BRANCH  20  23
ATOM     23  C   UNL     1      45.016   5.382  10.338  0.00  0.00    +0.000 C 
BRANCH  23  24
ATOM     24  N   UNL     1      43.762   4.602  10.386  0.00  0.00    +0.000 NA
ATOM     25  C   UNL     1      42.865   5.088  11.470  0.00  0.00    +0.000 C 
ATOM     26  C   UNL     1      43.138   4.578  12.910  0.00  0.00    +0.000 C 
ATOM     27  O   UNL     1      43.495   3.194  12.985  0.00  0.00    +0.000 OA
ATOM     28  C   UNL     1      44.518   2.874  12.036  0.00  0.00    +0.000 C 
ATOM     29  C   UNL     1      43.992   3.160  10.625  0.00  0.00    +0.000 C 
ENDBRANCH  23  24
ENDBRANCH  20  23
ENDBRANCH  16  17
ENDBRANCH   3  16
TORSDOF 5
ENDMDL
