MODEL 1
REMARK VINA RESULT:    -7.827      0.000      0.000
REMARK INTER + INTRA:         -11.964
REMARK INTER:                 -11.030
REMARK INTRA:                  -0.933
REMARK UNBOUND:                -0.933
REMARK  Name = 
REMARK  7 active torsions:
REMARK  status: ('A' for Active; 'I' for Inactive)
REMARK    1  A    between atoms: C_2  and  C_19
REMARK    2  A    between atoms: N_3  and  C_4
REMARK    3  A    between atoms: C_4  and  C_5
REMARK    4  A    between atoms: C_8  and  C_9
REMARK    5  A    between atoms: C_9  and  N_10
REMARK    6  A    between atoms: N_10  and  C_11
REMARK    7  A    between atoms: C_11  and  C_12
REMARK                            x       y       z     vdW  Elec       q    Type
REMARK                         _______ _______ _______ _____ _____    ______ ____
ROOT
ATOM      1  C   UNL     1      46.831   8.037  13.190  0.00  0.00    +0.000 C 
ENDROOT
BRANCH   1   2
ATOM      2  C   UNL     1      46.079   7.041  12.346  0.00  0.00    +0.000 A 
ATOM      3  C   UNL     1      44.928   6.424  12.849  0.00  0.00    +0.000 A 
ATOM      4  C   UNL     1      44.219   5.505  12.074  0.00  0.00    +0.000 A 
ATOM      5  C   UNL     1      44.646   5.176  10.779  0.00  0.00    +0.000 A 
ATOM      6  C   UNL     1      45.819   5.766  10.290  0.00  0.00    +0.000 A 
ATOM      7  C   UNL     1      46.532   6.687  11.067  0.00  0.00    +0.000 A 
BRANCH   5   8
ATOM      8  C   UNL     1      43.863   4.185   9.947  0.00  0.00    +0.000 C 
BRANCH   8   9
ATOM      9  N   UNL     1      44.178   4.326   8.524  0.00  0.00    +0.000 NA
ATOM     10  H   UNL     1      44.858   5.079   8.412  0.00  0.00    +0.000 HD
BRANCH   9  11
ATOM     11  C   UNL     1      44.730   3.084   7.963  0.00  0.00    +0.000 C 
BRANCH  11  12
ATOM     12  C   UNL     1      46.282   3.130   7.950  0.00  0.00    +0.000 C 
ATOM     13  C   UNL     1      46.917   1.804   7.563  0.00  0.00    +0.000 C 
ATOM     14  C   UNL     1      46.930   1.842   6.048  0.00  0.00    +0.000 C 
ATOM     15  C   UNL     1      47.024   3.321   5.702  0.00  0.00    +0.000 C 
ATOM     16  N   UNL     1      46.814   4.067   6.946  0.00  0.00    +0.000 NA
ATOM     17  H   UNL     1      46.126   4.813   6.807  0.00  0.00    +0.000 HD
ENDBRANCH  11  12
ENDBRANCH   9  11
ENDBRANCH   8   9
ENDBRANCH   5   8
ENDBRANCH   1   2
BRANCH   1  20
ATOM     18  O   UNL     1      49.153   6.457  13.460  0.00  0.00    +0.000 OA
ATOM     19  C   UNL     1      48.494   6.728  14.459  0.00  0.00    +0.000 C 
ATOM     20  N   UNL     1      47.317   7.430  14.401  0.00  0.00    +0.000 N 
ATOM     21  H   UNL     1      46.915   7.787  15.261  0.00  0.00    +0.000 HD
BRANCH  19  22
ATOM     22  C   UNL     1      48.893   6.256  15.791  0.00  0.00    +0.000 A 
ATOM     23  C   UNL     1      49.838   6.964  16.520  0.00  0.00    +0.000 A 
ATOM     24  S   UNL     1      50.215   6.253  18.025  0.00  0.00    +0.000 S 
ATOM     25  C   UNL     1      49.087   5.002  17.777  0.00  0.00    +0.000 A 
ATOM     26  N   UNL     1      48.892   4.040  18.721  0.00  0.00    +0.000 NA
ATOM     27  C   UNL     1      47.973   3.182  18.423  0.00  0.00    +0.000 A 
ATOM     28  N   UNL     1      47.240   3.192  17.266  0.00  0.00    +0.000 N 
ATOM     29  C   UNL     1      47.456   4.096  16.254  0.00  0.00    +0.000 A 
ATOM     30  O   UNL     1      46.874   3.994  15.180  0.00  0.00    +0.000 OA
ATOM     31  C   UNL     1      48.449   5.113  16.555  0.00  0.00    +0.000 A 
ATOM     32  H   UNL     1      46.555   2.475  17.081  0.00  0.00    +0.000 HD
ENDBRANCH  19  22
ENDBRANCH   1  20
TORSDOF 7
ENDMDL
MODEL 2
REMARK VINA RESULT:    -7.430      4.213      9.262
REMARK INTER + INTRA:         -11.404
REMARK INTER:                 -10.603
REMARK INTRA:                  -0.801
REMARK UNBOUND:                -0.933
REMARK  Name = 
REMARK  7 active torsions:
REMARK  status: ('A' for Active; 'I' for Inactive)
REMARK    1  A    between atoms: C_2  and  C_19
REMARK    2  A    between atoms: N_3  and  C_4
REMARK    3  A    between atoms: C_4  and  C_5
REMARK    4  A    between atoms: C_8  and  C_9
REMARK    5  A    between atoms: C_9  and  N_10
REMARK    6  A    between atoms: N_10  and  C_11
REMARK    7  A    between atoms: C_11  and  C_12
REMARK                            x       y       z     vdW  Elec       q    Type
REMARK                         _______ _______ _______ _____ _____    ______ ____
ROOT
ATOM      1  C   UNL     1      47.094   3.442  16.857  0.00  0.00    +0.000 C 
ENDROOT
BRANCH   1   2
ATOM      2  C   UNL     1      48.570   3.442  17.161  0.00  0.00    +0.000 A 
ATOM      3  C   UNL     1      49.317   2.268  17.014  0.00  0.00    +0.000 A 
ATOM      4  C   UNL     1      50.685   2.259  17.286  0.00  0.00    +0.000 A 
ATOM      5  C   UNL     1      51.341   3.422  17.717  0.00  0.00    +0.000 A 
ATOM      6  C   UNL     1      50.585   4.587  17.899  0.00  0.00    +0.000 A 
ATOM      7  C   UNL     1      49.211   4.598  17.629  0.00  0.00    +0.000 A 
BRANCH   5   8
ATOM      8  C   UNL     1      52.826   3.400  18.000  0.00  0.00    +0.000 C 
BRANCH   8   9
ATOM      9  N   UNL     1      53.163   2.356  18.971  0.00  0.00    +0.000 NA
ATOM     10  H   UNL     1      52.326   1.806  19.163  0.00  0.00    +0.000 HD
BRANCH   9  11
ATOM     11  C   UNL     1      54.224   1.471  18.471  0.00  0.00    +0.000 C 
BRANCH  11  12
ATOM     12  C   UNL     1      53.618   0.274  17.689  0.00  0.00    +0.000 C 
ATOM     13  C   UNL     1      54.631  -0.447  16.816  0.00  0.00    +0.000 C 
ATOM     14  C   UNL     1      55.284  -1.433  17.764  0.00  0.00    +0.000 C 
ATOM     15  C   UNL     1      54.209  -1.743  18.795  0.00  0.00    +0.000 C 
ATOM     16  N   UNL     1      53.117  -0.789  18.577  0.00  0.00    +0.000 NA
ATOM     17  H   UNL     1      52.831  -0.360  19.462  0.00  0.00    +0.000 HD
ENDBRANCH  11  12
ENDBRANCH   9  11
ENDBRANCH   8   9
ENDBRANCH   5   8
ENDBRANCH   1   2
BRANCH   1  20
ATOM     18  O   UNL     1      47.268   3.075  14.066  0.00  0.00    +0.000 OA
ATOM     19  C   UNL     1      46.823   4.131  14.504  0.00  0.00    +0.000 C 
ATOM     20  N   UNL     1      46.772   4.413  15.845  0.00  0.00    +0.000 N 
ATOM     21  H   UNL     1      46.228   5.208  16.159  0.00  0.00    +0.000 HD
BRANCH  19  22
ATOM     22  C   UNL     1      46.370   5.202  13.607  0.00  0.00    +0.000 A 
ATOM     23  C   UNL     1      47.217   6.262  13.314  0.00  0.00    +0.000 A 
ATOM     24  S   UNL     1      46.516   7.435  12.292  0.00  0.00    +0.000 S 
ATOM     25  C   UNL     1      45.075   6.539  12.162  0.00  0.00    +0.000 A 
ATOM     26  N   UNL     1      44.042   6.985  11.394  0.00  0.00    +0.000 NA
ATOM     27  C   UNL     1      43.030   6.183  11.347  0.00  0.00    +0.000 A 
ATOM     28  N   UNL     1      42.953   4.983  12.004  0.00  0.00    +0.000 N 
ATOM     29  C   UNL     1      43.937   4.531  12.849  0.00  0.00    +0.000 A 
ATOM     30  O   UNL     1      43.776   3.519  13.523  0.00  0.00    +0.000 OA
ATOM     31  C   UNL     1      45.119   5.373  12.905  0.00  0.00    +0.000 A 
ATOM     32  H   UNL     1      42.121   4.415  11.948  0.00  0.00    +0.000 HD
ENDBRANCH  19  22
ENDBRANCH   1  20
TORSDOF 7
ENDMDL
MODEL 3
REMARK VINA RESULT:    -7.357      1.732      2.241
REMARK INTER + INTRA:         -11.301
REMARK INTER:                 -10.539
REMARK INTRA:                  -0.762
REMARK UNBOUND:                -0.933
REMARK  Name = 
REMARK  7 active torsions:
REMARK  status: ('A' for Active; 'I' for Inactive)
REMARK    1  A    between atoms: C_2  and  C_19
REMARK    2  A    between atoms: N_3  and  C_4
REMARK    3  A    between atoms: C_4  and  C_5
REMARK    4  A    between atoms: C_8  and  C_9
REMARK    5  A    between atoms: C_9  and  N_10
REMARK    6  A    between atoms: N_10  and  C_11
REMARK    7  A    between atoms: C_11  and  C_12
REMARK                            x       y       z     vdW  Elec       q    Type
REMARK                         _______ _______ _______ _____ _____    ______ ____
ROOT
ATOM      1  C   UNL     1      47.989   6.868  13.488  0.00  0.00    +0.000 C 
ENDROOT
BRANCH   1   2
ATOM      2  C   UNL     1      46.805   6.156  12.887  0.00  0.00    +0.000 A 
ATOM      3  C   UNL     1      46.396   6.455  11.583  0.00  0.00    +0.000 A 
ATOM      4  C   UNL     1      45.304   5.797  11.014  0.00  0.00    +0.000 A 
ATOM      5  C   UNL     1      44.592   4.829  11.736  0.00  0.00    +0.000 A 
ATOM      6  C   UNL     1      44.979   4.557  13.054  0.00  0.00    +0.000 A 
ATOM      7  C   UNL     1      46.073   5.217  13.628  0.00  0.00    +0.000 A 
BRANCH   5   8
ATOM      8  C   UNL     1      43.417   4.118  11.103  0.00  0.00    +0.000 C 
BRANCH   8   9
ATOM      9  N   UNL     1      43.732   2.713  10.834  0.00  0.00    +0.000 NA
ATOM     10  H   UNL     1      43.003   2.322  10.237  0.00  0.00    +0.000 HD
BRANCH   9  11
ATOM     11  C   UNL     1      45.036   2.565  10.172  0.00  0.00    +0.000 C 
BRANCH  11  12
ATOM     12  C   UNL     1      44.852   2.181   8.678  0.00  0.00    +0.000 C 
ATOM     13  C   UNL     1      44.874   3.379   7.743  0.00  0.00    +0.000 C 
ATOM     14  C   UNL     1      46.350   3.599   7.477  0.00  0.00    +0.000 C 
ATOM     15  C   UNL     1      46.973   2.217   7.611  0.00  0.00    +0.000 C 
ATOM     16  N   UNL     1      45.946   1.335   8.171  0.00  0.00    +0.000 NA
ATOM     17  H   UNL     1      46.323   0.794   8.955  0.00  0.00    +0.000 HD
ENDBRANCH  11  12
ENDBRANCH   9  11
ENDBRANCH   8   9
ENDBRANCH   5   8
ENDBRANCH   1   2
BRANCH   1  20
ATOM     18  O   UNL     1      50.193   6.646  15.235  0.00  0.00    +0.000 OA
ATOM     19  C   UNL     1      49.069   6.788  15.705  0.00  0.00    +0.000 C 
ATOM     20  N   UNL     1      47.941   6.832  14.926  0.00  0.00    +0.000 N 
ATOM     21  H   UNL     1      47.069   7.138  15.343  0.00  0.00    +0.000 HD
BRANCH  19  22
ATOM     22  C   UNL     1      48.849   6.854  17.156  0.00  0.00    +0.000 A 
ATOM     23  C   UNL     1      48.540   8.069  17.753  0.00  0.00    +0.000 A 
ATOM     24  S   UNL     1      48.359   7.972  19.447  0.00  0.00    +0.000 S 
ATOM     25  C   UNL     1      48.635   6.292  19.434  0.00  0.00    +0.000 A 
ATOM     26  N   UNL     1      48.598   5.570  20.588  0.00  0.00    +0.000 NA
ATOM     27  C   UNL     1      48.776   4.300  20.426  0.00  0.00    +0.000 A 
ATOM     28  N   UNL     1      48.997   3.690  19.220  0.00  0.00    +0.000 N 
ATOM     29  C   UNL     1      49.119   4.388  18.043  0.00  0.00    +0.000 A 
ATOM     30  O   UNL     1      49.449   3.823  17.005  0.00  0.00    +0.000 OA
ATOM     31  C   UNL     1      48.883   5.816  18.159  0.00  0.00    +0.000 A 
ATOM     32  H   UNL     1      49.157   2.695  19.165  0.00  0.00    +0.000 HD
ENDBRANCH  19  22
ENDBRANCH   1  20
TORSDOF 7
ENDMDL
MODEL 4
REMARK VINA RESULT:    -7.110      2.121      3.727
REMARK INTER + INTRA:         -10.952
REMARK INTER:                  -9.913
REMARK INTRA:                  -1.040
REMARK UNBOUND:                -0.933
REMARK  Name = 
REMARK  7 active torsions:
REMARK  status: ('A' for Active; 'I' for Inactive)
REMARK    1  A    between atoms: C_2  and  C_19
REMARK    2  A    between atoms: N_3  and  C_4
REMARK    3  A    between atoms: C_4  and  C_5
REMARK    4  A    between atoms: C_8  and  C_9
REMARK    5  A    between atoms: C_9  and  N_10
REMARK    6  A    between atoms: N_10  and  C_11
REMARK    7  A    between atoms: C_11  and  C_12
REMARK                            x       y       z     vdW  Elec       q    Type
REMARK                         _______ _______ _______ _____ _____    ______ ____
ROOT
ATOM      1  C   UNL     1      46.688   4.525  14.798  0.00  0.00    +0.000 C 
ENDROOT
BRANCH   1   2
ATOM      2  C   UNL     1      46.136   4.458  13.398  0.00  0.00    +0.000 A 
ATOM      3  C   UNL     1      46.007   5.626  12.639  0.00  0.00    +0.000 A 
ATOM      4  C   UNL     1      45.503   5.574  11.338  0.00  0.00    +0.000 A 
ATOM      5  C   UNL     1      45.111   4.355  10.767  0.00  0.00    +0.000 A 
ATOM      6  C   UNL     1      45.206   3.191  11.541  0.00  0.00    +0.000 A 
ATOM      7  C   UNL     1      45.710   3.241  12.847  0.00  0.00    +0.000 A 
BRANCH   5   8
ATOM      8  C   UNL     1      44.575   4.313   9.353  0.00  0.00    +0.000 C 
BRANCH   8   9
ATOM      9  N   UNL     1      45.406   5.112   8.450  0.00  0.00    +0.000 NA
ATOM     10  H   UNL     1      45.780   5.908   8.968  0.00  0.00    +0.000 HD
BRANCH   9  11
ATOM     11  C   UNL     1      46.516   4.326   7.894  0.00  0.00    +0.000 C 
BRANCH  11  12
ATOM     12  C   UNL     1      45.980   3.092   7.117  0.00  0.00    +0.000 C 
ATOM     13  C   UNL     1      46.609   2.929   5.744  0.00  0.00    +0.000 C 
ATOM     14  C   UNL     1      47.887   2.163   6.024  0.00  0.00    +0.000 C 
ATOM     15  C   UNL     1      47.577   1.341   7.266  0.00  0.00    +0.000 C 
ATOM     16  N   UNL     1      46.294   1.820   7.789  0.00  0.00    +0.000 NA
ATOM     17  H   UNL     1      46.358   1.995   8.796  0.00  0.00    +0.000 HD
ENDBRANCH  11  12
ENDBRANCH   9  11
ENDBRANCH   8   9
ENDBRANCH   5   8
ENDBRANCH   1   2
BRANCH   1  20
ATOM     18  O   UNL     1      48.845   4.863  16.585  0.00  0.00    +0.000 OA
ATOM     19  C   UNL     1      48.533   5.788  15.842  0.00  0.00    +0.000 C 
ATOM     20  N   UNL     1      47.455   5.727  14.997  0.00  0.00    +0.000 N 
ATOM     21  H   UNL     1      47.355   6.434  14.277  0.00  0.00    +0.000 HD
BRANCH  19  22
ATOM     22  C   UNL     1      49.264   7.062  15.856  0.00  0.00    +0.000 A 
ATOM     23  C   UNL     1      49.524   7.696  17.063  0.00  0.00    +0.000 A 
ATOM     24  S   UNL     1      50.344   9.182  16.893  0.00  0.00    +0.000 S 
ATOM     25  C   UNL     1      50.428   9.004  15.202  0.00  0.00    +0.000 A 
ATOM     26  N   UNL     1      51.040   9.944  14.430  0.00  0.00    +0.000 NA
ATOM     27  C   UNL     1      51.073   9.658  13.170  0.00  0.00    +0.000 A 
ATOM     28  N   UNL     1      50.542   8.525  12.612  0.00  0.00    +0.000 N 
ATOM     29  C   UNL     1      49.848   7.589  13.341  0.00  0.00    +0.000 A 
ATOM     30  O   UNL     1      49.273   6.658  12.789  0.00  0.00    +0.000 OA
ATOM     31  C   UNL     1      49.819   7.839  14.772  0.00  0.00    +0.000 A 
ATOM     32  H   UNL     1      50.576   8.374  11.615  0.00  0.00    +0.000 HD
ENDBRANCH  19  22
ENDBRANCH   1  20
TORSDOF 7
ENDMDL
MODEL 5
REMARK VINA RESULT:    -6.882      2.023      2.501
REMARK INTER + INTRA:         -10.632
REMARK INTER:                  -9.706
REMARK INTRA:                  -0.926
REMARK UNBOUND:                -0.933
REMARK  Name = 
REMARK  7 active torsions:
REMARK  status: ('A' for Active; 'I' for Inactive)
REMARK    1  A    between atoms: C_2  and  C_19
REMARK    2  A    between atoms: N_3  and  C_4
REMARK    3  A    between atoms: C_4  and  C_5
REMARK    4  A    between atoms: C_8  and  C_9
REMARK    5  A    between atoms: C_9  and  N_10
REMARK    6  A    between atoms: N_10  and  C_11
REMARK    7  A    between atoms: C_11  and  C_12
REMARK                            x       y       z     vdW  Elec       q    Type
REMARK                         _______ _______ _______ _____ _____    ______ ____
ROOT
ATOM      1  C   UNL     1      47.636   7.436  13.425  0.00  0.00    +0.000 C 
ENDROOT
BRANCH   1   2
ATOM      2  C   UNL     1      46.662   6.617  12.617  0.00  0.00    +0.000 A 
ATOM      3  C   UNL     1      45.926   7.217  11.590  0.00  0.00    +0.000 A 
ATOM      4  C   UNL     1      45.026   6.467  10.831  0.00  0.00    +0.000 A 
ATOM      5  C   UNL     1      44.837   5.101  11.083  0.00  0.00    +0.000 A 
ATOM      6  C   UNL     1      45.548   4.509  12.135  0.00  0.00    +0.000 A 
ATOM      7  C   UNL     1      46.449   5.261  12.899  0.00  0.00    +0.000 A 
BRANCH   5   8
ATOM      8  C   UNL     1      43.865   4.298  10.247  0.00  0.00    +0.000 C 
BRANCH   8   9
ATOM      9  N   UNL     1      44.189   4.397   8.822  0.00  0.00    +0.000 NA
ATOM     10  H   UNL     1      44.900   5.120   8.697  0.00  0.00    +0.000 HD
BRANCH   9  11
ATOM     11  C   UNL     1      44.691   3.123   8.288  0.00  0.00    +0.000 C 
BRANCH  11  12
ATOM     12  C   UNL     1      46.239   3.151   8.164  0.00  0.00    +0.000 C 
ATOM     13  C   UNL     1      46.821   1.855   7.623  0.00  0.00    +0.000 C 
ATOM     14  C   UNL     1      46.724   2.020   6.119  0.00  0.00    +0.000 C 
ATOM     15  C   UNL     1      46.818   3.521   5.891  0.00  0.00    +0.000 C 
ATOM     16  N   UNL     1      46.713   4.163   7.205  0.00  0.00    +0.000 NA
ATOM     17  H   UNL     1      46.031   4.926   7.180  0.00  0.00    +0.000 HD
ENDBRANCH  11  12
ENDBRANCH   9  11
ENDBRANCH   8   9
ENDBRANCH   5   8
ENDBRANCH   1   2
BRANCH   1  20
ATOM     18  O   UNL     1      50.003   6.866  14.849  0.00  0.00    +0.000 OA
ATOM     19  C   UNL     1      48.922   6.760  15.419  0.00  0.00    +0.000 C 
ATOM     20  N   UNL     1      47.725   6.950  14.777  0.00  0.00    +0.000 N 
ATOM     21  H   UNL     1      46.880   7.037  15.330  0.00  0.00    +0.000 HD
BRANCH  19  22
ATOM     22  C   UNL     1      48.836   6.353  16.828  0.00  0.00    +0.000 A 
ATOM     23  C   UNL     1      49.194   5.065  17.198  0.00  0.00    +0.000 A 
ATOM     24  S   UNL     1      48.993   4.751  18.863  0.00  0.00    +0.000 S 
ATOM     25  C   UNL     1      48.470   6.344  19.156  0.00  0.00    +0.000 A 
ATOM     26  N   UNL     1      48.149   6.753  20.414  0.00  0.00    +0.000 NA
ATOM     27  C   UNL     1      47.814   7.999  20.499  0.00  0.00    +0.000 A 
ATOM     28  N   UNL     1      47.764   8.867  19.441  0.00  0.00    +0.000 N 
ATOM     29  C   UNL     1      48.005   8.479  18.145  0.00  0.00    +0.000 A 
ATOM     30  O   UNL     1      47.820   9.251  17.209  0.00  0.00    +0.000 OA
ATOM     31  C   UNL     1      48.428   7.098  17.997  0.00  0.00    +0.000 A 
ATOM     32  H   UNL     1      47.467   9.823  19.569  0.00  0.00    +0.000 HD
ENDBRANCH  19  22
ENDBRANCH   1  20
TORSDOF 7
ENDMDL
MODEL 6
REMARK VINA RESULT:    -6.798      3.206      8.271
REMARK INTER + INTRA:         -10.513
REMARK INTER:                  -9.387
REMARK INTRA:                  -1.126
REMARK UNBOUND:                -0.933
REMARK  Name = 
REMARK  7 active torsions:
REMARK  status: ('A' for Active; 'I' for Inactive)
REMARK    1  A    between atoms: C_2  and  C_19
REMARK    2  A    between atoms: N_3  and  C_4
REMARK    3  A    between atoms: C_4  and  C_5
REMARK    4  A    between atoms: C_8  and  C_9
REMARK    5  A    between atoms: C_9  and  N_10
REMARK    6  A    between atoms: N_10  and  C_11
REMARK    7  A    between atoms: C_11  and  C_12
REMARK                            x       y       z     vdW  Elec       q    Type
REMARK                         _______ _______ _______ _____ _____    ______ ____
ROOT
ATOM      1  C   UNL     1      48.348   8.024  12.084  0.00  0.00    +0.000 C 
ENDROOT
BRANCH   1   2
ATOM      2  C   UNL     1      48.991   7.674  13.401  0.00  0.00    +0.000 A 
ATOM      3  C   UNL     1      50.303   8.078  13.670  0.00  0.00    +0.000 A 
ATOM      4  C   UNL     1      50.906   7.766  14.889  0.00  0.00    +0.000 A 
ATOM      5  C   UNL     1      50.215   7.036  15.867  0.00  0.00    +0.000 A 
ATOM      6  C   UNL     1      48.914   6.600  15.583  0.00  0.00    +0.000 A 
ATOM      7  C   UNL     1      48.308   6.911  14.359  0.00  0.00    +0.000 A 
BRANCH   5   8
ATOM      8  C   UNL     1      50.877   6.712  17.187  0.00  0.00    +0.000 C 
BRANCH   8   9
ATOM      9  N   UNL     1      49.881   6.470  18.233  0.00  0.00    +0.000 NA
ATOM     10  H   UNL     1      48.951   6.625  17.841  0.00  0.00    +0.000 HD
BRANCH   9  11
ATOM     11  C   UNL     1      49.966   5.100  18.759  0.00  0.00    +0.000 C 
BRANCH  11  12
ATOM     12  C   UNL     1      48.592   4.640  19.318  0.00  0.00    +0.000 C 
ATOM     13  C   UNL     1      47.411   5.210  18.550  0.00  0.00    +0.000 C 
ATOM     14  C   UNL     1      47.235   4.244  17.396  0.00  0.00    +0.000 C 
ATOM     15  C   UNL     1      47.740   2.912  17.929  0.00  0.00    +0.000 C 
ATOM     16  N   UNL     1      48.395   3.184  19.212  0.00  0.00    +0.000 NA
ATOM     17  H   UNL     1      49.314   2.732  19.251  0.00  0.00    +0.000 HD
ENDBRANCH  11  12
ENDBRANCH   9  11
ENDBRANCH   8   9
ENDBRANCH   5   8
ENDBRANCH   1   2
BRANCH   1  20
ATOM     18  O   UNL     1      45.543   7.863  11.832  0.00  0.00    +0.000 OA
ATOM     19  C   UNL     1      46.236   6.941  11.412  0.00  0.00    +0.000 C 
ATOM     20  N   UNL     1      47.598   6.912  11.561  0.00  0.00    +0.000 N 
ATOM     21  H   UNL     1      48.135   6.231  11.036  0.00  0.00    +0.000 HD
BRANCH  19  22
ATOM     22  C   UNL     1      45.636   5.762  10.773  0.00  0.00    +0.000 A 
ATOM     23  C   UNL     1      45.828   5.539   9.417  0.00  0.00    +0.000 A 
ATOM     24  S   UNL     1      45.027   4.150   8.833  0.00  0.00    +0.000 S 
ATOM     25  C   UNL     1      44.439   3.770  10.384  0.00  0.00    +0.000 A 
ATOM     26  N   UNL     1      43.679   2.659  10.589  0.00  0.00    +0.000 NA
ATOM     27  C   UNL     1      43.341   2.467  11.822  0.00  0.00    +0.000 A 
ATOM     28  N   UNL     1      43.687   3.287  12.863  0.00  0.00    +0.000 N 
ATOM     29  C   UNL     1      44.386   4.457  12.691  0.00  0.00    +0.000 A 
ATOM     30  O   UNL     1      44.561   5.232  13.625  0.00  0.00    +0.000 OA
ATOM     31  C   UNL     1      44.829   4.701  11.330  0.00  0.00    +0.000 A 
ATOM     32  H   UNL     1      43.367   3.096  13.801  0.00  0.00    +0.000 HD
ENDBRANCH  19  22
ENDBRANCH   1  20
TORSDOF 7
ENDMDL
MODEL 7
REMARK VINA RESULT:    -6.723      2.805      8.440
REMARK INTER + INTRA:         -10.408
REMARK INTER:                  -9.073
REMARK INTRA:                  -1.334
REMARK UNBOUND:                -0.933
REMARK  Name = 
REMARK  7 active torsions:
REMARK  status: ('A' for Active; 'I' for Inactive)
REMARK    1  A    between atoms: C_2  and  C_19
REMARK    2  A    between atoms: N_3  and  C_4
REMARK    3  A    between atoms: C_4  and  C_5
REMARK    4  A    between atoms: C_8  and  C_9
REMARK    5  A    between atoms: C_9  and  N_10
REMARK    6  A    between atoms: N_10  and  C_11
REMARK    7  A    between atoms: C_11  and  C_12
REMARK                            x       y       z     vdW  Elec       q    Type
REMARK                         _______ _______ _______ _____ _____    ______ ____
ROOT
ATOM      1  C   UNL     1      47.392   7.837  12.118  0.00  0.00    +0.000 C 
ENDROOT
BRANCH   1   2
ATOM      2  C   UNL     1      48.049   7.875  13.473  0.00  0.00    +0.000 A 
ATOM      3  C   UNL     1      47.678   8.851  14.405  0.00  0.00    +0.000 A 
ATOM      4  C   UNL     1      48.275   8.891  15.666  0.00  0.00    +0.000 A 
ATOM      5  C   UNL     1      49.261   7.961  16.024  0.00  0.00    +0.000 A 
ATOM      6  C   UNL     1      49.658   7.008  15.078  0.00  0.00    +0.000 A 
ATOM      7  C   UNL     1      49.062   6.967  13.812  0.00  0.00    +0.000 A 
BRANCH   5   8
ATOM      8  C   UNL     1      49.893   8.011  17.397  0.00  0.00    +0.000 C 
BRANCH   8   9
ATOM      9  N   UNL     1      49.101   7.256  18.370  0.00  0.00    +0.000 NA
ATOM     10  H   UNL     1      48.157   7.136  18.002  0.00  0.00    +0.000 HD
BRANCH   9  11
ATOM     11  C   UNL     1      49.689   5.936  18.643  0.00  0.00    +0.000 C 
BRANCH  11  12
ATOM     12  C   UNL     1      48.577   4.882  18.897  0.00  0.00    +0.000 C 
ATOM     13  C   UNL     1      47.472   4.913  17.855  0.00  0.00    +0.000 C 
ATOM     14  C   UNL     1      48.008   4.039  16.739  0.00  0.00    +0.000 C 
ATOM     15  C   UNL     1      48.920   3.041  17.438  0.00  0.00    +0.000 C 
ATOM     16  N   UNL     1      49.078   3.499  18.821  0.00  0.00    +0.000 NA
ATOM     17  H   UNL     1      50.067   3.500  19.089  0.00  0.00    +0.000 HD
ENDBRANCH  11  12
ENDBRANCH   9  11
ENDBRANCH   8   9
ENDBRANCH   5   8
ENDBRANCH   1   2
BRANCH   1  20
ATOM     18  O   UNL     1      44.609   7.545  11.762  0.00  0.00    +0.000 OA
ATOM     19  C   UNL     1      45.329   6.554  11.690  0.00  0.00    +0.000 C 
ATOM     20  N   UNL     1      46.680   6.602  11.921  0.00  0.00    +0.000 N 
ATOM     21  H   UNL     1      47.250   5.804  11.665  0.00  0.00    +0.000 HD
BRANCH  19  22
ATOM     22  C   UNL     1      44.774   5.222  11.413  0.00  0.00    +0.000 A 
ATOM     23  C   UNL     1      43.980   4.594  12.362  0.00  0.00    +0.000 A 
ATOM     24  S   UNL     1      43.456   3.039  11.894  0.00  0.00    +0.000 S 
ATOM     25  C   UNL     1      44.227   3.175  10.383  0.00  0.00    +0.000 A 
ATOM     26  N   UNL     1      44.150   2.170   9.467  0.00  0.00    +0.000 NA
ATOM     27  C   UNL     1      44.741   2.426   8.346  0.00  0.00    +0.000 A 
ATOM     28  N   UNL     1      45.407   3.589   8.063  0.00  0.00    +0.000 N 
ATOM     29  C   UNL     1      45.576   4.595   8.983  0.00  0.00    +0.000 A 
ATOM     30  O   UNL     1      46.291   5.562   8.738  0.00  0.00    +0.000 OA
ATOM     31  C   UNL     1      44.894   4.379  10.246  0.00  0.00    +0.000 A 
ATOM     32  H   UNL     1      45.873   3.715   7.176  0.00  0.00    +0.000 HD
ENDBRANCH  19  22
ENDBRANCH   1  20
TORSDOF 7
ENDMDL
MODEL 8
REMARK VINA RESULT:    -6.595      3.462      5.597
REMARK INTER + INTRA:         -10.228
REMARK INTER:                  -9.353
REMARK INTRA:                  -0.875
REMARK UNBOUND:                -0.933
REMARK  Name = 
REMARK  7 active torsions:
REMARK  status: ('A' for Active; 'I' for Inactive)
REMARK    1  A    between atoms: C_2  and  C_19
REMARK    2  A    between atoms: N_3  and  C_4
REMARK    3  A    between atoms: C_4  and  C_5
REMARK    4  A    between atoms: C_8  and  C_9
REMARK    5  A    between atoms: C_9  and  N_10
REMARK    6  A    between atoms: N_10  and  C_11
REMARK    7  A    between atoms: C_11  and  C_12
REMARK                            x       y       z     vdW  Elec       q    Type
REMARK                         _______ _______ _______ _____ _____    ______ ____
ROOT
ATOM      1  C   UNL     1      47.763   3.634  17.388  0.00  0.00    +0.000 C 
ENDROOT
BRANCH   1   2
ATOM      2  C   UNL     1      47.703   4.447  16.121  0.00  0.00    +0.000 A 
ATOM      3  C   UNL     1      47.061   3.934  14.989  0.00  0.00    +0.000 A 
ATOM      4  C   UNL     1      46.993   4.681  13.812  0.00  0.00    +0.000 A 
ATOM      5  C   UNL     1      47.571   5.957  13.736  0.00  0.00    +0.000 A 
ATOM      6  C   UNL     1      48.246   6.454  14.858  0.00  0.00    +0.000 A 
ATOM      7  C   UNL     1      48.316   5.705  16.039  0.00  0.00    +0.000 A 
BRANCH   5   8
ATOM      8  C   UNL     1      47.483   6.759  12.457  0.00  0.00    +0.000 C 
BRANCH   8   9
ATOM      9  N   UNL     1      46.109   7.197  12.203  0.00  0.00    +0.000 NA
ATOM     10  H   UNL     1      46.134   8.127  11.783  0.00  0.00    +0.000 HD
BRANCH   9  11
ATOM     11  C   UNL     1      45.401   6.275  11.303  0.00  0.00    +0.000 C 
BRANCH  11  12
ATOM     12  C   UNL     1      43.887   6.228  11.644  0.00  0.00    +0.000 C 
ATOM     13  C   UNL     1      43.129   5.166  10.865  0.00  0.00    +0.000 C 
ATOM     14  C   UNL     1      43.326   3.909  11.690  0.00  0.00    +0.000 C 
ATOM     15  C   UNL     1      43.489   4.409  13.118  0.00  0.00    +0.000 C 
ATOM     16  N   UNL     1      43.632   5.866  13.049  0.00  0.00    +0.000 NA
ATOM     17  H   UNL     1      44.431   6.177  13.610  0.00  0.00    +0.000 HD
ENDBRANCH  11  12
ENDBRANCH   9  11
ENDBRANCH   8   9
ENDBRANCH   5   8
ENDBRANCH   1   2
BRANCH   1  20
ATOM     18  O   UNL     1      49.374   1.696  16.122  0.00  0.00    +0.000 OA
ATOM     19  C   UNL     1      49.857   2.385  17.015  0.00  0.00    +0.000 C 
ATOM     20  N   UNL     1      49.120   3.298  17.726  0.00  0.00    +0.000 N 
ATOM     21  H   UNL     1      49.604   3.967  18.315  0.00  0.00    +0.000 HD
BRANCH  19  22
ATOM     22  C   UNL     1      51.257   2.229  17.431  0.00  0.00    +0.000 A 
ATOM     23  C   UNL     1      51.815   0.961  17.518  0.00  0.00    +0.000 A 
ATOM     24  S   UNL     1      53.434   0.961  18.056  0.00  0.00    +0.000 S 
ATOM     25  C   UNL     1      53.463   2.660  18.140  0.00  0.00    +0.000 A 
ATOM     26  N   UNL     1      54.591   3.321  18.521  0.00  0.00    +0.000 NA
ATOM     27  C   UNL     1      54.486   4.609  18.494  0.00  0.00    +0.000 A 
ATOM     28  N   UNL     1      53.357   5.294  18.130  0.00  0.00    +0.000 N 
ATOM     29  C   UNL     1      52.176   4.669  17.813  0.00  0.00    +0.000 A 
ATOM     30  O   UNL     1      51.150   5.314  17.622  0.00  0.00    +0.000 OA
ATOM     31  C   UNL     1      52.248   3.219  17.784  0.00  0.00    +0.000 A 
ATOM     32  H   UNL     1      53.332   6.302  18.157  0.00  0.00    +0.000 HD
ENDBRANCH  19  22
ENDBRANCH   1  20
TORSDOF 7
ENDMDL
MODEL 9
REMARK VINA RESULT:    -6.560      3.614      8.757
REMARK INTER + INTRA:         -10.177
REMARK INTER:                  -8.524
REMARK INTRA:                  -1.653
REMARK UNBOUND:                -0.933
REMARK  Name = 
REMARK  7 active torsions:
REMARK  status: ('A' for Active; 'I' for Inactive)
REMARK    1  A    between atoms: C_2  and  C_19
REMARK    2  A    between atoms: N_3  and  C_4
REMARK    3  A    between atoms: C_4  and  C_5
REMARK    4  A    between atoms: C_8  and  C_9
REMARK    5  A    between atoms: C_9  and  N_10
REMARK    6  A    between atoms: N_10  and  C_11
REMARK    7  A    between atoms: C_11  and  C_12
REMARK                            x       y       z     vdW  Elec       q    Type
REMARK                         _______ _______ _______ _____ _____    ______ ____
ROOT
ATOM      1  C   UNL     1      48.509   6.898  14.494  0.00  0.00    +0.000 C 
ENDROOT
BRANCH   1   2
ATOM      2  C   UNL     1      48.560   6.476  15.939  0.00  0.00    +0.000 A 
ATOM      3  C   UNL     1      48.207   5.171  16.301  0.00  0.00    +0.000 A 
ATOM      4  C   UNL     1      48.258   4.767  17.636  0.00  0.00    +0.000 A 
ATOM      5  C   UNL     1      48.655   5.659  18.643  0.00  0.00    +0.000 A 
ATOM      6  C   UNL     1      48.972   6.975  18.284  0.00  0.00    +0.000 A 
ATOM      7  C   UNL     1      48.921   7.383  16.945  0.00  0.00    +0.000 A 
BRANCH   5   8
ATOM      8  C   UNL     1      48.713   5.205  20.084  0.00  0.00    +0.000 C 
BRANCH   8   9
ATOM      9  N   UNL     1      49.840   4.296  20.306  0.00  0.00    +0.000 NA
ATOM     10  H   UNL     1      49.912   3.663  19.508  0.00  0.00    +0.000 HD
BRANCH   9  11
ATOM     11  C   UNL     1      51.105   5.026  20.466  0.00  0.00    +0.000 C 
BRANCH  11  12
ATOM     12  C   UNL     1      52.250   4.318  19.690  0.00  0.00    +0.000 C 
ATOM     13  C   UNL     1      51.829   3.831  18.314  0.00  0.00    +0.000 C 
ATOM     14  C   UNL     1      52.020   5.047  17.430  0.00  0.00    +0.000 C 
ATOM     15  C   UNL     1      53.143   5.831  18.093  0.00  0.00    +0.000 C 
ATOM     16  N   UNL     1      53.380   5.216  19.402  0.00  0.00    +0.000 NA
ATOM     17  H   UNL     1      53.417   5.932  20.135  0.00  0.00    +0.000 HD
ENDBRANCH  11  12
ENDBRANCH   9  11
ENDBRANCH   8   9
ENDBRANCH   5   8
ENDBRANCH   1   2
BRANCH   1  20
ATOM     18  O   UNL     1      47.849   7.038  11.755  0.00  0.00    +0.000 OA
ATOM     19  C   UNL     1      47.018   6.608  12.549  0.00  0.00    +0.000 C 
ATOM     20  N   UNL     1      47.238   6.574  13.902  0.00  0.00    +0.000 N 
ATOM     21  H   UNL     1      46.605   6.040  14.489  0.00  0.00    +0.000 HD
BRANCH  19  22
ATOM     22  C   UNL     1      45.694   6.155  12.103  0.00  0.00    +0.000 A 
ATOM     23  C   UNL     1      44.834   7.047  11.478  0.00  0.00    +0.000 A 
ATOM     24  S   UNL     1      43.325   6.366  11.065  0.00  0.00    +0.000 S 
ATOM     25  C   UNL     1      43.790   4.840  11.658  0.00  0.00    +0.000 A 
ATOM     26  N   UNL     1      42.944   3.776  11.586  0.00  0.00    +0.000 NA
ATOM     27  C   UNL     1      43.444   2.669  12.029  0.00  0.00    +0.000 A 
ATOM     28  N   UNL     1      44.705   2.533  12.544  0.00  0.00    +0.000 N 
ATOM     29  C   UNL     1      45.563   3.594  12.707  0.00  0.00    +0.000 A 
ATOM     30  O   UNL     1      46.632   3.458  13.293  0.00  0.00    +0.000 OA
ATOM     31  C   UNL     1      45.069   4.856  12.184  0.00  0.00    +0.000 A 
ATOM     32  H   UNL     1      45.026   1.645  12.900  0.00  0.00    +0.000 HD
ENDBRANCH  19  22
ENDBRANCH   1  20
TORSDOF 7
ENDMDL
