MODEL 1
REMARK VINA RESULT:    -7.723      0.000      0.000
REMARK INTER + INTRA:         -10.825
REMARK INTER:                 -10.432
REMARK INTRA:                  -0.393
REMARK UNBOUND:                -0.393
REMARK  Name = 
REMARK  7 active torsions:
REMARK  status: ('A' for Active; 'I' for Inactive)
REMARK    1  A    between atoms: N_1  and  C_2
REMARK    2  A    between atoms: C_2  and  C_3
REMARK    3  A    between atoms: C_6  and  N_7
REMARK    4  A    between atoms: N_7  and  C_8
REMARK    5  A    between atoms: C_8  and  C_9
REMARK    6  A    between atoms: C_11  and  C_12
REMARK    7  A    between atoms: C_12  and  O_13
REMARK                            x       y       z     vdW  Elec       q    Type
REMARK                         _______ _______ _______ _____ _____    ______ ____
ROOT
ATOM      1  N   UNL     1      43.800   4.668   9.360  0.00  0.00    +0.000 N 
ATOM      2  H   UNL     1      42.918   4.588   8.854  0.00  0.00    +0.000 HD
ENDROOT
BRANCH   1   6
ATOM      3  C   UNL     1      46.663   2.099   7.620  0.00  0.00    +0.000 A 
ATOM      4  C   UNL     1      46.719   3.475   7.364  0.00  0.00    +0.000 A 
ATOM      5  C   UNL     1      45.798   4.352   7.950  0.00  0.00    +0.000 A 
ATOM      6  C   UNL     1      44.786   3.867   8.780  0.00  0.00    +0.000 A 
ATOM      7  C   UNL     1      44.791   2.509   9.109  0.00  0.00    +0.000 A 
ATOM      8  C   UNL     1      45.703   1.627   8.522  0.00  0.00    +0.000 A 
BRANCH   3   9
ATOM      9  C   UNL     1      47.576   1.140   6.901  0.00  0.00    +0.000 C 
BRANCH   9  10
ATOM     10  N   UNL     1      48.332   1.794   5.840  0.00  0.00    +0.000 NA
ATOM     11  H   UNL     1      48.449   2.776   6.077  0.00  0.00    +0.000 HD
ATOM     12  H   UNL     1      47.782   1.766   4.984  0.00  0.00    +0.000 HD
ENDBRANCH   9  10
ENDBRANCH   3   9
ENDBRANCH   1   6
BRANCH   1  13
ATOM     13  C   UNL     1      43.584   4.562  10.806  0.00  0.00    +0.000 C 
BRANCH  13  14
ATOM     14  C   UNL     1      44.790   5.121  11.539  0.00  0.00    +0.000 A 
ATOM     15  C   UNL     1      45.232   4.497  12.710  0.00  0.00    +0.000 A 
ATOM     16  C   UNL     1      46.339   5.010  13.388  0.00  0.00    +0.000 A 
ATOM     17  C   UNL     1      46.964   6.143  12.867  0.00  0.00    +0.000 A 
ATOM     18  C   UNL     1      46.461   6.707  11.704  0.00  0.00    +0.000 A 
ATOM     19  N   UNL     1      45.393   6.223  11.030  0.00  0.00    +0.000 NA
BRANCH  16  20
ATOM     20  C   UNL     1      46.834   4.370  14.653  0.00  0.00    +0.000 C 
BRANCH  20  21
ATOM     21  O   UNL     1      47.466   3.130  14.363  0.00  0.00    +0.000 OA
ATOM     22  H   UNL     1      48.067   3.291  13.615  0.00  0.00    +0.000 HD
ENDBRANCH  20  21
ENDBRANCH  16  20
ENDBRANCH  13  14
ENDBRANCH   1  13
TORSDOF 7
ENDMDL
MODEL 2
REMARK VINA RESULT:    -7.449      1.804      2.423
REMARK INTER + INTRA:         -10.454
REMARK INTER:                  -9.918
REMARK INTRA:                  -0.536
REMARK UNBOUND:                -0.393
REMARK  Name = 
REMARK  7 active torsions:
REMARK  status: ('A' for Active; 'I' for Inactive)
REMARK    1  A    between atoms: N_1  and  C_2
REMARK    2  A    between atoms: C_2  and  C_3
REMARK    3  A    between atoms: C_6  and  N_7
REMARK    4  A    between atoms: N_7  and  C_8
REMARK    5  A    between atoms: C_8  and  C_9
REMARK    6  A    between atoms: C_11  and  C_12
REMARK    7  A    between atoms: C_12  and  O_13
REMARK                            x       y       z     vdW  Elec       q    Type
REMARK                         _______ _______ _______ _____ _____    ______ ____
ROOT
ATOM      1  N   UNL     1      43.706   4.224  10.029  0.00  0.00    +0.000 N 
ATOM      2  H   UNL     1      42.793   4.268   9.580  0.00  0.00    +0.000 HD
ENDROOT
BRANCH   1   6
ATOM      3  C   UNL     1      46.581   2.266   7.636  0.00  0.00    +0.000 A 
ATOM      4  C   UNL     1      45.744   1.513   8.470  0.00  0.00    +0.000 A 
ATOM      5  C   UNL     1      44.765   2.136   9.253  0.00  0.00    +0.000 A 
ATOM      6  C   UNL     1      44.621   3.525   9.240  0.00  0.00    +0.000 A 
ATOM      7  C   UNL     1      45.392   4.262   8.337  0.00  0.00    +0.000 A 
ATOM      8  C   UNL     1      46.376   3.648   7.557  0.00  0.00    +0.000 A 
BRANCH   3   9
ATOM      9  C   UNL     1      47.711   1.615   6.882  0.00  0.00    +0.000 C 
BRANCH   9  10
ATOM     10  N   UNL     1      48.630   2.594   6.317  0.00  0.00    +0.000 NA
ATOM     11  H   UNL     1      49.338   2.821   7.012  0.00  0.00    +0.000 HD
ATOM     12  H   UNL     1      48.117   3.455   6.136  0.00  0.00    +0.000 HD
ENDBRANCH   9  10
ENDBRANCH   3   9
ENDBRANCH   1   6
BRANCH   1  13
ATOM     13  C   UNL     1      43.578   3.845  11.439  0.00  0.00    +0.000 C 
BRANCH  13  14
ATOM     14  C   UNL     1      44.739   4.424  12.227  0.00  0.00    +0.000 A 
ATOM     15  C   UNL     1      44.933   5.809  12.244  0.00  0.00    +0.000 A 
ATOM     16  C   UNL     1      46.001   6.345  12.965  0.00  0.00    +0.000 A 
ATOM     17  C   UNL     1      46.846   5.466  13.643  0.00  0.00    +0.000 A 
ATOM     18  C   UNL     1      46.590   4.105  13.570  0.00  0.00    +0.000 A 
ATOM     19  N   UNL     1      45.559   3.566  12.881  0.00  0.00    +0.000 NA
BRANCH  16  20
ATOM     20  C   UNL     1      46.244   7.827  12.999  0.00  0.00    +0.000 C 
BRANCH  20  21
ATOM     21  O   UNL     1      45.015   8.530  12.882  0.00  0.00    +0.000 OA
ATOM     22  H   UNL     1      45.044   9.255  13.531  0.00  0.00    +0.000 HD
ENDBRANCH  20  21
ENDBRANCH  16  20
ENDBRANCH  13  14
ENDBRANCH   1  13
TORSDOF 7
ENDMDL
MODEL 3
REMARK VINA RESULT:    -6.919      2.641      6.230
REMARK INTER + INTRA:          -9.738
REMARK INTER:                  -9.316
REMARK INTRA:                  -0.422
REMARK UNBOUND:                -0.393
REMARK  Name = 
REMARK  7 active torsions:
REMARK  status: ('A' for Active; 'I' for Inactive)
REMARK    1  A    between atoms: N_1  and  C_2
REMARK    2  A    between atoms: C_2  and  C_3
REMARK    3  A    between atoms: C_6  and  N_7
REMARK    4  A    between atoms: N_7  and  C_8
REMARK    5  A    between atoms: C_8  and  C_9
REMARK    6  A    between atoms: C_11  and  C_12
REMARK    7  A    between atoms: C_12  and  O_13
REMARK                            x       y       z     vdW  Elec       q    Type
REMARK                         _______ _______ _______ _____ _____    ______ ____
ROOT
ATOM      1  N   UNL     1      44.153   4.234  10.517  0.00  0.00    +0.000 N 
ATOM      2  H   UNL     1      43.225   4.499  10.844  0.00  0.00    +0.000 HD
ENDROOT
BRANCH   1   6
ATOM      3  C   UNL     1      47.125   6.077  12.881  0.00  0.00    +0.000 A 
ATOM      4  C   UNL     1      46.519   4.895  13.326  0.00  0.00    +0.000 A 
ATOM      5  C   UNL     1      45.550   4.250  12.549  0.00  0.00    +0.000 A 
ATOM      6  C   UNL     1      45.148   4.787  11.325  0.00  0.00    +0.000 A 
ATOM      7  C   UNL     1      45.822   5.912  10.841  0.00  0.00    +0.000 A 
ATOM      8  C   UNL     1      46.785   6.566  11.614  0.00  0.00    +0.000 A 
BRANCH   3   9
ATOM      9  C   UNL     1      48.080   6.837  13.764  0.00  0.00    +0.000 C 
BRANCH   9  10
ATOM     10  N   UNL     1      49.450   6.775  13.272  0.00  0.00    +0.000 NA
ATOM     11  H   UNL     1      49.480   7.163  12.332  0.00  0.00    +0.000 HD
ATOM     12  H   UNL     1      49.723   5.797  13.190  0.00  0.00    +0.000 HD
ENDBRANCH   9  10
ENDBRANCH   3   9
ENDBRANCH   1   6
BRANCH   1  13
ATOM     13  C   UNL     1      44.265   4.406   9.065  0.00  0.00    +0.000 C 
BRANCH  13  14
ATOM     14  C   UNL     1      45.129   3.299   8.490  0.00  0.00    +0.000 A 
ATOM     15  C   UNL     1      45.969   3.577   7.406  0.00  0.00    +0.000 A 
ATOM     16  C   UNL     1      46.763   2.560   6.872  0.00  0.00    +0.000 A 
ATOM     17  C   UNL     1      46.681   1.290   7.445  0.00  0.00    +0.000 A 
ATOM     18  C   UNL     1      45.819   1.095   8.514  0.00  0.00    +0.000 A 
ATOM     19  N   UNL     1      45.045   2.067   9.048  0.00  0.00    +0.000 NA
BRANCH  16  20
ATOM     20  C   UNL     1      47.669   2.821   5.704  0.00  0.00    +0.000 C 
BRANCH  20  21
ATOM     21  O   UNL     1      48.577   1.742   5.534  0.00  0.00    +0.000 OA
ATOM     22  H   UNL     1      48.903   1.792   4.618  0.00  0.00    +0.000 HD
ENDBRANCH  20  21
ENDBRANCH  16  20
ENDBRANCH  13  14
ENDBRANCH   1  13
TORSDOF 7
ENDMDL
MODEL 4
REMARK VINA RESULT:    -6.551      2.389      6.155
REMARK INTER + INTRA:          -9.241
REMARK INTER:                  -8.982
REMARK INTRA:                  -0.260
REMARK UNBOUND:                -0.393
REMARK  Name = 
REMARK  7 active torsions:
REMARK  status: ('A' for Active; 'I' for Inactive)
REMARK    1  A    between atoms: N_1  and  C_2
REMARK    2  A    between atoms: C_2  and  C_3
REMARK    3  A    between atoms: C_6  and  N_7
REMARK    4  A    between atoms: N_7  and  C_8
REMARK    5  A    between atoms: C_8  and  C_9
REMARK    6  A    between atoms: C_11  and  C_12
REMARK    7  A    between atoms: C_12  and  O_13
REMARK                            x       y       z     vdW  Elec       q    Type
REMARK                         _______ _______ _______ _____ _____    ______ ____
ROOT
ATOM      1  N   UNL     1      44.853   3.259  11.667  0.00  0.00    +0.000 N 
ATOM      2  H   UNL     1      44.408   2.779  12.448  0.00  0.00    +0.000 HD
ENDROOT
BRANCH   1   6
ATOM      3  C   UNL     1      46.004   7.194  12.675  0.00  0.00    +0.000 A 
ATOM      4  C   UNL     1      44.767   6.970  12.057  0.00  0.00    +0.000 A 
ATOM      5  C   UNL     1      44.350   5.673  11.737  0.00  0.00    +0.000 A 
ATOM      6  C   UNL     1      45.173   4.576  12.002  0.00  0.00    +0.000 A 
ATOM      7  C   UNL     1      46.362   4.794  12.704  0.00  0.00    +0.000 A 
ATOM      8  C   UNL     1      46.788   6.087  13.021  0.00  0.00    +0.000 A 
BRANCH   3   9
ATOM      9  C   UNL     1      46.508   8.594  12.914  0.00  0.00    +0.000 C 
BRANCH   9  10
ATOM     10  N   UNL     1      46.800   8.839  14.321  0.00  0.00    +0.000 NA
ATOM     11  H   UNL     1      47.108   7.969  14.749  0.00  0.00    +0.000 HD
ATOM     12  H   UNL     1      45.936   9.103  14.791  0.00  0.00    +0.000 HD
ENDBRANCH   9  10
ENDBRANCH   3   9
ENDBRANCH   1   6
BRANCH   1  13
ATOM     13  C   UNL     1      44.119   3.022  10.421  0.00  0.00    +0.000 C 
BRANCH  13  14
ATOM     14  C   UNL     1      45.085   3.055   9.250  0.00  0.00    +0.000 A 
ATOM     15  C   UNL     1      45.625   1.857   8.772  0.00  0.00    +0.000 A 
ATOM     16  C   UNL     1      46.516   1.885   7.697  0.00  0.00    +0.000 A 
ATOM     17  C   UNL     1      46.839   3.123   7.141  0.00  0.00    +0.000 A 
ATOM     18  C   UNL     1      46.265   4.265   7.678  0.00  0.00    +0.000 A 
ATOM     19  N   UNL     1      45.398   4.260   8.715  0.00  0.00    +0.000 NA
BRANCH  16  20
ATOM     20  C   UNL     1      47.121   0.618   7.164  0.00  0.00    +0.000 C 
BRANCH  20  21
ATOM     21  O   UNL     1      46.707  -0.493   7.945  0.00  0.00    +0.000 OA
ATOM     22  H   UNL     1      46.864  -1.289   7.407  0.00  0.00    +0.000 HD
ENDBRANCH  20  21
ENDBRANCH  16  20
ENDBRANCH  13  14
ENDBRANCH   1  13
TORSDOF 7
ENDMDL
MODEL 5
REMARK VINA RESULT:    -5.756      3.969      7.995
REMARK INTER + INTRA:          -8.168
REMARK INTER:                  -7.904
REMARK INTRA:                  -0.264
REMARK UNBOUND:                -0.393
REMARK  Name = 
REMARK  7 active torsions:
REMARK  status: ('A' for Active; 'I' for Inactive)
REMARK    1  A    between atoms: N_1  and  C_2
REMARK    2  A    between atoms: C_2  and  C_3
REMARK    3  A    between atoms: C_6  and  N_7
REMARK    4  A    between atoms: N_7  and  C_8
REMARK    5  A    between atoms: C_8  and  C_9
REMARK    6  A    between atoms: C_11  and  C_12
REMARK    7  A    between atoms: C_12  and  O_13
REMARK                            x       y       z     vdW  Elec       q    Type
REMARK                         _______ _______ _______ _____ _____    ______ ____
ROOT
ATOM      1  N   UNL     1      46.934   3.760  14.620  0.00  0.00    +0.000 N 
ATOM      2  H   UNL     1      46.252   3.005  14.672  0.00  0.00    +0.000 HD
ENDROOT
BRANCH   1   6
ATOM      3  C   UNL     1      48.560   4.467  18.451  0.00  0.00    +0.000 A 
ATOM      4  C   UNL     1      48.461   5.521  17.535  0.00  0.00    +0.000 A 
ATOM      5  C   UNL     1      47.902   5.320  16.268  0.00  0.00    +0.000 A 
ATOM      6  C   UNL     1      47.455   4.054  15.881  0.00  0.00    +0.000 A 
ATOM      7  C   UNL     1      47.467   3.029  16.831  0.00  0.00    +0.000 A 
ATOM      8  C   UNL     1      48.031   3.221  18.095  0.00  0.00    +0.000 A 
BRANCH   3   9
ATOM      9  C   UNL     1      49.266   4.650  19.769  0.00  0.00    +0.000 C 
BRANCH   9  10
ATOM     10  N   UNL     1      48.561   3.998  20.865  0.00  0.00    +0.000 NA
ATOM     11  H   UNL     1      47.811   3.428  20.481  0.00  0.00    +0.000 HD
ATOM     12  H   UNL     1      48.118   4.713  21.438  0.00  0.00    +0.000 HD
ENDBRANCH   9  10
ENDBRANCH   3   9
ENDBRANCH   1   6
BRANCH   1  13
ATOM     13  C   UNL     1      46.428   4.868  13.805  0.00  0.00    +0.000 C 
BRANCH  13  14
ATOM     14  C   UNL     1      45.419   4.340  12.802  0.00  0.00    +0.000 A 
ATOM     15  C   UNL     1      45.603   4.600  11.441  0.00  0.00    +0.000 A 
ATOM     16  C   UNL     1      44.674   4.117  10.516  0.00  0.00    +0.000 A 
ATOM     17  C   UNL     1      43.584   3.391  10.995  0.00  0.00    +0.000 A 
ATOM     18  C   UNL     1      43.470   3.182  12.362  0.00  0.00    +0.000 A 
ATOM     19  N   UNL     1      44.359   3.637  13.273  0.00  0.00    +0.000 NA
BRANCH  16  20
ATOM     20  C   UNL     1      44.837   4.385   9.048  0.00  0.00    +0.000 C 
BRANCH  20  21
ATOM     21  O   UNL     1      45.739   5.464   8.840  0.00  0.00    +0.000 OA
ATOM     22  H   UNL     1      46.382   5.166   8.173  0.00  0.00    +0.000 HD
ENDBRANCH  20  21
ENDBRANCH  16  20
ENDBRANCH  13  14
ENDBRANCH   1  13
TORSDOF 7
ENDMDL
MODEL 6
REMARK VINA RESULT:    -5.667      3.920      8.026
REMARK INTER + INTRA:          -8.047
REMARK INTER:                  -7.728
REMARK INTRA:                  -0.320
REMARK UNBOUND:                -0.393
REMARK  Name = 
REMARK  7 active torsions:
REMARK  status: ('A' for Active; 'I' for Inactive)
REMARK    1  A    between atoms: N_1  and  C_2
REMARK    2  A    between atoms: C_2  and  C_3
REMARK    3  A    between atoms: C_6  and  N_7
REMARK    4  A    between atoms: N_7  and  C_8
REMARK    5  A    between atoms: C_8  and  C_9
REMARK    6  A    between atoms: C_11  and  C_12
REMARK    7  A    between atoms: C_12  and  O_13
REMARK                            x       y       z     vdW  Elec       q    Type
REMARK                         _______ _______ _______ _____ _____    ______ ____
ROOT
ATOM      1  N   UNL     1      46.911   4.045  14.945  0.00  0.00    +0.000 N 
ATOM      2  H   UNL     1      45.921   3.830  15.059  0.00  0.00    +0.000 HD
ENDROOT
BRANCH   1   6
ATOM      3  C   UNL     1      48.807   4.471  18.693  0.00  0.00    +0.000 A 
ATOM      4  C   UNL     1      48.337   3.214  18.293  0.00  0.00    +0.000 A 
ATOM      5  C   UNL     1      47.728   3.040  17.044  0.00  0.00    +0.000 A 
ATOM      6  C   UNL     1      47.553   4.125  16.182  0.00  0.00    +0.000 A 
ATOM      7  C   UNL     1      48.109   5.355  16.544  0.00  0.00    +0.000 A 
ATOM      8  C   UNL     1      48.711   5.538  17.792  0.00  0.00    +0.000 A 
BRANCH   3   9
ATOM      9  C   UNL     1      49.355   4.686  20.079  0.00  0.00    +0.000 C 
BRANCH   9  10
ATOM     10  N   UNL     1      48.503   4.096  21.104  0.00  0.00    +0.000 NA
ATOM     11  H   UNL     1      48.283   4.805  21.798  0.00  0.00    +0.000 HD
ATOM     12  H   UNL     1      49.030   3.371  21.587  0.00  0.00    +0.000 HD
ENDBRANCH   9  10
ENDBRANCH   3   9
ENDBRANCH   1   6
BRANCH   1  13
ATOM     13  C   UNL     1      47.102   5.145  13.995  0.00  0.00    +0.000 C 
BRANCH  13  14
ATOM     14  C   UNL     1      45.896   5.235  13.077  0.00  0.00    +0.000 A 
ATOM     15  C   UNL     1      45.220   4.066  12.714  0.00  0.00    +0.000 A 
ATOM     16  C   UNL     1      44.113   4.146  11.868  0.00  0.00    +0.000 A 
ATOM     17  C   UNL     1      43.724   5.404  11.408  0.00  0.00    +0.000 A 
ATOM     18  C   UNL     1      44.452   6.514  11.808  0.00  0.00    +0.000 A 
ATOM     19  N   UNL     1      45.524   6.460  12.630  0.00  0.00    +0.000 NA
BRANCH  16  20
ATOM     20  C   UNL     1      43.369   2.909  11.451  0.00  0.00    +0.000 C 
BRANCH  20  21
ATOM     21  O   UNL     1      43.412   1.936  12.486  0.00  0.00    +0.000 OA
ATOM     22  H   UNL     1      44.297   1.532  12.454  0.00  0.00    +0.000 HD
ENDBRANCH  20  21
ENDBRANCH  16  20
ENDBRANCH  13  14
ENDBRANCH   1  13
TORSDOF 7
ENDMDL
MODEL 7
REMARK VINA RESULT:    -5.595      3.405      5.377
REMARK INTER + INTRA:          -7.950
REMARK INTER:                  -7.666
REMARK INTRA:                  -0.283
REMARK UNBOUND:                -0.393
REMARK  Name = 
REMARK  7 active torsions:
REMARK  status: ('A' for Active; 'I' for Inactive)
REMARK    1  A    between atoms: N_1  and  C_2
REMARK    2  A    between atoms: C_2  and  C_3
REMARK    3  A    between atoms: C_6  and  N_7
REMARK    4  A    between atoms: N_7  and  C_8
REMARK    5  A    between atoms: C_8  and  C_9
REMARK    6  A    between atoms: C_11  and  C_12
REMARK    7  A    between atoms: C_12  and  O_13
REMARK                            x       y       z     vdW  Elec       q    Type
REMARK                         _______ _______ _______ _____ _____    ______ ____
ROOT
ATOM      1  N   UNL     1      46.763   5.494  14.450  0.00  0.00    +0.000 N 
ATOM      2  H   UNL     1      46.201   6.189  14.939  0.00  0.00    +0.000 HD
ENDROOT
BRANCH   1   6
ATOM      3  C   UNL     1      44.983   4.481  10.758  0.00  0.00    +0.000 A 
ATOM      4  C   UNL     1      45.694   5.682  10.879  0.00  0.00    +0.000 A 
ATOM      5  C   UNL     1      46.316   6.029  12.084  0.00  0.00    +0.000 A 
ATOM      6  C   UNL     1      46.216   5.196  13.200  0.00  0.00    +0.000 A 
ATOM      7  C   UNL     1      45.589   3.956  13.048  0.00  0.00    +0.000 A 
ATOM      8  C   UNL     1      44.959   3.606  11.850  0.00  0.00    +0.000 A 
BRANCH   3   9
ATOM      9  C   UNL     1      44.215   4.160   9.503  0.00  0.00    +0.000 C 
BRANCH   9  10
ATOM     10  N   UNL     1      44.962   4.503   8.299  0.00  0.00    +0.000 NA
ATOM     11  H   UNL     1      45.125   3.655   7.761  0.00  0.00    +0.000 HD
ATOM     12  H   UNL     1      45.877   4.853   8.574  0.00  0.00    +0.000 HD
ENDBRANCH   9  10
ENDBRANCH   3   9
ENDBRANCH   1   6
BRANCH   1  13
ATOM     13  C   UNL     1      47.107   4.380  15.338  0.00  0.00    +0.000 C 
BRANCH  13  14
ATOM     14  C   UNL     1      48.099   4.855  16.384  0.00  0.00    +0.000 A 
ATOM     15  C   UNL     1      47.937   4.456  17.714  0.00  0.00    +0.000 A 
ATOM     16  C   UNL     1      48.847   4.894  18.679  0.00  0.00    +0.000 A 
ATOM     17  C   UNL     1      49.890   5.726  18.273  0.00  0.00    +0.000 A 
ATOM     18  C   UNL     1      49.976   6.082  16.935  0.00  0.00    +0.000 A 
ATOM     19  N   UNL     1      49.110   5.666  15.984  0.00  0.00    +0.000 NA
BRANCH  16  20
ATOM     20  C   UNL     1      48.698   4.492  20.119  0.00  0.00    +0.000 C 
BRANCH  20  21
ATOM     21  O   UNL     1      48.288   3.134  20.211  0.00  0.00    +0.000 OA
ATOM     22  H   UNL     1      49.048   2.636  20.559  0.00  0.00    +0.000 HD
ENDBRANCH  20  21
ENDBRANCH  16  20
ENDBRANCH  13  14
ENDBRANCH   1  13
TORSDOF 7
ENDMDL
MODEL 8
REMARK VINA RESULT:    -5.574      2.558      4.550
REMARK INTER + INTRA:          -7.922
REMARK INTER:                  -7.523
REMARK INTRA:                  -0.398
REMARK UNBOUND:                -0.393
REMARK  Name = 
REMARK  7 active torsions:
REMARK  status: ('A' for Active; 'I' for Inactive)
REMARK    1  A    between atoms: N_1  and  C_2
REMARK    2  A    between atoms: C_2  and  C_3
REMARK    3  A    between atoms: C_6  and  N_7
REMARK    4  A    between atoms: N_7  and  C_8
REMARK    5  A    between atoms: C_8  and  C_9
REMARK    6  A    between atoms: C_11  and  C_12
REMARK    7  A    between atoms: C_12  and  O_13
REMARK                            x       y       z     vdW  Elec       q    Type
REMARK                         _______ _______ _______ _____ _____    ______ ____
ROOT
ATOM      1  N   UNL     1      46.082   6.175  13.605  0.00  0.00    +0.000 N 
ATOM      2  H   UNL     1      45.707   5.880  14.505  0.00  0.00    +0.000 HD
ENDROOT
BRANCH   1   6
ATOM      3  C   UNL     1      44.884   3.722  10.385  0.00  0.00    +0.000 A 
ATOM      4  C   UNL     1      44.769   3.248  11.698  0.00  0.00    +0.000 A 
ATOM      5  C   UNL     1      45.134   4.051  12.785  0.00  0.00    +0.000 A 
ATOM      6  C   UNL     1      45.647   5.333  12.580  0.00  0.00    +0.000 A 
ATOM      7  C   UNL     1      45.670   5.837  11.276  0.00  0.00    +0.000 A 
ATOM      8  C   UNL     1      45.314   5.038  10.186  0.00  0.00    +0.000 A 
BRANCH   3   9
ATOM      9  C   UNL     1      44.605   2.821   9.210  0.00  0.00    +0.000 C 
BRANCH   9  10
ATOM     10  N   UNL     1      44.338   3.575   7.992  0.00  0.00    +0.000 NA
ATOM     11  H   UNL     1      44.787   4.485   8.063  0.00  0.00    +0.000 HD
ATOM     12  H   UNL     1      43.337   3.750   7.930  0.00  0.00    +0.000 HD
ENDBRANCH   9  10
ENDBRANCH   3   9
ENDBRANCH   1   6
BRANCH   1  13
ATOM     13  C   UNL     1      47.516   6.462  13.704  0.00  0.00    +0.000 C 
BRANCH  13  14
ATOM     14  C   UNL     1      48.044   5.948  15.031  0.00  0.00    +0.000 A 
ATOM     15  C   UNL     1      47.660   4.680  15.478  0.00  0.00    +0.000 A 
ATOM     16  C   UNL     1      48.142   4.206  16.700  0.00  0.00    +0.000 A 
ATOM     17  C   UNL     1      48.994   5.029  17.436  0.00  0.00    +0.000 A 
ATOM     18  C   UNL     1      49.322   6.276  16.926  0.00  0.00    +0.000 A 
ATOM     19  N   UNL     1      48.869   6.753  15.744  0.00  0.00    +0.000 NA
BRANCH  16  20
ATOM     20  C   UNL     1      47.743   2.853  17.214  0.00  0.00    +0.000 C 
BRANCH  20  21
ATOM     21  O   UNL     1      46.421   2.894  17.736  0.00  0.00    +0.000 OA
ATOM     22  H   UNL     1      45.896   3.440  17.125  0.00  0.00    +0.000 HD
ENDBRANCH  20  21
ENDBRANCH  16  20
ENDBRANCH  13  14
ENDBRANCH   1  13
TORSDOF 7
ENDMDL
MODEL 9
REMARK VINA RESULT:    -5.538      3.151      6.621
REMARK INTER + INTRA:          -7.873
REMARK INTER:                  -7.612
REMARK INTRA:                  -0.261
REMARK UNBOUND:                -0.393
REMARK  Name = 
REMARK  7 active torsions:
REMARK  status: ('A' for Active; 'I' for Inactive)
REMARK    1  A    between atoms: N_1  and  C_2
REMARK    2  A    between atoms: C_2  and  C_3
REMARK    3  A    between atoms: C_6  and  N_7
REMARK    4  A    between atoms: N_7  and  C_8
REMARK    5  A    between atoms: C_8  and  C_9
REMARK    6  A    between atoms: C_11  and  C_12
REMARK    7  A    between atoms: C_12  and  O_13
REMARK                            x       y       z     vdW  Elec       q    Type
REMARK                         _______ _______ _______ _____ _____    ______ ____
ROOT
ATOM      1  N   UNL     1      47.382   6.515  12.529  0.00  0.00    +0.000 N 
ATOM      2  H   UNL     1      47.693   5.951  11.739  0.00  0.00    +0.000 HD
ENDROOT
BRANCH   1   6
ATOM      3  C   UNL     1      47.721   4.534  16.242  0.00  0.00    +0.000 A 
ATOM      4  C   UNL     1      47.081   3.895  15.171  0.00  0.00    +0.000 A 
ATOM      5  C   UNL     1      46.979   4.520  13.922  0.00  0.00    +0.000 A 
ATOM      6  C   UNL     1      47.489   5.805  13.726  0.00  0.00    +0.000 A 
ATOM      7  C   UNL     1      48.209   6.398  14.767  0.00  0.00    +0.000 A 
ATOM      8  C   UNL     1      48.309   5.784  16.019  0.00  0.00    +0.000 A 
BRANCH   3   9
ATOM      9  C   UNL     1      47.730   3.917  17.616  0.00  0.00    +0.000 C 
BRANCH   9  10
ATOM     10  N   UNL     1      46.707   2.888  17.762  0.00  0.00    +0.000 NA
ATOM     11  H   UNL     1      46.938   2.307  18.565  0.00  0.00    +0.000 HD
ATOM     12  H   UNL     1      46.738   2.280  16.947  0.00  0.00    +0.000 HD
ENDBRANCH   9  10
ENDBRANCH   3   9
ENDBRANCH   1   6
BRANCH   1  13
ATOM     13  C   UNL     1      46.109   7.178  12.230  0.00  0.00    +0.000 C 
BRANCH  13  14
ATOM     14  C   UNL     1      45.051   6.131  11.933  0.00  0.00    +0.000 A 
ATOM     15  C   UNL     1      45.208   5.291  10.825  0.00  0.00    +0.000 A 
ATOM     16  C   UNL     1      44.235   4.330  10.547  0.00  0.00    +0.000 A 
ATOM     17  C   UNL     1      43.128   4.248  11.392  0.00  0.00    +0.000 A 
ATOM     18  C   UNL     1      43.043   5.123  12.466  0.00  0.00    +0.000 A 
ATOM     19  N   UNL     1      43.976   6.058  12.755  0.00  0.00    +0.000 NA
BRANCH  16  20
ATOM     20  C   UNL     1      44.368   3.417   9.362  0.00  0.00    +0.000 C 
BRANCH  20  21
ATOM     21  O   UNL     1      44.470   2.066   9.789  0.00  0.00    +0.000 OA
ATOM     22  H   UNL     1      44.720   1.543   9.007  0.00  0.00    +0.000 HD
ENDBRANCH  20  21
ENDBRANCH  16  20
ENDBRANCH  13  14
ENDBRANCH   1  13
TORSDOF 7
ENDMDL
