MODEL 1
REMARK VINA RESULT:    -8.787      0.000      0.000
REMARK INTER + INTRA:         -12.251
REMARK INTER:                 -11.356
REMARK INTRA:                  -0.896
REMARK UNBOUND:                -0.896
REMARK  Name = 
REMARK  5 active torsions:
REMARK  status: ('A' for Active; 'I' for Inactive)
REMARK    1  A    between atoms: C_2  and  C_4
REMARK    2  A    between atoms: C_7  and  O_8
REMARK    3  A    between atoms: O_8  and  C_9
REMARK    4  A    between atoms: C_9  and  C_10
REMARK    5  A    between atoms: C_14  and  C_15
REMARK                            x       y       z     vdW  Elec       q    Type
REMARK                         _______ _______ _______ _____ _____    ______ ____
ROOT
ATOM      1  C   UNL     1      43.893   5.470  10.868  0.00  0.00    +0.000 C 
ENDROOT
BRANCH   1   2
ATOM      2  C   UNL     1      45.003   5.309  11.867  0.00  0.00    +0.000 A 
ATOM      3  C   UNL     1      44.890   4.419  12.925  0.00  0.00    +0.000 A 
ATOM      4  N   UNL     1      45.818   4.275  13.890  0.00  0.00    +0.000 NA
ATOM      5  C   UNL     1      46.919   5.060  13.794  0.00  0.00    +0.000 A 
ATOM      6  C   UNL     1      47.159   5.996  12.785  0.00  0.00    +0.000 A 
ATOM      7  C   UNL     1      46.161   6.096  11.804  0.00  0.00    +0.000 A 
BRANCH   6   8
ATOM      8  C   UNL     1      48.362   6.856  12.769  0.00  0.00    +0.000 A 
ATOM      9  C   UNL     1      48.783   7.515  11.598  0.00  0.00    +0.000 A 
ATOM     10  C   UNL     1      49.893   8.367  11.594  0.00  0.00    +0.000 A 
ATOM     11  C   UNL     1      50.614   8.570  12.765  0.00  0.00    +0.000 A 
ATOM     12  C   UNL     1      50.225   7.914  13.923  0.00  0.00    +0.000 A 
ATOM     13  F   UNL     1      50.919   8.103  15.054  0.00  0.00    +0.000 F 
ATOM     14  C   UNL     1      49.119   7.068  13.936  0.00  0.00    +0.000 A 
ENDBRANCH   6   8
ENDBRANCH   1   2
BRANCH   1  15
ATOM     15  O   UNL     1      43.603   4.213  10.261  0.00  0.00    +0.000 OA
BRANCH  15  19
ATOM     16  C   UNL     1      46.441   2.469   7.743  0.00  0.00    +0.000 A 
ATOM     17  C   UNL     1      46.236   3.851   7.664  0.00  0.00    +0.000 A 
ATOM     18  C   UNL     1      45.299   4.472   8.495  0.00  0.00    +0.000 A 
ATOM     19  C   UNL     1      44.556   3.719   9.410  0.00  0.00    +0.000 A 
ATOM     20  C   UNL     1      44.764   2.340   9.488  0.00  0.00    +0.000 A 
ATOM     21  C   UNL     1      45.698   1.714   8.655  0.00  0.00    +0.000 A 
BRANCH  16  23
ATOM     22  N   UNL     1      48.494   2.483   6.433  0.00  0.00    +0.000 N 
ATOM     23  C   UNL     1      47.398   1.774   6.843  0.00  0.00    +0.000 C 
ATOM     24  O   UNL     1      47.228   0.614   6.497  0.00  0.00    +0.000 OA
ATOM     25  H   UNL     1      49.176   1.975   5.884  0.00  0.00    +0.000 HD
ATOM     26  H   UNL     1      48.794   3.332   6.886  0.00  0.00    +0.000 HD
ENDBRANCH  16  23
ENDBRANCH  15  19
ENDBRANCH   1  15
TORSDOF 5
ENDMDL
MODEL 2
REMARK VINA RESULT:    -8.584      2.110      2.572
REMARK INTER + INTRA:         -11.988
REMARK INTER:                 -11.145
REMARK INTRA:                  -0.844
REMARK UNBOUND:                -0.896
REMARK  Name = 
REMARK  5 active torsions:
REMARK  status: ('A' for Active; 'I' for Inactive)
REMARK    1  A    between atoms: C_2  and  C_4
REMARK    2  A    between atoms: C_7  and  O_8
REMARK    3  A    between atoms: O_8  and  C_9
REMARK    4  A    between atoms: C_9  and  C_10
REMARK    5  A    between atoms: C_14  and  C_15
REMARK                            x       y       z     vdW  Elec       q    Type
REMARK                         _______ _______ _______ _____ _____    ______ ____
ROOT
ATOM      1  C   UNL     1      43.886   3.571  11.763  0.00  0.00    +0.000 C 
ENDROOT
BRANCH   1   2
ATOM      2  C   UNL     1      45.126   4.245  12.275  0.00  0.00    +0.000 A 
ATOM      3  C   UNL     1      46.033   3.564  13.075  0.00  0.00    +0.000 A 
ATOM      4  N   UNL     1      47.127   4.128  13.621  0.00  0.00    +0.000 NA
ATOM      5  C   UNL     1      47.329   5.442  13.354  0.00  0.00    +0.000 A 
ATOM      6  C   UNL     1      46.497   6.245  12.568  0.00  0.00    +0.000 A 
ATOM      7  C   UNL     1      45.378   5.600  12.021  0.00  0.00    +0.000 A 
BRANCH   6   8
ATOM      8  C   UNL     1      46.752   7.685  12.359  0.00  0.00    +0.000 A 
ATOM      9  C   UNL     1      48.050   8.179  12.126  0.00  0.00    +0.000 A 
ATOM     10  C   UNL     1      48.286   9.537  11.879  0.00  0.00    +0.000 A 
ATOM     11  C   UNL     1      47.224  10.434  11.872  0.00  0.00    +0.000 A 
ATOM     12  C   UNL     1      45.942   9.968  12.119  0.00  0.00    +0.000 A 
ATOM     13  F   UNL     1      44.915  10.828  12.117  0.00  0.00    +0.000 F 
ATOM     14  C   UNL     1      45.699   8.618  12.360  0.00  0.00    +0.000 A 
ENDBRANCH   6   8
ENDBRANCH   1   2
BRANCH   1  15
ATOM     15  O   UNL     1      43.661   3.941  10.404  0.00  0.00    +0.000 OA
BRANCH  15  19
ATOM     16  C   UNL     1      46.422   2.658   7.546  0.00  0.00    +0.000 A 
ATOM     17  C   UNL     1      45.822   1.702   8.373  0.00  0.00    +0.000 A 
ATOM     18  C   UNL     1      44.889   2.093   9.337  0.00  0.00    +0.000 A 
ATOM     19  C   UNL     1      44.547   3.440   9.487  0.00  0.00    +0.000 A 
ATOM     20  C   UNL     1      45.146   4.393   8.659  0.00  0.00    +0.000 A 
ATOM     21  C   UNL     1      46.085   4.006   7.696  0.00  0.00    +0.000 A 
BRANCH  16  23
ATOM     22  N   UNL     1      47.432   2.951   5.350  0.00  0.00    +0.000 N 
ATOM     23  C   UNL     1      47.450   2.280   6.541  0.00  0.00    +0.000 C 
ATOM     24  O   UNL     1      48.288   1.421   6.772  0.00  0.00    +0.000 OA
ATOM     25  H   UNL     1      48.183   2.738   4.704  0.00  0.00    +0.000 HD
ATOM     26  H   UNL     1      46.932   3.817   5.219  0.00  0.00    +0.000 HD
ENDBRANCH  16  23
ENDBRANCH  15  19
ENDBRANCH   1  15
TORSDOF 5
ENDMDL
MODEL 3
REMARK VINA RESULT:    -8.362      1.513      2.011
REMARK INTER + INTRA:         -11.702
REMARK INTER:                 -10.884
REMARK INTRA:                  -0.818
REMARK UNBOUND:                -0.896
REMARK  Name = 
REMARK  5 active torsions:
REMARK  status: ('A' for Active; 'I' for Inactive)
REMARK    1  A    between atoms: C_2  and  C_4
REMARK    2  A    between atoms: C_7  and  O_8
REMARK    3  A    between atoms: O_8  and  C_9
REMARK    4  A    between atoms: C_9  and  C_10
REMARK    5  A    between atoms: C_14  and  C_15
REMARK                            x       y       z     vdW  Elec       q    Type
REMARK                         _______ _______ _______ _____ _____    ______ ____
ROOT
ATOM      1  C   UNL     1      44.120   3.421  11.606  0.00  0.00    +0.000 C 
ENDROOT
BRANCH   1   2
ATOM      2  C   UNL     1      44.489   4.868  11.751  0.00  0.00    +0.000 A 
ATOM      3  C   UNL     1      43.586   5.873  11.430  0.00  0.00    +0.000 A 
ATOM      4  N   UNL     1      43.876   7.187  11.474  0.00  0.00    +0.000 NA
ATOM      5  C   UNL     1      45.132   7.518  11.862  0.00  0.00    +0.000 A 
ATOM      6  C   UNL     1      46.137   6.611  12.211  0.00  0.00    +0.000 A 
ATOM      7  C   UNL     1      45.773   5.257  12.152  0.00  0.00    +0.000 A 
BRANCH   6   8
ATOM      8  C   UNL     1      47.502   7.041  12.577  0.00  0.00    +0.000 A 
ATOM      9  C   UNL     1      47.998   6.891  13.887  0.00  0.00    +0.000 A 
ATOM     10  C   UNL     1      49.307   7.253  14.223  0.00  0.00    +0.000 A 
ATOM     11  C   UNL     1      50.149   7.786  13.253  0.00  0.00    +0.000 A 
ATOM     12  C   UNL     1      49.671   7.959  11.963  0.00  0.00    +0.000 A 
ATOM     13  F   UNL     1      50.477   8.474  11.024  0.00  0.00    +0.000 F 
ATOM     14  C   UNL     1      48.372   7.596  11.620  0.00  0.00    +0.000 A 
ENDBRANCH   6   8
ENDBRANCH   1   2
BRANCH   1  15
ATOM     15  O   UNL     1      43.644   3.173  10.284  0.00  0.00    +0.000 OA
BRANCH  15  19
ATOM     16  C   UNL     1      46.557   2.578   7.353  0.00  0.00    +0.000 A 
ATOM     17  C   UNL     1      46.020   3.860   7.511  0.00  0.00    +0.000 A 
ATOM     18  C   UNL     1      45.048   4.100   8.486  0.00  0.00    +0.000 A 
ATOM     19  C   UNL     1      44.600   3.062   9.309  0.00  0.00    +0.000 A 
ATOM     20  C   UNL     1      45.139   1.783   9.150  0.00  0.00    +0.000 A 
ATOM     21  C   UNL     1      46.110   1.538   8.173  0.00  0.00    +0.000 A 
BRANCH  16  23
ATOM     22  N   UNL     1      47.515   3.045   5.163  0.00  0.00    +0.000 N 
ATOM     23  C   UNL     1      47.561   2.282   6.297  0.00  0.00    +0.000 C 
ATOM     24  O   UNL     1      48.404   1.408   6.439  0.00  0.00    +0.000 OA
ATOM     25  H   UNL     1      48.251   2.886   4.486  0.00  0.00    +0.000 HD
ATOM     26  H   UNL     1      47.013   3.919   5.114  0.00  0.00    +0.000 HD
ENDBRANCH  16  23
ENDBRANCH  15  19
ENDBRANCH   1  15
TORSDOF 5
ENDMDL
MODEL 4
REMARK VINA RESULT:    -8.361      3.701      6.958
REMARK INTER + INTRA:         -11.701
REMARK INTER:                 -10.751
REMARK INTRA:                  -0.949
REMARK UNBOUND:                -0.896
REMARK  Name = 
REMARK  5 active torsions:
REMARK  status: ('A' for Active; 'I' for Inactive)
REMARK    1  A    between atoms: C_2  and  C_4
REMARK    2  A    between atoms: C_7  and  O_8
REMARK    3  A    between atoms: O_8  and  C_9
REMARK    4  A    between atoms: C_9  and  C_10
REMARK    5  A    between atoms: C_14  and  C_15
REMARK                            x       y       z     vdW  Elec       q    Type
REMARK                         _______ _______ _______ _____ _____    ______ ____
ROOT
ATOM      1  C   UNL     1      44.091   6.590  11.469  0.00  0.00    +0.000 C 
ENDROOT
BRANCH   1   2
ATOM      2  C   UNL     1      44.016   5.154  11.037  0.00  0.00    +0.000 A 
ATOM      3  C   UNL     1      43.251   4.234  11.741  0.00  0.00    +0.000 A 
ATOM      4  N   UNL     1      43.194   2.921  11.447  0.00  0.00    +0.000 NA
ATOM      5  C   UNL     1      43.938   2.503  10.393  0.00  0.00    +0.000 A 
ATOM      6  C   UNL     1      44.751   3.320   9.602  0.00  0.00    +0.000 A 
ATOM      7  C   UNL     1      44.764   4.678   9.953  0.00  0.00    +0.000 A 
BRANCH   6   8
ATOM      8  C   UNL     1      45.575   2.787   8.497  0.00  0.00    +0.000 A 
ATOM      9  C   UNL     1      46.051   3.618   7.464  0.00  0.00    +0.000 A 
ATOM     10  C   UNL     1      46.872   3.124   6.444  0.00  0.00    +0.000 A 
ATOM     11  C   UNL     1      47.228   1.780   6.431  0.00  0.00    +0.000 A 
ATOM     12  C   UNL     1      46.752   0.944   7.430  0.00  0.00    +0.000 A 
ATOM     13  F   UNL     1      47.089  -0.353   7.421  0.00  0.00    +0.000 F 
ATOM     14  C   UNL     1      45.939   1.429   8.451  0.00  0.00    +0.000 A 
ENDBRANCH   6   8
ENDBRANCH   1   2
BRANCH   1  15
ATOM     15  O   UNL     1      44.777   6.684  12.716  0.00  0.00    +0.000 OA
BRANCH  15  19
ATOM     16  C   UNL     1      48.838   7.614  12.433  0.00  0.00    +0.000 A 
ATOM     17  C   UNL     1      48.472   6.367  12.951  0.00  0.00    +0.000 A 
ATOM     18  C   UNL     1      47.122   6.017  13.056  0.00  0.00    +0.000 A 
ATOM     19  C   UNL     1      46.127   6.909  12.647  0.00  0.00    +0.000 A 
ATOM     20  C   UNL     1      46.495   8.153  12.128  0.00  0.00    +0.000 A 
ATOM     21  C   UNL     1      47.844   8.508  12.026  0.00  0.00    +0.000 A 
BRANCH  16  23
ATOM     22  N   UNL     1      51.031   7.433  11.390  0.00  0.00    +0.000 N 
ATOM     23  C   UNL     1      50.262   8.031  12.349  0.00  0.00    +0.000 C 
ATOM     24  O   UNL     1      50.726   8.885  13.091  0.00  0.00    +0.000 OA
ATOM     25  H   UNL     1      51.977   7.781  11.292  0.00  0.00    +0.000 HD
ATOM     26  H   UNL     1      50.636   6.924  10.613  0.00  0.00    +0.000 HD
ENDBRANCH  16  23
ENDBRANCH  15  19
ENDBRANCH   1  15
TORSDOF 5
ENDMDL
MODEL 5
REMARK VINA RESULT:    -8.202      1.822      3.037
REMARK INTER + INTRA:         -11.495
REMARK INTER:                 -10.698
REMARK INTRA:                  -0.797
REMARK UNBOUND:                -0.896
REMARK  Name = 
REMARK  5 active torsions:
REMARK  status: ('A' for Active; 'I' for Inactive)
REMARK    1  A    between atoms: C_2  and  C_4
REMARK    2  A    between atoms: C_7  and  O_8
REMARK    3  A    between atoms: O_8  and  C_9
REMARK    4  A    between atoms: C_9  and  C_10
REMARK    5  A    between atoms: C_14  and  C_15
REMARK                            x       y       z     vdW  Elec       q    Type
REMARK                         _______ _______ _______ _____ _____    ______ ____
ROOT
ATOM      1  C   UNL     1      43.810   4.674  11.369  0.00  0.00    +0.000 C 
ENDROOT
BRANCH   1   2
ATOM      2  C   UNL     1      44.942   5.423  12.009  0.00  0.00    +0.000 A 
ATOM      3  C   UNL     1      45.463   6.570  11.425  0.00  0.00    +0.000 A 
ATOM      4  N   UNL     1      46.519   7.249  11.912  0.00  0.00    +0.000 NA
ATOM      5  C   UNL     1      47.086   6.760  13.042  0.00  0.00    +0.000 A 
ATOM      6  C   UNL     1      46.664   5.618  13.730  0.00  0.00    +0.000 A 
ATOM      7  C   UNL     1      45.556   4.957  13.180  0.00  0.00    +0.000 A 
BRANCH   6   8
ATOM      8  C   UNL     1      47.361   5.113  14.931  0.00  0.00    +0.000 A 
ATOM      9  C   UNL     1      47.146   3.808  15.415  0.00  0.00    +0.000 A 
ATOM     10  C   UNL     1      47.842   3.312  16.524  0.00  0.00    +0.000 A 
ATOM     11  C   UNL     1      48.765   4.119  17.180  0.00  0.00    +0.000 A 
ATOM     12  C   UNL     1      48.974   5.413  16.729  0.00  0.00    +0.000 A 
ATOM     13  F   UNL     1      49.859   6.197  17.359  0.00  0.00    +0.000 F 
ATOM     14  C   UNL     1      48.290   5.912  15.624  0.00  0.00    +0.000 A 
ENDBRANCH   6   8
ENDBRANCH   1   2
BRANCH   1  15
ATOM     15  O   UNL     1      43.868   4.827   9.952  0.00  0.00    +0.000 OA
BRANCH  15  19
ATOM     16  C   UNL     1      46.350   2.262   7.786  0.00  0.00    +0.000 A 
ATOM     17  C   UNL     1      45.493   1.711   8.745  0.00  0.00    +0.000 A 
ATOM     18  C   UNL     1      44.643   2.538   9.486  0.00  0.00    +0.000 A 
ATOM     19  C   UNL     1      44.643   3.920   9.279  0.00  0.00    +0.000 A 
ATOM     20  C   UNL     1      45.498   4.467   8.319  0.00  0.00    +0.000 A 
ATOM     21  C   UNL     1      46.354   3.644   7.578  0.00  0.00    +0.000 A 
BRANCH  16  23
ATOM     22  N   UNL     1      48.392   2.033   6.479  0.00  0.00    +0.000 N 
ATOM     23  C   UNL     1      47.296   1.415   7.014  0.00  0.00    +0.000 C 
ATOM     24  O   UNL     1      47.116   0.213   6.875  0.00  0.00    +0.000 OA
ATOM     25  H   UNL     1      49.067   1.433   6.022  0.00  0.00    +0.000 HD
ATOM     26  H   UNL     1      48.702   2.947   6.776  0.00  0.00    +0.000 HD
ENDBRANCH  16  23
ENDBRANCH  15  19
ENDBRANCH   1  15
TORSDOF 5
ENDMDL
MODEL 6
REMARK VINA RESULT:    -8.077      3.753      7.443
REMARK INTER + INTRA:         -11.334
REMARK INTER:                 -10.796
REMARK INTRA:                  -0.538
REMARK UNBOUND:                -0.896
REMARK  Name = 
REMARK  5 active torsions:
REMARK  status: ('A' for Active; 'I' for Inactive)
REMARK    1  A    between atoms: C_2  and  C_4
REMARK    2  A    between atoms: C_7  and  O_8
REMARK    3  A    between atoms: O_8  and  C_9
REMARK    4  A    between atoms: C_9  and  C_10
REMARK    5  A    between atoms: C_14  and  C_15
REMARK                            x       y       z     vdW  Elec       q    Type
REMARK                         _______ _______ _______ _____ _____    ______ ____
ROOT
ATOM      1  C   UNL     1      44.772   6.708  11.547  0.00  0.00    +0.000 C 
ENDROOT
BRANCH   1   2
ATOM      2  C   UNL     1      44.443   5.344  11.015  0.00  0.00    +0.000 A 
ATOM      3  C   UNL     1      43.467   4.559  11.612  0.00  0.00    +0.000 A 
ATOM      4  N   UNL     1      43.171   3.303  11.226  0.00  0.00    +0.000 NA
ATOM      5  C   UNL     1      43.884   2.804  10.187  0.00  0.00    +0.000 A 
ATOM      6  C   UNL     1      44.893   3.483   9.498  0.00  0.00    +0.000 A 
ATOM      7  C   UNL     1      45.152   4.789   9.941  0.00  0.00    +0.000 A 
BRANCH   6   8
ATOM      8  C   UNL     1      45.666   2.858   8.405  0.00  0.00    +0.000 A 
ATOM      9  C   UNL     1      46.137   3.610   7.311  0.00  0.00    +0.000 A 
ATOM     10  C   UNL     1      46.911   3.029   6.299  0.00  0.00    +0.000 A 
ATOM     11  C   UNL     1      47.223   1.675   6.357  0.00  0.00    +0.000 A 
ATOM     12  C   UNL     1      46.751   0.916   7.417  0.00  0.00    +0.000 A 
ATOM     13  F   UNL     1      47.045  -0.390   7.476  0.00  0.00    +0.000 F 
ATOM     14  C   UNL     1      45.985   1.488   8.429  0.00  0.00    +0.000 A 
ENDBRANCH   6   8
ENDBRANCH   1   2
BRANCH   1  15
ATOM     15  O   UNL     1      46.187   6.860  11.646  0.00  0.00    +0.000 OA
BRANCH  15  19
ATOM     16  C   UNL     1      48.037   5.830  15.245  0.00  0.00    +0.000 A 
ATOM     17  C   UNL     1      47.136   4.925  14.673  0.00  0.00    +0.000 A 
ATOM     18  C   UNL     1      46.502   5.232  13.465  0.00  0.00    +0.000 A 
ATOM     19  C   UNL     1      46.758   6.446  12.820  0.00  0.00    +0.000 A 
ATOM     20  C   UNL     1      47.659   7.347  13.392  0.00  0.00    +0.000 A 
ATOM     21  C   UNL     1      48.293   7.045  14.603  0.00  0.00    +0.000 A 
BRANCH  16  23
ATOM     22  N   UNL     1      47.992   5.868  17.679  0.00  0.00    +0.000 N 
ATOM     23  C   UNL     1      48.694   5.552  16.548  0.00  0.00    +0.000 C 
ATOM     24  O   UNL     1      49.805   5.046  16.613  0.00  0.00    +0.000 OA
ATOM     25  H   UNL     1      48.418   5.603  18.559  0.00  0.00    +0.000 HD
ATOM     26  H   UNL     1      46.999   6.046  17.673  0.00  0.00    +0.000 HD
ENDBRANCH  16  23
ENDBRANCH  15  19
ENDBRANCH   1  15
TORSDOF 5
ENDMDL
MODEL 7
REMARK VINA RESULT:    -8.024      3.766      7.312
REMARK INTER + INTRA:         -11.265
REMARK INTER:                 -10.527
REMARK INTRA:                  -0.738
REMARK UNBOUND:                -0.896
REMARK  Name = 
REMARK  5 active torsions:
REMARK  status: ('A' for Active; 'I' for Inactive)
REMARK    1  A    between atoms: C_2  and  C_4
REMARK    2  A    between atoms: C_7  and  O_8
REMARK    3  A    between atoms: O_8  and  C_9
REMARK    4  A    between atoms: C_9  and  C_10
REMARK    5  A    between atoms: C_14  and  C_15
REMARK                            x       y       z     vdW  Elec       q    Type
REMARK                         _______ _______ _______ _____ _____    ______ ____
ROOT
ATOM      1  C   UNL     1      44.087   6.543  11.563  0.00  0.00    +0.000 C 
ENDROOT
BRANCH   1   2
ATOM      2  C   UNL     1      43.992   5.119  11.096  0.00  0.00    +0.000 A 
ATOM      3  C   UNL     1      43.197   4.198  11.765  0.00  0.00    +0.000 A 
ATOM      4  N   UNL     1      43.120   2.894  11.438  0.00  0.00    +0.000 NA
ATOM      5  C   UNL     1      43.874   2.486  10.388  0.00  0.00    +0.000 A 
ATOM      6  C   UNL     1      44.717   3.305   9.631  0.00  0.00    +0.000 A 
ATOM      7  C   UNL     1      44.750   4.654  10.013  0.00  0.00    +0.000 A 
BRANCH   6   8
ATOM      8  C   UNL     1      45.550   2.782   8.528  0.00  0.00    +0.000 A 
ATOM      9  C   UNL     1      46.024   3.620   7.499  0.00  0.00    +0.000 A 
ATOM     10  C   UNL     1      46.853   3.136   6.481  0.00  0.00    +0.000 A 
ATOM     11  C   UNL     1      47.219   1.794   6.466  0.00  0.00    +0.000 A 
ATOM     12  C   UNL     1      46.746   0.952   7.460  0.00  0.00    +0.000 A 
ATOM     13  F   UNL     1      47.092  -0.343   7.448  0.00  0.00    +0.000 F 
ATOM     14  C   UNL     1      45.925   1.427   8.478  0.00  0.00    +0.000 A 
ENDBRANCH   6   8
ENDBRANCH   1   2
BRANCH   1  15
ATOM     15  O   UNL     1      45.352   7.089  11.196  0.00  0.00    +0.000 OA
BRANCH  15  19
ATOM     16  C   UNL     1      48.174   7.385  14.259  0.00  0.00    +0.000 A 
ATOM     17  C   UNL     1      47.468   8.534  13.887  0.00  0.00    +0.000 A 
ATOM     18  C   UNL     1      46.511   8.473  12.870  0.00  0.00    +0.000 A 
ATOM     19  C   UNL     1      46.252   7.266  12.214  0.00  0.00    +0.000 A 
ATOM     20  C   UNL     1      46.957   6.119  12.589  0.00  0.00    +0.000 A 
ATOM     21  C   UNL     1      47.918   6.177  13.604  0.00  0.00    +0.000 A 
BRANCH  16  23
ATOM     22  N   UNL     1      49.272   8.539  16.102  0.00  0.00    +0.000 N 
ATOM     23  C   UNL     1      49.228   7.427  15.307  0.00  0.00    +0.000 C 
ATOM     24  O   UNL     1      50.011   6.502  15.467  0.00  0.00    +0.000 OA
ATOM     25  H   UNL     1      49.943   8.522  16.860  0.00  0.00    +0.000 HD
ATOM     26  H   UNL     1      48.506   9.193  16.167  0.00  0.00    +0.000 HD
ENDBRANCH  16  23
ENDBRANCH  15  19
ENDBRANCH   1  15
TORSDOF 5
ENDMDL
MODEL 8
REMARK VINA RESULT:    -7.720      3.814      7.207
REMARK INTER + INTRA:         -10.872
REMARK INTER:                 -10.112
REMARK INTRA:                  -0.760
REMARK UNBOUND:                -0.896
REMARK  Name = 
REMARK  5 active torsions:
REMARK  status: ('A' for Active; 'I' for Inactive)
REMARK    1  A    between atoms: C_2  and  C_4
REMARK    2  A    between atoms: C_7  and  O_8
REMARK    3  A    between atoms: O_8  and  C_9
REMARK    4  A    between atoms: C_9  and  C_10
REMARK    5  A    between atoms: C_14  and  C_15
REMARK                            x       y       z     vdW  Elec       q    Type
REMARK                         _______ _______ _______ _____ _____    ______ ____
ROOT
ATOM      1  C   UNL     1      44.242   6.238  11.766  0.00  0.00    +0.000 C 
ENDROOT
BRANCH   1   2
ATOM      2  C   UNL     1      44.127   4.859  11.182  0.00  0.00    +0.000 A 
ATOM      3  C   UNL     1      43.314   3.900  11.769  0.00  0.00    +0.000 A 
ATOM      4  N   UNL     1      43.218   2.628  11.335  0.00  0.00    +0.000 NA
ATOM      5  C   UNL     1      43.972   2.296  10.259  0.00  0.00    +0.000 A 
ATOM      6  C   UNL     1      44.832   3.160   9.576  0.00  0.00    +0.000 A 
ATOM      7  C   UNL     1      44.884   4.473  10.069  0.00  0.00    +0.000 A 
BRANCH   6   8
ATOM      8  C   UNL     1      45.664   2.716   8.438  0.00  0.00    +0.000 A 
ATOM      9  C   UNL     1      46.198   1.415   8.377  0.00  0.00    +0.000 A 
ATOM     10  C   UNL     1      46.945   0.978   7.277  0.00  0.00    +0.000 A 
ATOM     11  C   UNL     1      47.182   1.842   6.214  0.00  0.00    +0.000 A 
ATOM     12  C   UNL     1      46.681   3.134   6.267  0.00  0.00    +0.000 A 
ATOM     13  F   UNL     1      46.909   3.973   5.247  0.00  0.00    +0.000 F 
ATOM     14  C   UNL     1      45.933   3.574   7.355  0.00  0.00    +0.000 A 
ENDBRANCH   6   8
ENDBRANCH   1   2
BRANCH   1  15
ATOM     15  O   UNL     1      45.365   6.299  12.643  0.00  0.00    +0.000 OA
BRANCH  15  19
ATOM     16  C   UNL     1      48.292   9.158  11.810  0.00  0.00    +0.000 A 
ATOM     17  C   UNL     1      47.018   9.596  12.187  0.00  0.00    +0.000 A 
ATOM     18  C   UNL     1      46.014   8.668  12.480  0.00  0.00    +0.000 A 
ATOM     19  C   UNL     1      46.271   7.297  12.396  0.00  0.00    +0.000 A 
ATOM     20  C   UNL     1      47.545   6.862  12.021  0.00  0.00    +0.000 A 
ATOM     21  C   UNL     1      48.551   7.787  11.723  0.00  0.00    +0.000 A 
BRANCH  16  23
ATOM     22  N   UNL     1      49.029  11.152  10.622  0.00  0.00    +0.000 N 
ATOM     23  C   UNL     1      49.368  10.118  11.450  0.00  0.00    +0.000 C 
ATOM     24  O   UNL     1      50.504  10.004  11.888  0.00  0.00    +0.000 OA
ATOM     25  H   UNL     1      49.749  11.842  10.447  0.00  0.00    +0.000 HD
ATOM     26  H   UNL     1      48.072  11.420  10.448  0.00  0.00    +0.000 HD
ENDBRANCH  16  23
ENDBRANCH  15  19
ENDBRANCH   1  15
TORSDOF 5
ENDMDL
MODEL 9
REMARK VINA RESULT:    -6.832      4.589      8.574
REMARK INTER + INTRA:          -9.725
REMARK INTER:                  -9.043
REMARK INTRA:                  -0.682
REMARK UNBOUND:                -0.896
REMARK  Name = 
REMARK  5 active torsions:
REMARK  status: ('A' for Active; 'I' for Inactive)
REMARK    1  A    between atoms: C_2  and  C_4
REMARK    2  A    between atoms: C_7  and  O_8
REMARK    3  A    between atoms: O_8  and  C_9
REMARK    4  A    between atoms: C_9  and  C_10
REMARK    5  A    between atoms: C_14  and  C_15
REMARK                            x       y       z     vdW  Elec       q    Type
REMARK                         _______ _______ _______ _____ _____    ______ ____
ROOT
ATOM      1  C   UNL     1      48.092   7.002  14.073  0.00  0.00    +0.000 C 
ENDROOT
BRANCH   1   2
ATOM      2  C   UNL     1      46.995   7.079  13.051  0.00  0.00    +0.000 A 
ATOM      3  C   UNL     1      46.177   8.197  12.963  0.00  0.00    +0.000 A 
ATOM      4  N   UNL     1      45.135   8.301  12.116  0.00  0.00    +0.000 NA
ATOM      5  C   UNL     1      44.898   7.236  11.313  0.00  0.00    +0.000 A 
ATOM      6  C   UNL     1      45.640   6.051  11.299  0.00  0.00    +0.000 A 
ATOM      7  C   UNL     1      46.716   6.004  12.198  0.00  0.00    +0.000 A 
BRANCH   6   8
ATOM      8  C   UNL     1      45.293   4.908  10.429  0.00  0.00    +0.000 A 
ATOM      9  C   UNL     1      44.544   3.816  10.909  0.00  0.00    +0.000 A 
ATOM     10  C   UNL     1      44.174   2.755  10.074  0.00  0.00    +0.000 A 
ATOM     11  C   UNL     1      44.556   2.762   8.737  0.00  0.00    +0.000 A 
ATOM     12  C   UNL     1      45.311   3.819   8.253  0.00  0.00    +0.000 A 
ATOM     13  F   UNL     1      45.685   3.829   6.966  0.00  0.00    +0.000 F 
ATOM     14  C   UNL     1      45.678   4.880   9.076  0.00  0.00    +0.000 A 
ENDBRANCH   6   8
ENDBRANCH   1   2
BRANCH   1  15
ATOM     15  O   UNL     1      48.257   5.652  14.504  0.00  0.00    +0.000 OA
BRANCH  15  19
ATOM     16  C   UNL     1      48.232   5.244  18.660  0.00  0.00    +0.000 A 
ATOM     17  C   UNL     1      47.621   4.251  17.886  0.00  0.00    +0.000 A 
ATOM     18  C   UNL     1      47.614   4.350  16.492  0.00  0.00    +0.000 A 
ATOM     19  C   UNL     1      48.215   5.441  15.857  0.00  0.00    +0.000 A 
ATOM     20  C   UNL     1      48.827   6.430  16.632  0.00  0.00    +0.000 A 
ATOM     21  C   UNL     1      48.832   6.337  18.028  0.00  0.00    +0.000 A 
BRANCH  16  23
ATOM     22  N   UNL     1      48.551   3.997  20.727  0.00  0.00    +0.000 N 
ATOM     23  C   UNL     1      48.218   5.189  20.145  0.00  0.00    +0.000 C 
ATOM     24  O   UNL     1      47.939   6.168  20.821  0.00  0.00    +0.000 OA
ATOM     25  H   UNL     1      48.612   3.994  21.738  0.00  0.00    +0.000 HD
ATOM     26  H   UNL     1      49.020   3.257  20.226  0.00  0.00    +0.000 HD
ENDBRANCH  16  23
ENDBRANCH  15  19
ENDBRANCH   1  15
TORSDOF 5
ENDMDL
