MODEL 1
REMARK VINA RESULT:    -7.645      0.000      0.000
REMARK INTER + INTRA:         -11.069
REMARK INTER:                 -10.550
REMARK INTRA:                  -0.519
REMARK UNBOUND:                -0.519
REMARK  Name = 
REMARK  7 active torsions:
REMARK  status: ('A' for Active; 'I' for Inactive)
REMARK    1  A    between atoms: N_1  and  C_2
REMARK    2  A    between atoms: C_2  and  C_3
REMARK    3  A    between atoms: C_6  and  O_7
REMARK    4  A    between atoms: O_7  and  C_8
REMARK    5  A    between atoms: C_8  and  C_9
REMARK    6  A    between atoms: C_9  and  C_10
REMARK    7  A    between atoms: C_13  and  C_14
REMARK                            x       y       z     vdW  Elec       q    Type
REMARK                         _______ _______ _______ _____ _____    ______ ____
ROOT
ATOM      1  C   UNL     1      43.540   2.964  11.790  0.00  0.00    +0.000 C 
ENDROOT
BRANCH   1   2
ATOM      2  O   UNL     1      43.722   3.694  13.008  0.00  0.00    +0.000 OA
BRANCH   2   6
ATOM      3  C   UNL     1      46.956   6.359  13.106  0.00  0.00    +0.000 A 
ATOM      4  C   UNL     1      47.191   4.992  13.293  0.00  0.00    +0.000 A 
ATOM      5  C   UNL     1      46.137   4.073  13.269  0.00  0.00    +0.000 A 
ATOM      6  C   UNL     1      44.828   4.504  13.059  0.00  0.00    +0.000 A 
ATOM      7  C   UNL     1      44.586   5.869  12.875  0.00  0.00    +0.000 A 
ATOM      8  C   UNL     1      45.641   6.791  12.898  0.00  0.00    +0.000 A 
BRANCH   3   9
ATOM      9  C   UNL     1      48.106   7.335  13.151  0.00  0.00    +0.000 C 
BRANCH   9  10
ATOM     10  N   UNL     1      49.382   6.672  12.903  0.00  0.00    +0.000 NA
ATOM     11  H   UNL     1      49.212   5.696  12.670  0.00  0.00    +0.000 HD
ATOM     12  H   UNL     1      49.922   6.672  13.768  0.00  0.00    +0.000 HD
ENDBRANCH   9  10
ENDBRANCH   3   9
ENDBRANCH   2   6
ENDBRANCH   1   2
BRANCH   1  13
ATOM     13  C   UNL     1      43.584   3.901  10.581  0.00  0.00    +0.000 C 
BRANCH  13  14
ATOM     14  C   UNL     1      44.577   3.480   9.530  0.00  0.00    +0.000 A 
ATOM     15  C   UNL     1      44.916   2.135   9.370  0.00  0.00    +0.000 A 
ATOM     16  C   UNL     1      45.839   1.765   8.397  0.00  0.00    +0.000 A 
ATOM     17  C   UNL     1      46.402   2.763   7.614  0.00  0.00    +0.000 A 
ATOM     18  N   UNL     1      46.103   4.087   7.739  0.00  0.00    +0.000 NA
ATOM     19  C   UNL     1      45.201   4.408   8.696  0.00  0.00    +0.000 A 
BRANCH  17  20
ATOM     20  C   UNL     1      47.404   2.391   6.565  0.00  0.00    +0.000 C 
ATOM     21  N   UNL     1      47.325   3.101   5.396  0.00  0.00    +0.000 N 
ATOM     22  O   UNL     1      48.243   1.514   6.728  0.00  0.00    +0.000 OA
ATOM     23  H   UNL     1      46.625   3.825   5.299  0.00  0.00    +0.000 HD
ATOM     24  H   UNL     1      47.981   2.908   4.653  0.00  0.00    +0.000 HD
ENDBRANCH  17  20
ENDBRANCH  13  14
ENDBRANCH   1  13
TORSDOF 7
ENDMDL
MODEL 2
REMARK VINA RESULT:    -7.609      1.846      6.090
REMARK INTER + INTRA:         -11.019
REMARK INTER:                 -10.286
REMARK INTRA:                  -0.732
REMARK UNBOUND:                -0.519
REMARK  Name = 
REMARK  7 active torsions:
REMARK  status: ('A' for Active; 'I' for Inactive)
REMARK    1  A    between atoms: N_1  and  C_2
REMARK    2  A    between atoms: C_2  and  C_3
REMARK    3  A    between atoms: C_6  and  O_7
REMARK    4  A    between atoms: O_7  and  C_8
REMARK    5  A    between atoms: C_8  and  C_9
REMARK    6  A    between atoms: C_9  and  C_10
REMARK    7  A    between atoms: C_13  and  C_14
REMARK                            x       y       z     vdW  Elec       q    Type
REMARK                         _______ _______ _______ _____ _____    ______ ____
ROOT
ATOM      1  C   UNL     1      43.515   3.297  11.457  0.00  0.00    +0.000 C 
ENDROOT
BRANCH   1   2
ATOM      2  O   UNL     1      43.711   4.084  10.278  0.00  0.00    +0.000 OA
BRANCH   2   6
ATOM      3  C   UNL     1      46.451   2.357   7.616  0.00  0.00    +0.000 A 
ATOM      4  C   UNL     1      46.241   3.741   7.581  0.00  0.00    +0.000 A 
ATOM      5  C   UNL     1      45.335   4.352   8.451  0.00  0.00    +0.000 A 
ATOM      6  C   UNL     1      44.617   3.591   9.374  0.00  0.00    +0.000 A 
ATOM      7  C   UNL     1      44.819   2.208   9.413  0.00  0.00    +0.000 A 
ATOM      8  C   UNL     1      45.728   1.594   8.542  0.00  0.00    +0.000 A 
BRANCH   3   9
ATOM      9  C   UNL     1      47.423   1.716   6.658  0.00  0.00    +0.000 C 
BRANCH   9  10
ATOM     10  N   UNL     1      48.585   2.567   6.425  0.00  0.00    +0.000 NA
ATOM     11  H   UNL     1      48.271   3.493   6.146  0.00  0.00    +0.000 HD
ATOM     12  H   UNL     1      49.111   2.191   5.637  0.00  0.00    +0.000 HD
ENDBRANCH   9  10
ENDBRANCH   3   9
ENDBRANCH   2   6
ENDBRANCH   1   2
BRANCH   1  13
ATOM     13  C   UNL     1      43.603   4.165  12.714  0.00  0.00    +0.000 C 
BRANCH  13  14
ATOM     14  C   UNL     1      44.924   4.872  12.865  0.00  0.00    +0.000 A 
ATOM     15  C   UNL     1      45.041   6.233  12.571  0.00  0.00    +0.000 A 
ATOM     16  C   UNL     1      46.270   6.868  12.711  0.00  0.00    +0.000 A 
ATOM     17  C   UNL     1      47.353   6.114  13.139  0.00  0.00    +0.000 A 
ATOM     18  N   UNL     1      47.286   4.784  13.434  0.00  0.00    +0.000 NA
ATOM     19  C   UNL     1      46.073   4.201  13.284  0.00  0.00    +0.000 A 
BRANCH  17  20
ATOM     20  C   UNL     1      48.689   6.774  13.292  0.00  0.00    +0.000 C 
ATOM     21  N   UNL     1      49.115   7.500  12.212  0.00  0.00    +0.000 N 
ATOM     22  O   UNL     1      49.363   6.680  14.310  0.00  0.00    +0.000 OA
ATOM     23  H   UNL     1      48.527   7.564  11.390  0.00  0.00    +0.000 HD
ATOM     24  H   UNL     1      50.002   7.981  12.255  0.00  0.00    +0.000 HD
ENDBRANCH  17  20
ENDBRANCH  13  14
ENDBRANCH   1  13
TORSDOF 7
ENDMDL
MODEL 3
REMARK VINA RESULT:    -7.607      2.376      6.650
REMARK INTER + INTRA:         -11.017
REMARK INTER:                 -10.515
REMARK INTRA:                  -0.502
REMARK UNBOUND:                -0.519
REMARK  Name = 
REMARK  7 active torsions:
REMARK  status: ('A' for Active; 'I' for Inactive)
REMARK    1  A    between atoms: N_1  and  C_2
REMARK    2  A    between atoms: C_2  and  C_3
REMARK    3  A    between atoms: C_6  and  O_7
REMARK    4  A    between atoms: O_7  and  C_8
REMARK    5  A    between atoms: C_8  and  C_9
REMARK    6  A    between atoms: C_9  and  C_10
REMARK    7  A    between atoms: C_13  and  C_14
REMARK                            x       y       z     vdW  Elec       q    Type
REMARK                         _______ _______ _______ _____ _____    ______ ____
ROOT
ATOM      1  C   UNL     1      43.861   5.127  10.733  0.00  0.00    +0.000 C 
ENDROOT
BRANCH   1   2
ATOM      2  O   UNL     1      43.667   4.720   9.375  0.00  0.00    +0.000 OA
BRANCH   2   6
ATOM      3  C   UNL     1      46.516   2.109   7.747  0.00  0.00    +0.000 A 
ATOM      4  C   UNL     1      45.578   1.615   8.662  0.00  0.00    +0.000 A 
ATOM      5  C   UNL     1      44.615   2.456   9.227  0.00  0.00    +0.000 A 
ATOM      6  C   UNL     1      44.571   3.808   8.890  0.00  0.00    +0.000 A 
ATOM      7  C   UNL     1      45.506   4.309   7.979  0.00  0.00    +0.000 A 
ATOM      8  C   UNL     1      46.472   3.468   7.411  0.00  0.00    +0.000 A 
BRANCH   3   9
ATOM      9  C   UNL     1      47.556   1.188   7.161  0.00  0.00    +0.000 C 
BRANCH   9  10
ATOM     10  N   UNL     1      48.265   1.816   6.051  0.00  0.00    +0.000 NA
ATOM     11  H   UNL     1      48.641   2.710   6.359  0.00  0.00    +0.000 HD
ATOM     12  H   UNL     1      47.594   2.024   5.312  0.00  0.00    +0.000 HD
ENDBRANCH   9  10
ENDBRANCH   3   9
ENDBRANCH   2   6
ENDBRANCH   1   2
BRANCH   1  13
ATOM     13  C   UNL     1      45.253   5.731  10.929  0.00  0.00    +0.000 C 
BRANCH  13  14
ATOM     14  C   UNL     1      45.897   5.347  12.234  0.00  0.00    +0.000 A 
ATOM     15  C   UNL     1      46.721   6.248  12.914  0.00  0.00    +0.000 A 
ATOM     16  C   UNL     1      47.312   5.874  14.116  0.00  0.00    +0.000 A 
ATOM     17  C   UNL     1      47.063   4.598  14.600  0.00  0.00    +0.000 A 
ATOM     18  N   UNL     1      46.270   3.685  13.968  0.00  0.00    +0.000 NA
ATOM     19  C   UNL     1      45.713   4.086  12.801  0.00  0.00    +0.000 A 
BRANCH  17  20
ATOM     20  C   UNL     1      47.693   4.169  15.889  0.00  0.00    +0.000 C 
ATOM     21  N   UNL     1      47.600   5.066  16.919  0.00  0.00    +0.000 N 
ATOM     22  O   UNL     1      48.255   3.089  16.027  0.00  0.00    +0.000 OA
ATOM     23  H   UNL     1      47.120   5.945  16.772  0.00  0.00    +0.000 HD
ATOM     24  H   UNL     1      47.994   4.832  17.819  0.00  0.00    +0.000 HD
ENDBRANCH  17  20
ENDBRANCH  13  14
ENDBRANCH   1  13
TORSDOF 7
ENDMDL
MODEL 4
REMARK VINA RESULT:    -6.555      1.699      2.048
REMARK INTER + INTRA:          -9.565
REMARK INTER:                  -8.965
REMARK INTRA:                  -0.600
REMARK UNBOUND:                -0.519
REMARK  Name = 
REMARK  7 active torsions:
REMARK  status: ('A' for Active; 'I' for Inactive)
REMARK    1  A    between atoms: N_1  and  C_2
REMARK    2  A    between atoms: C_2  and  C_3
REMARK    3  A    between atoms: C_6  and  O_7
REMARK    4  A    between atoms: O_7  and  C_8
REMARK    5  A    between atoms: C_8  and  C_9
REMARK    6  A    between atoms: C_9  and  C_10
REMARK    7  A    between atoms: C_13  and  C_14
REMARK                            x       y       z     vdW  Elec       q    Type
REMARK                         _______ _______ _______ _____ _____    ______ ____
ROOT
ATOM      1  C   UNL     1      43.789   5.549  11.144  0.00  0.00    +0.000 C 
ENDROOT
BRANCH   1   2
ATOM      2  O   UNL     1      44.525   5.701  12.362  0.00  0.00    +0.000 OA
BRANCH   2   6
ATOM      3  C   UNL     1      47.457   8.697  12.357  0.00  0.00    +0.000 A 
ATOM      4  C   UNL     1      47.791   7.413  11.912  0.00  0.00    +0.000 A 
ATOM      5  C   UNL     1      46.840   6.388  11.901  0.00  0.00    +0.000 A 
ATOM      6  C   UNL     1      45.537   6.626  12.337  0.00  0.00    +0.000 A 
ATOM      7  C   UNL     1      45.198   7.906  12.786  0.00  0.00    +0.000 A 
ATOM      8  C   UNL     1      46.149   8.935  12.797  0.00  0.00    +0.000 A 
BRANCH   3   9
ATOM      9  C   UNL     1      48.502   9.785  12.375  0.00  0.00    +0.000 C 
BRANCH   9  10
ATOM     10  N   UNL     1      48.361  10.645  13.545  0.00  0.00    +0.000 NA
ATOM     11  H   UNL     1      49.271  11.027  13.791  0.00  0.00    +0.000 HD
ATOM     12  H   UNL     1      48.064  10.074  14.335  0.00  0.00    +0.000 HD
ENDBRANCH   9  10
ENDBRANCH   3   9
ENDBRANCH   2   6
ENDBRANCH   1   2
BRANCH   1  13
ATOM     13  C   UNL     1      43.659   4.072  10.765  0.00  0.00    +0.000 C 
BRANCH  13  14
ATOM     14  C   UNL     1      44.576   3.656   9.646  0.00  0.00    +0.000 A 
ATOM     15  C   UNL     1      44.824   2.304   9.394  0.00  0.00    +0.000 A 
ATOM     16  C   UNL     1      45.677   1.938   8.359  0.00  0.00    +0.000 A 
ATOM     17  C   UNL     1      46.265   2.945   7.606  0.00  0.00    +0.000 A 
ATOM     18  N   UNL     1      46.055   4.275   7.819  0.00  0.00    +0.000 NA
ATOM     19  C   UNL     1      45.218   4.592   8.836  0.00  0.00    +0.000 A 
BRANCH  17  20
ATOM     20  C   UNL     1      47.193   2.576   6.491  0.00  0.00    +0.000 C 
ATOM     21  N   UNL     1      48.261   1.794   6.844  0.00  0.00    +0.000 N 
ATOM     22  O   UNL     1      47.020   2.941   5.335  0.00  0.00    +0.000 OA
ATOM     23  H   UNL     1      48.368   1.503   7.808  0.00  0.00    +0.000 HD
ATOM     24  H   UNL     1      48.917   1.500   6.136  0.00  0.00    +0.000 HD
ENDBRANCH  17  20
ENDBRANCH  13  14
ENDBRANCH   1  13
TORSDOF 7
ENDMDL
MODEL 5
REMARK VINA RESULT:    -6.228      4.653      7.828
REMARK INTER + INTRA:          -9.114
REMARK INTER:                  -8.750
REMARK INTRA:                  -0.364
REMARK UNBOUND:                -0.519
REMARK  Name = 
REMARK  7 active torsions:
REMARK  status: ('A' for Active; 'I' for Inactive)
REMARK    1  A    between atoms: N_1  and  C_2
REMARK    2  A    between atoms: C_2  and  C_3
REMARK    3  A    between atoms: C_6  and  O_7
REMARK    4  A    between atoms: O_7  and  C_8
REMARK    5  A    between atoms: C_8  and  C_9
REMARK    6  A    between atoms: C_9  and  C_10
REMARK    7  A    between atoms: C_13  and  C_14
REMARK                            x       y       z     vdW  Elec       q    Type
REMARK                         _______ _______ _______ _____ _____    ______ ____
ROOT
ATOM      1  C   UNL     1      47.032   4.658  14.737  0.00  0.00    +0.000 C 
ENDROOT
BRANCH   1   2
ATOM      2  O   UNL     1      45.688   4.432  14.299  0.00  0.00    +0.000 OA
BRANCH   2   6
ATOM      3  C   UNL     1      45.192   4.394  10.136  0.00  0.00    +0.000 A 
ATOM      4  C   UNL     1      44.917   3.233  10.869  0.00  0.00    +0.000 A 
ATOM      5  C   UNL     1      45.073   3.207  12.258  0.00  0.00    +0.000 A 
ATOM      6  C   UNL     1      45.508   4.342  12.942  0.00  0.00    +0.000 A 
ATOM      7  C   UNL     1      45.787   5.504  12.217  0.00  0.00    +0.000 A 
ATOM      8  C   UNL     1      45.630   5.532  10.825  0.00  0.00    +0.000 A 
BRANCH   3   9
ATOM      9  C   UNL     1      45.031   4.396   8.637  0.00  0.00    +0.000 C 
BRANCH   9  10
ATOM     10  N   UNL     1      44.292   3.225   8.176  0.00  0.00    +0.000 NA
ATOM     11  H   UNL     1      44.930   2.597   7.691  0.00  0.00    +0.000 HD
ATOM     12  H   UNL     1      43.603   3.525   7.488  0.00  0.00    +0.000 HD
ENDBRANCH   9  10
ENDBRANCH   3   9
ENDBRANCH   2   6
ENDBRANCH   1   2
BRANCH   1  13
ATOM     13  C   UNL     1      47.167   4.401  16.239  0.00  0.00    +0.000 C 
BRANCH  13  14
ATOM     14  C   UNL     1      48.407   3.630  16.607  0.00  0.00    +0.000 A 
ATOM     15  C   UNL     1      49.359   4.182  17.468  0.00  0.00    +0.000 A 
ATOM     16  C   UNL     1      50.500   3.458  17.794  0.00  0.00    +0.000 A 
ATOM     17  C   UNL     1      50.658   2.196  17.238  0.00  0.00    +0.000 A 
ATOM     18  N   UNL     1      49.757   1.620  16.392  0.00  0.00    +0.000 NA
ATOM     19  C   UNL     1      48.659   2.356  16.098  0.00  0.00    +0.000 A 
BRANCH  17  20
ATOM     20  C   UNL     1      51.881   1.399  17.568  0.00  0.00    +0.000 C 
ATOM     21  N   UNL     1      51.653   0.173  18.134  0.00  0.00    +0.000 N 
ATOM     22  O   UNL     1      53.016   1.804  17.350  0.00  0.00    +0.000 OA
ATOM     23  H   UNL     1      50.701  -0.134  18.291  0.00  0.00    +0.000 HD
ATOM     24  H   UNL     1      52.436  -0.420  18.368  0.00  0.00    +0.000 HD
ENDBRANCH  17  20
ENDBRANCH  13  14
ENDBRANCH   1  13
TORSDOF 7
ENDMDL
MODEL 6
REMARK VINA RESULT:    -6.176      2.791      7.099
REMARK INTER + INTRA:          -9.042
REMARK INTER:                  -8.613
REMARK INTRA:                  -0.428
REMARK UNBOUND:                -0.519
REMARK  Name = 
REMARK  7 active torsions:
REMARK  status: ('A' for Active; 'I' for Inactive)
REMARK    1  A    between atoms: N_1  and  C_2
REMARK    2  A    between atoms: C_2  and  C_3
REMARK    3  A    between atoms: C_6  and  O_7
REMARK    4  A    between atoms: O_7  and  C_8
REMARK    5  A    between atoms: C_8  and  C_9
REMARK    6  A    between atoms: C_9  and  C_10
REMARK    7  A    between atoms: C_13  and  C_14
REMARK                            x       y       z     vdW  Elec       q    Type
REMARK                         _______ _______ _______ _____ _____    ______ ____
ROOT
ATOM      1  C   UNL     1      44.657   5.323  12.200  0.00  0.00    +0.000 C 
ENDROOT
BRANCH   1   2
ATOM      2  O   UNL     1      44.100   5.226  10.886  0.00  0.00    +0.000 OA
BRANCH   2   6
ATOM      3  C   UNL     1      45.997   2.639   8.187  0.00  0.00    +0.000 A 
ATOM      4  C   UNL     1      45.273   2.100   9.257  0.00  0.00    +0.000 A 
ATOM      5  C   UNL     1      44.629   2.931  10.179  0.00  0.00    +0.000 A 
ATOM      6  C   UNL     1      44.697   4.318  10.049  0.00  0.00    +0.000 A 
ATOM      7  C   UNL     1      45.421   4.863   8.984  0.00  0.00    +0.000 A 
ATOM      8  C   UNL     1      46.067   4.031   8.059  0.00  0.00    +0.000 A 
BRANCH   3   9
ATOM      9  C   UNL     1      46.696   1.724   7.214  0.00  0.00    +0.000 C 
BRANCH   9  10
ATOM     10  N   UNL     1      46.811   0.367   7.740  0.00  0.00    +0.000 NA
ATOM     11  H   UNL     1      47.776   0.193   8.007  0.00  0.00    +0.000 HD
ATOM     12  H   UNL     1      46.593  -0.291   6.993  0.00  0.00    +0.000 HD
ENDBRANCH   9  10
ENDBRANCH   3   9
ENDBRANCH   2   6
ENDBRANCH   1   2
BRANCH   1  13
ATOM     13  C   UNL     1      46.104   5.817  12.145  0.00  0.00    +0.000 C 
BRANCH  13  14
ATOM     14  C   UNL     1      46.865   5.597  13.426  0.00  0.00    +0.000 A 
ATOM     15  C   UNL     1      46.573   4.506  14.249  0.00  0.00    +0.000 A 
ATOM     16  C   UNL     1      47.282   4.322  15.431  0.00  0.00    +0.000 A 
ATOM     17  C   UNL     1      48.264   5.246  15.757  0.00  0.00    +0.000 A 
ATOM     18  N   UNL     1      48.579   6.326  14.986  0.00  0.00    +0.000 NA
ATOM     19  C   UNL     1      47.867   6.472  13.844  0.00  0.00    +0.000 A 
BRANCH  17  20
ATOM     20  C   UNL     1      49.037   5.073  17.028  0.00  0.00    +0.000 C 
ATOM     21  N   UNL     1      48.356   5.370  18.178  0.00  0.00    +0.000 N 
ATOM     22  O   UNL     1      50.200   4.691  17.051  0.00  0.00    +0.000 OA
ATOM     23  H   UNL     1      47.392   5.674  18.122  0.00  0.00    +0.000 HD
ATOM     24  H   UNL     1      48.816   5.261  19.070  0.00  0.00    +0.000 HD
ENDBRANCH  17  20
ENDBRANCH  13  14
ENDBRANCH   1  13
TORSDOF 7
ENDMDL
MODEL 7
REMARK VINA RESULT:    -6.084      3.772      7.051
REMARK INTER + INTRA:          -8.915
REMARK INTER:                  -8.021
REMARK INTRA:                  -0.894
REMARK UNBOUND:                -0.519
REMARK  Name = 
REMARK  7 active torsions:
REMARK  status: ('A' for Active; 'I' for Inactive)
REMARK    1  A    between atoms: N_1  and  C_2
REMARK    2  A    between atoms: C_2  and  C_3
REMARK    3  A    between atoms: C_6  and  O_7
REMARK    4  A    between atoms: O_7  and  C_8
REMARK    5  A    between atoms: C_8  and  C_9
REMARK    6  A    between atoms: C_9  and  C_10
REMARK    7  A    between atoms: C_13  and  C_14
REMARK                            x       y       z     vdW  Elec       q    Type
REMARK                         _______ _______ _______ _____ _____    ______ ____
ROOT
ATOM      1  C   UNL     1      46.751   8.177  13.007  0.00  0.00    +0.000 C 
ENDROOT
BRANCH   1   2
ATOM      2  O   UNL     1      46.005   8.031  11.794  0.00  0.00    +0.000 OA
BRANCH   2   6
ATOM      3  C   UNL     1      44.136   4.303  11.366  0.00  0.00    +0.000 A 
ATOM      4  C   UNL     1      45.140   4.672  10.464  0.00  0.00    +0.000 A 
ATOM      5  C   UNL     1      45.785   5.908  10.574  0.00  0.00    +0.000 A 
ATOM      6  C   UNL     1      45.436   6.800  11.587  0.00  0.00    +0.000 A 
ATOM      7  C   UNL     1      44.432   6.439  12.490  0.00  0.00    +0.000 A 
ATOM      8  C   UNL     1      43.785   5.201  12.382  0.00  0.00    +0.000 A 
BRANCH   3   9
ATOM      9  C   UNL     1      43.443   2.971  11.220  0.00  0.00    +0.000 C 
BRANCH   9  10
ATOM     10  N   UNL     1      43.534   2.183  12.445  0.00  0.00    +0.000 NA
ATOM     11  H   UNL     1      42.617   1.802  12.666  0.00  0.00    +0.000 HD
ATOM     12  H   UNL     1      43.783   2.803  13.214  0.00  0.00    +0.000 HD
ENDBRANCH   9  10
ENDBRANCH   3   9
ENDBRANCH   2   6
ENDBRANCH   1   2
BRANCH   1  13
ATOM     13  C   UNL     1      47.949   7.225  13.029  0.00  0.00    +0.000 C 
BRANCH  13  14
ATOM     14  C   UNL     1      47.881   6.198  14.129  0.00  0.00    +0.000 A 
ATOM     15  C   UNL     1      47.128   5.032  13.968  0.00  0.00    +0.000 A 
ATOM     16  C   UNL     1      47.073   4.098  14.997  0.00  0.00    +0.000 A 
ATOM     17  C   UNL     1      47.774   4.364  16.164  0.00  0.00    +0.000 A 
ATOM     18  N   UNL     1      48.518   5.490  16.365  0.00  0.00    +0.000 NA
ATOM     19  C   UNL     1      48.547   6.376  15.341  0.00  0.00    +0.000 A 
BRANCH  17  20
ATOM     20  C   UNL     1      47.725   3.376  17.288  0.00  0.00    +0.000 C 
ATOM     21  N   UNL     1      48.909   3.172  17.947  0.00  0.00    +0.000 N 
ATOM     22  O   UNL     1      46.702   2.785  17.609  0.00  0.00    +0.000 OA
ATOM     23  H   UNL     1      49.733   3.685  17.661  0.00  0.00    +0.000 HD
ATOM     24  H   UNL     1      48.940   2.528  18.723  0.00  0.00    +0.000 HD
ENDBRANCH  17  20
ENDBRANCH  13  14
ENDBRANCH   1  13
TORSDOF 7
ENDMDL
MODEL 8
REMARK VINA RESULT:    -5.944      2.476      6.552
REMARK INTER + INTRA:          -8.722
REMARK INTER:                  -8.001
REMARK INTRA:                  -0.720
REMARK UNBOUND:                -0.519
REMARK  Name = 
REMARK  7 active torsions:
REMARK  status: ('A' for Active; 'I' for Inactive)
REMARK    1  A    between atoms: N_1  and  C_2
REMARK    2  A    between atoms: C_2  and  C_3
REMARK    3  A    between atoms: C_6  and  O_7
REMARK    4  A    between atoms: O_7  and  C_8
REMARK    5  A    between atoms: C_8  and  C_9
REMARK    6  A    between atoms: C_9  and  C_10
REMARK    7  A    between atoms: C_13  and  C_14
REMARK                            x       y       z     vdW  Elec       q    Type
REMARK                         _______ _______ _______ _____ _____    ______ ____
ROOT
ATOM      1  C   UNL     1      44.774   5.523  13.047  0.00  0.00    +0.000 C 
ENDROOT
BRANCH   1   2
ATOM      2  O   UNL     1      44.045   4.560  12.279  0.00  0.00    +0.000 OA
BRANCH   2   6
ATOM      3  C   UNL     1      45.505   3.519   8.490  0.00  0.00    +0.000 A 
ATOM      4  C   UNL     1      45.607   4.847   8.921  0.00  0.00    +0.000 A 
ATOM      5  C   UNL     1      45.130   5.232  10.178  0.00  0.00    +0.000 A 
ATOM      6  C   UNL     1      44.539   4.297  11.027  0.00  0.00    +0.000 A 
ATOM      7  C   UNL     1      44.430   2.970  10.601  0.00  0.00    +0.000 A 
ATOM      8  C   UNL     1      44.908   2.582   9.342  0.00  0.00    +0.000 A 
BRANCH   3   9
ATOM      9  C   UNL     1      46.012   3.128   7.125  0.00  0.00    +0.000 C 
BRANCH   9  10
ATOM     10  N   UNL     1      46.924   4.132   6.584  0.00  0.00    +0.000 NA
ATOM     11  H   UNL     1      46.491   4.575   5.777  0.00  0.00    +0.000 HD
ATOM     12  H   UNL     1      47.760   3.661   6.242  0.00  0.00    +0.000 HD
ENDBRANCH   9  10
ENDBRANCH   3   9
ENDBRANCH   2   6
ENDBRANCH   1   2
BRANCH   1  13
ATOM     13  C   UNL     1      46.042   4.902  13.638  0.00  0.00    +0.000 C 
BRANCH  13  14
ATOM     14  C   UNL     1      47.247   5.802  13.556  0.00  0.00    +0.000 A 
ATOM     15  C   UNL     1      47.557   6.470  12.369  0.00  0.00    +0.000 A 
ATOM     16  C   UNL     1      48.677   7.293  12.311  0.00  0.00    +0.000 A 
ATOM     17  C   UNL     1      49.460   7.418  13.450  0.00  0.00    +0.000 A 
ATOM     18  N   UNL     1      49.196   6.782  14.627  0.00  0.00    +0.000 NA
ATOM     19  C   UNL     1      48.098   5.989  14.645  0.00  0.00    +0.000 A 
BRANCH  17  20
ATOM     20  C   UNL     1      50.674   8.293  13.410  0.00  0.00    +0.000 C 
ATOM     21  N   UNL     1      50.905   9.034  14.539  0.00  0.00    +0.000 N 
ATOM     22  O   UNL     1      51.420   8.350  12.441  0.00  0.00    +0.000 OA
ATOM     23  H   UNL     1      50.272   8.955  15.325  0.00  0.00    +0.000 HD
ATOM     24  H   UNL     1      51.715   9.635  14.581  0.00  0.00    +0.000 HD
ENDBRANCH  17  20
ENDBRANCH  13  14
ENDBRANCH   1  13
TORSDOF 7
ENDMDL
MODEL 9
REMARK VINA RESULT:    -5.650      4.160      8.271
REMARK INTER + INTRA:          -8.315
REMARK INTER:                  -7.895
REMARK INTRA:                  -0.420
REMARK UNBOUND:                -0.519
REMARK  Name = 
REMARK  7 active torsions:
REMARK  status: ('A' for Active; 'I' for Inactive)
REMARK    1  A    between atoms: N_1  and  C_2
REMARK    2  A    between atoms: C_2  and  C_3
REMARK    3  A    between atoms: C_6  and  O_7
REMARK    4  A    between atoms: O_7  and  C_8
REMARK    5  A    between atoms: C_8  and  C_9
REMARK    6  A    between atoms: C_9  and  C_10
REMARK    7  A    between atoms: C_13  and  C_14
REMARK                            x       y       z     vdW  Elec       q    Type
REMARK                         _______ _______ _______ _____ _____    ______ ____
ROOT
ATOM      1  C   UNL     1      46.356   5.169  13.852  0.00  0.00    +0.000 C 
ENDROOT
BRANCH   1   2
ATOM      2  O   UNL     1      45.120   4.841  13.209  0.00  0.00    +0.000 OA
BRANCH   2   6
ATOM      3  C   UNL     1      45.261   3.986   9.107  0.00  0.00    +0.000 A 
ATOM      4  C   UNL     1      45.645   5.255   9.555  0.00  0.00    +0.000 A 
ATOM      5  C   UNL     1      45.609   5.578  10.915  0.00  0.00    +0.000 A 
ATOM      6  C   UNL     1      45.187   4.638  11.854  0.00  0.00    +0.000 A 
ATOM      7  C   UNL     1      44.799   3.369  11.414  0.00  0.00    +0.000 A 
ATOM      8  C   UNL     1      44.835   3.043  10.051  0.00  0.00    +0.000 A 
BRANCH   3   9
ATOM      9  C   UNL     1      45.293   3.664   7.634  0.00  0.00    +0.000 C 
BRANCH   9  10
ATOM     10  N   UNL     1      46.511   4.162   7.003  0.00  0.00    +0.000 NA
ATOM     11  H   UNL     1      46.942   4.856   7.609  0.00  0.00    +0.000 HD
ATOM     12  H   UNL     1      46.257   4.646   6.143  0.00  0.00    +0.000 HD
ENDBRANCH   9  10
ENDBRANCH   3   9
ENDBRANCH   2   6
ENDBRANCH   1   2
BRANCH   1  13
ATOM     13  C   UNL     1      47.008   3.921  14.451  0.00  0.00    +0.000 C 
BRANCH  13  14
ATOM     14  C   UNL     1      47.571   4.140  15.831  0.00  0.00    +0.000 A 
ATOM     15  C   UNL     1      48.194   5.345  16.162  0.00  0.00    +0.000 A 
ATOM     16  C   UNL     1      48.713   5.527  17.439  0.00  0.00    +0.000 A 
ATOM     17  C   UNL     1      48.596   4.487  18.350  0.00  0.00    +0.000 A 
ATOM     18  N   UNL     1      47.999   3.293  18.068  0.00  0.00    +0.000 NA
ATOM     19  C   UNL     1      47.507   3.154  16.815  0.00  0.00    +0.000 A 
BRANCH  17  20
ATOM     20  C   UNL     1      49.152   4.656  19.729  0.00  0.00    +0.000 C 
ATOM     21  N   UNL     1      48.294   4.355  20.753  0.00  0.00    +0.000 N 
ATOM     22  O   UNL     1      50.297   5.036  19.942  0.00  0.00    +0.000 OA
ATOM     23  H   UNL     1      47.358   4.034  20.541  0.00  0.00    +0.000 HD
ATOM     24  H   UNL     1      48.612   4.435  21.708  0.00  0.00    +0.000 HD
ENDBRANCH  17  20
ENDBRANCH  13  14
ENDBRANCH   1  13
TORSDOF 7
ENDMDL
