MODEL 1
REMARK VINA RESULT:    -7.968      0.000      0.000
REMARK INTER + INTRA:         -11.511
REMARK INTER:                 -10.762
REMARK INTRA:                  -0.749
REMARK UNBOUND:                -0.749
REMARK  Name = 
REMARK  7 active torsions:
REMARK  status: ('A' for Active; 'I' for Inactive)
REMARK    1  A    between atoms: C_1  and  C_2
REMARK    2  A    between atoms: C_2  and  C_3
REMARK    3  A    between atoms: C_2  and  C_14
REMARK    4  A    between atoms: C_3  and  N_4
REMARK    5  A    between atoms: C_8  and  C_9
REMARK    6  A    between atoms: C_19  and  C_20
REMARK    7  A    between atoms: C_20  and  C_21
REMARK                            x       y       z     vdW  Elec       q    Type
REMARK                         _______ _______ _______ _____ _____    ______ ____
ROOT
ATOM      1  C   UNL     1      42.419   6.340  11.985  0.00  0.00    +0.000 C 
ATOM      2  C   UNL     1      43.167   5.025  12.257  0.00  0.00    +0.000 C 
ENDROOT
BRANCH   2   3
ATOM      3  C   UNL     1      44.579   5.327  12.775  0.00  0.00    +0.000 A 
ATOM      4  C   UNL     1      45.194   6.560  12.501  0.00  0.00    +0.000 A 
ATOM      5  C   UNL     1      46.477   6.834  12.972  0.00  0.00    +0.000 A 
ATOM      6 CL   UNL     1      47.213   8.348  12.608  0.00  0.00    +0.000 Cl
ATOM      7  C   UNL     1      47.177   5.892  13.724  0.00  0.00    +0.000 A 
ATOM      8  C   UNL     1      46.596   4.649  14.017  0.00  0.00    +0.000 A 
ATOM      9  C   UNL     1      45.295   4.382  13.543  0.00  0.00    +0.000 A 
BRANCH   8  10
ATOM     10  C   UNL     1      47.401   3.618  14.784  0.00  0.00    +0.000 C 
BRANCH  10  11
ATOM     11  C   UNL     1      47.908   4.149  16.116  0.00  0.00    +0.000 C 
ATOM     12  C   UNL     1      48.790   3.277  17.027  0.00  0.00    +0.000 C 
ATOM     13  O   UNL     1      47.914   3.507  18.158  0.00  0.00    +0.000 OA
ATOM     14  C   UNL     1      46.899   4.047  17.279  0.00  0.00    +0.000 C 
ENDBRANCH  10  11
ENDBRANCH   8  10
ENDBRANCH   2   3
BRANCH   2  15
ATOM     15  C   UNL     1      43.195   4.115  10.997  0.00  0.00    +0.000 C 
BRANCH  15  16
ATOM     16  N   UNL     1      43.876   4.754   9.854  0.00  0.00    +0.000 N 
ATOM     17  C   UNL     1      44.707   3.875   9.127  0.00  0.00    +0.000 A 
ATOM     18  C   UNL     1      45.435   4.368   8.046  0.00  0.00    +0.000 A 
ATOM     19  C   UNL     1      46.283   3.511   7.336  0.00  0.00    +0.000 A 
ATOM     20  C   UNL     1      46.387   2.170   7.712  0.00  0.00    +0.000 A 
ATOM     21  C   UNL     1      45.608   1.761   8.779  0.00  0.00    +0.000 A 
ATOM     22  N   UNL     1      44.779   2.573   9.483  0.00  0.00    +0.000 NA
ATOM     23  H   UNL     1      44.454   5.540  10.138  0.00  0.00    +0.000 HD
BRANCH  20  24
ATOM     24  C   UNL     1      47.312   1.270   6.979  0.00  0.00    +0.000 C 
ATOM     25  N   UNL     1      48.377   1.810   6.313  0.00  0.00    +0.000 N 
ATOM     26  O   UNL     1      47.127   0.058   6.953  0.00  0.00    +0.000 OA
ATOM     27  H   UNL     1      48.617   2.788   6.262  0.00  0.00    +0.000 HD
ATOM     28  H   UNL     1      48.975   1.161   5.814  0.00  0.00    +0.000 HD
ENDBRANCH  20  24
ENDBRANCH  15  16
ENDBRANCH   2  15
TORSDOF 6
ENDMDL
MODEL 2
REMARK VINA RESULT:    -7.753      2.839      3.435
REMARK INTER + INTRA:         -11.221
REMARK INTER:                 -10.561
REMARK INTRA:                  -0.660
REMARK UNBOUND:                -0.749
REMARK  Name = 
REMARK  7 active torsions:
REMARK  status: ('A' for Active; 'I' for Inactive)
REMARK    1  A    between atoms: C_1  and  C_2
REMARK    2  A    between atoms: C_2  and  C_3
REMARK    3  A    between atoms: C_2  and  C_14
REMARK    4  A    between atoms: C_3  and  N_4
REMARK    5  A    between atoms: C_8  and  C_9
REMARK    6  A    between atoms: C_19  and  C_20
REMARK    7  A    between atoms: C_20  and  C_21
REMARK                            x       y       z     vdW  Elec       q    Type
REMARK                         _______ _______ _______ _____ _____    ______ ____
ROOT
ATOM      1  C   UNL     1      43.027   4.899  13.286  0.00  0.00    +0.000 C 
ATOM      2  C   UNL     1      44.103   4.795  12.193  0.00  0.00    +0.000 C 
ENDROOT
BRANCH   2   3
ATOM      3  C   UNL     1      45.030   6.017  12.256  0.00  0.00    +0.000 A 
ATOM      4  C   UNL     1      44.506   7.318  12.186  0.00  0.00    +0.000 A 
ATOM      5  C   UNL     1      45.349   8.427  12.245  0.00  0.00    +0.000 A 
ATOM      6 CL   UNL     1      44.680  10.011  12.141  0.00  0.00    +0.000 Cl
ATOM      7  C   UNL     1      46.727   8.269  12.374  0.00  0.00    +0.000 A 
ATOM      8  C   UNL     1      47.287   6.985  12.446  0.00  0.00    +0.000 A 
ATOM      9  C   UNL     1      46.428   5.868  12.394  0.00  0.00    +0.000 A 
BRANCH   8  10
ATOM     10  C   UNL     1      48.794   6.838  12.524  0.00  0.00    +0.000 C 
BRANCH  10  11
ATOM     11  C   UNL     1      49.525   7.915  11.736  0.00  0.00    +0.000 C 
ATOM     12  C   UNL     1      50.894   7.628  11.093  0.00  0.00    +0.000 C 
ATOM     13  O   UNL     1      51.477   8.794  11.725  0.00  0.00    +0.000 OA
ATOM     14  C   UNL     1      50.328   8.913  12.596  0.00  0.00    +0.000 C 
ENDBRANCH  10  11
ENDBRANCH   8  10
ENDBRANCH   2   3
BRANCH   2  15
ATOM     15  C   UNL     1      43.469   4.624  10.785  0.00  0.00    +0.000 C 
BRANCH  15  16
ATOM     16  N   UNL     1      44.320   5.174   9.711  0.00  0.00    +0.000 N 
ATOM     17  C   UNL     1      45.053   4.192   9.012  0.00  0.00    +0.000 A 
ATOM     18  C   UNL     1      45.923   4.589   7.998  0.00  0.00    +0.000 A 
ATOM     19  C   UNL     1      46.675   3.626   7.317  0.00  0.00    +0.000 A 
ATOM     20  C   UNL     1      46.543   2.277   7.654  0.00  0.00    +0.000 A 
ATOM     21  C   UNL     1      45.637   1.971   8.653  0.00  0.00    +0.000 A 
ATOM     22  N   UNL     1      44.897   2.887   9.327  0.00  0.00    +0.000 NA
ATOM     23  H   UNL     1      44.991   5.852  10.059  0.00  0.00    +0.000 HD
BRANCH  20  24
ATOM     24  C   UNL     1      47.366   1.260   6.953  0.00  0.00    +0.000 C 
ATOM     25  N   UNL     1      48.331   1.673   6.077  0.00  0.00    +0.000 N 
ATOM     26  O   UNL     1      47.186   0.061   7.142  0.00  0.00    +0.000 OA
ATOM     27  H   UNL     1      48.557   2.627   5.842  0.00  0.00    +0.000 HD
ATOM     28  H   UNL     1      48.860   0.946   5.610  0.00  0.00    +0.000 HD
ENDBRANCH  20  24
ENDBRANCH  15  16
ENDBRANCH   2  15
TORSDOF 6
ENDMDL
MODEL 3
REMARK VINA RESULT:    -7.693      3.132      4.796
REMARK INTER + INTRA:         -11.140
REMARK INTER:                 -10.793
REMARK INTRA:                  -0.347
REMARK UNBOUND:                -0.749
REMARK  Name = 
REMARK  7 active torsions:
REMARK  status: ('A' for Active; 'I' for Inactive)
REMARK    1  A    between atoms: C_1  and  C_2
REMARK    2  A    between atoms: C_2  and  C_3
REMARK    3  A    between atoms: C_2  and  C_14
REMARK    4  A    between atoms: C_3  and  N_4
REMARK    5  A    between atoms: C_8  and  C_9
REMARK    6  A    between atoms: C_19  and  C_20
REMARK    7  A    between atoms: C_20  and  C_21
REMARK                            x       y       z     vdW  Elec       q    Type
REMARK                         _______ _______ _______ _____ _____    ______ ____
ROOT
ATOM      1  C   UNL     1      43.388   4.194  13.468  0.00  0.00    +0.000 C 
ATOM      2  C   UNL     1      44.211   4.514  12.210  0.00  0.00    +0.000 C 
ENDROOT
BRANCH   2   3
ATOM      3  C   UNL     1      45.045   5.782  12.441  0.00  0.00    +0.000 A 
ATOM      4  C   UNL     1      46.341   5.699  12.976  0.00  0.00    +0.000 A 
ATOM      5  C   UNL     1      47.097   6.852  13.185  0.00  0.00    +0.000 A 
ATOM      6 CL   UNL     1      48.678   6.723  13.857  0.00  0.00    +0.000 Cl
ATOM      7  C   UNL     1      46.585   8.108  12.868  0.00  0.00    +0.000 A 
ATOM      8  C   UNL     1      45.294   8.230  12.332  0.00  0.00    +0.000 A 
ATOM      9  C   UNL     1      44.537   7.060  12.117  0.00  0.00    +0.000 A 
BRANCH   8  10
ATOM     10  C   UNL     1      44.735   9.612  12.054  0.00  0.00    +0.000 C 
BRANCH  10  11
ATOM     11  C   UNL     1      44.109   9.718  10.671  0.00  0.00    +0.000 C 
ATOM     12  C   UNL     1      44.167  11.037   9.880  0.00  0.00    +0.000 C 
ATOM     13  O   UNL     1      42.733  11.018   9.671  0.00  0.00    +0.000 OA
ATOM     14  C   UNL     1      42.589   9.980  10.668  0.00  0.00    +0.000 C 
ENDBRANCH  10  11
ENDBRANCH   8  10
ENDBRANCH   2   3
BRANCH   2  15
ATOM     15  C   UNL     1      43.305   4.639  10.954  0.00  0.00    +0.000 C 
BRANCH  15  16
ATOM     16  N   UNL     1      44.054   5.072   9.757  0.00  0.00    +0.000 N 
ATOM     17  C   UNL     1      44.778   4.033   9.136  0.00  0.00    +0.000 A 
ATOM     18  C   UNL     1      45.557   4.322   8.018  0.00  0.00    +0.000 A 
ATOM     19  C   UNL     1      46.300   3.305   7.411  0.00  0.00    +0.000 A 
ATOM     20  C   UNL     1      46.251   2.008   7.927  0.00  0.00    +0.000 A 
ATOM     21  C   UNL     1      45.431   1.804   9.022  0.00  0.00    +0.000 A 
ATOM     22  N   UNL     1      44.701   2.775   9.628  0.00  0.00    +0.000 NA
ATOM     23  H   UNL     1      44.718   5.813   9.964  0.00  0.00    +0.000 HD
BRANCH  20  24
ATOM     24  C   UNL     1      47.066   0.936   7.302  0.00  0.00    +0.000 C 
ATOM     25  N   UNL     1      46.745  -0.371   7.545  0.00  0.00    +0.000 N 
ATOM     26  O   UNL     1      48.023   1.206   6.585  0.00  0.00    +0.000 OA
ATOM     27  H   UNL     1      45.988  -0.704   8.122  0.00  0.00    +0.000 HD
ATOM     28  H   UNL     1      47.335  -1.070   7.110  0.00  0.00    +0.000 HD
ENDBRANCH  20  24
ENDBRANCH  15  16
ENDBRANCH   2  15
TORSDOF 6
ENDMDL
MODEL 4
REMARK VINA RESULT:    -7.556      3.338      8.187
REMARK INTER + INTRA:         -10.955
REMARK INTER:                 -10.881
REMARK INTRA:                  -0.074
REMARK UNBOUND:                -0.749
REMARK  Name = 
REMARK  7 active torsions:
REMARK  status: ('A' for Active; 'I' for Inactive)
REMARK    1  A    between atoms: C_1  and  C_2
REMARK    2  A    between atoms: C_2  and  C_3
REMARK    3  A    between atoms: C_2  and  C_14
REMARK    4  A    between atoms: C_3  and  N_4
REMARK    5  A    between atoms: C_8  and  C_9
REMARK    6  A    between atoms: C_19  and  C_20
REMARK    7  A    between atoms: C_20  and  C_21
REMARK                            x       y       z     vdW  Elec       q    Type
REMARK                         _______ _______ _______ _____ _____    ______ ____
ROOT
ATOM      1  C   UNL     1      45.172   7.529  12.002  0.00  0.00    +0.000 C 
ATOM      2  C   UNL     1      46.267   6.619  11.424  0.00  0.00    +0.000 C 
ENDROOT
BRANCH   2   3
ATOM      3  C   UNL     1      45.627   5.398  10.749  0.00  0.00    +0.000 A 
ATOM      4  C   UNL     1      44.760   4.556  11.465  0.00  0.00    +0.000 A 
ATOM      5  C   UNL     1      44.178   3.448  10.850  0.00  0.00    +0.000 A 
ATOM      6 CL   UNL     1      43.131   2.424  11.756  0.00  0.00    +0.000 Cl
ATOM      7  C   UNL     1      44.443   3.152   9.515  0.00  0.00    +0.000 A 
ATOM      8  C   UNL     1      45.305   3.970   8.768  0.00  0.00    +0.000 A 
ATOM      9  C   UNL     1      45.884   5.093   9.393  0.00  0.00    +0.000 A 
BRANCH   8  10
ATOM     10  C   UNL     1      45.627   3.592   7.335  0.00  0.00    +0.000 C 
BRANCH  10  11
ATOM     11  C   UNL     1      47.015   2.986   7.191  0.00  0.00    +0.000 C 
ATOM     12  C   UNL     1      47.568   2.604   5.806  0.00  0.00    +0.000 C 
ATOM     13  O   UNL     1      47.884   1.265   6.260  0.00  0.00    +0.000 OA
ATOM     14  C   UNL     1      47.088   1.467   7.452  0.00  0.00    +0.000 C 
ENDBRANCH  10  11
ENDBRANCH   8  10
ENDBRANCH   2   3
BRANCH   2  15
ATOM     15  C   UNL     1      47.295   6.203  12.513  0.00  0.00    +0.000 C 
BRANCH  15  16
ATOM     16  N   UNL     1      46.857   5.022  13.282  0.00  0.00    +0.000 N 
ATOM     17  C   UNL     1      47.369   4.981  14.597  0.00  0.00    +0.000 A 
ATOM     18  C   UNL     1      47.059   3.895  15.413  0.00  0.00    +0.000 A 
ATOM     19  C   UNL     1      47.583   3.831  16.708  0.00  0.00    +0.000 A 
ATOM     20  C   UNL     1      48.407   4.859  17.173  0.00  0.00    +0.000 A 
ATOM     21  C   UNL     1      48.640   5.911  16.307  0.00  0.00    +0.000 A 
ATOM     22  N   UNL     1      48.143   5.994  15.046  0.00  0.00    +0.000 NA
ATOM     23  H   UNL     1      47.123   4.149  12.835  0.00  0.00    +0.000 HD
BRANCH  20  24
ATOM     24  C   UNL     1      48.989   4.774  18.536  0.00  0.00    +0.000 C 
ATOM     25  N   UNL     1      48.613   3.748  19.358  0.00  0.00    +0.000 N 
ATOM     26  O   UNL     1      49.791   5.613  18.934  0.00  0.00    +0.000 OA
ATOM     27  H   UNL     1      47.960   3.013  19.136  0.00  0.00    +0.000 HD
ATOM     28  H   UNL     1      49.024   3.736  20.284  0.00  0.00    +0.000 HD
ENDBRANCH  20  24
ENDBRANCH  15  16
ENDBRANCH   2  15
TORSDOF 6
ENDMDL
MODEL 5
REMARK VINA RESULT:    -7.218      3.692      8.432
REMARK INTER + INTRA:         -10.498
REMARK INTER:                  -9.905
REMARK INTRA:                  -0.594
REMARK UNBOUND:                -0.749
REMARK  Name = 
REMARK  7 active torsions:
REMARK  status: ('A' for Active; 'I' for Inactive)
REMARK    1  A    between atoms: C_1  and  C_2
REMARK    2  A    between atoms: C_2  and  C_3
REMARK    3  A    between atoms: C_2  and  C_14
REMARK    4  A    between atoms: C_3  and  N_4
REMARK    5  A    between atoms: C_8  and  C_9
REMARK    6  A    between atoms: C_19  and  C_20
REMARK    7  A    between atoms: C_20  and  C_21
REMARK                            x       y       z     vdW  Elec       q    Type
REMARK                         _______ _______ _______ _____ _____    ______ ____
ROOT
ATOM      1  C   UNL     1      44.893   7.547  11.557  0.00  0.00    +0.000 C 
ATOM      2  C   UNL     1      46.040   6.667  11.035  0.00  0.00    +0.000 C 
ENDROOT
BRANCH   2   3
ATOM      3  C   UNL     1      45.475   5.352  10.479  0.00  0.00    +0.000 A 
ATOM      4  C   UNL     1      44.692   4.511  11.286  0.00  0.00    +0.000 A 
ATOM      5  C   UNL     1      44.179   3.317  10.780  0.00  0.00    +0.000 A 
ATOM      6 CL   UNL     1      43.235   2.297  11.797  0.00  0.00    +0.000 Cl
ATOM      7  C   UNL     1      44.432   2.934   9.465  0.00  0.00    +0.000 A 
ATOM      8  C   UNL     1      45.211   3.748   8.628  0.00  0.00    +0.000 A 
ATOM      9  C   UNL     1      45.720   4.957   9.145  0.00  0.00    +0.000 A 
BRANCH   8  10
ATOM     10  C   UNL     1      45.524   3.279   7.221  0.00  0.00    +0.000 C 
BRANCH  10  11
ATOM     11  C   UNL     1      46.991   2.915   7.041  0.00  0.00    +0.000 C 
ATOM     12  C   UNL     1      47.564   2.626   5.643  0.00  0.00    +0.000 C 
ATOM     13  O   UNL     1      48.113   1.361   6.088  0.00  0.00    +0.000 OA
ATOM     14  C   UNL     1      47.325   1.431   7.300  0.00  0.00    +0.000 C 
ENDBRANCH  10  11
ENDBRANCH   8  10
ENDBRANCH   2   3
BRANCH   2  15
ATOM     15  C   UNL     1      47.110   6.417  12.133  0.00  0.00    +0.000 C 
BRANCH  15  16
ATOM     16  N   UNL     1      47.499   7.656  12.836  0.00  0.00    +0.000 N 
ATOM     17  C   UNL     1      48.017   7.434  14.129  0.00  0.00    +0.000 A 
ATOM     18  C   UNL     1      48.386   8.528  14.910  0.00  0.00    +0.000 A 
ATOM     19  C   UNL     1      48.875   8.321  16.203  0.00  0.00    +0.000 A 
ATOM     20  C   UNL     1      48.996   7.020  16.699  0.00  0.00    +0.000 A 
ATOM     21  C   UNL     1      48.633   5.993  15.847  0.00  0.00    +0.000 A 
ATOM     22  N   UNL     1      48.156   6.170  14.588  0.00  0.00    +0.000 NA
ATOM     23  H   UNL     1      46.722   8.304  12.936  0.00  0.00    +0.000 HD
BRANCH  20  24
ATOM     24  C   UNL     1      49.484   6.803  18.083  0.00  0.00    +0.000 C 
ATOM     25  N   UNL     1      50.125   5.634  18.388  0.00  0.00    +0.000 N 
ATOM     26  O   UNL     1      49.312   7.649  18.955  0.00  0.00    +0.000 OA
ATOM     27  H   UNL     1      50.312   4.872  17.754  0.00  0.00    +0.000 HD
ATOM     28  H   UNL     1      50.430   5.521  19.347  0.00  0.00    +0.000 HD
ENDBRANCH  20  24
ENDBRANCH  15  16
ENDBRANCH   2  15
TORSDOF 6
ENDMDL
MODEL 6
REMARK VINA RESULT:    -6.895      4.322      8.304
REMARK INTER + INTRA:         -10.062
REMARK INTER:                  -9.433
REMARK INTRA:                  -0.629
REMARK UNBOUND:                -0.749
REMARK  Name = 
REMARK  7 active torsions:
REMARK  status: ('A' for Active; 'I' for Inactive)
REMARK    1  A    between atoms: C_1  and  C_2
REMARK    2  A    between atoms: C_2  and  C_3
REMARK    3  A    between atoms: C_2  and  C_14
REMARK    4  A    between atoms: C_3  and  N_4
REMARK    5  A    between atoms: C_8  and  C_9
REMARK    6  A    between atoms: C_19  and  C_20
REMARK    7  A    between atoms: C_20  and  C_21
REMARK                            x       y       z     vdW  Elec       q    Type
REMARK                         _______ _______ _______ _____ _____    ______ ____
ROOT
ATOM      1  C   UNL     1      44.895   7.611  11.552  0.00  0.00    +0.000 C 
ATOM      2  C   UNL     1      46.023   6.585  11.363  0.00  0.00    +0.000 C 
ENDROOT
BRANCH   2   3
ATOM      3  C   UNL     1      45.469   5.320  10.693  0.00  0.00    +0.000 A 
ATOM      4  C   UNL     1      44.658   4.426  11.412  0.00  0.00    +0.000 A 
ATOM      5  C   UNL     1      44.154   3.277  10.802  0.00  0.00    +0.000 A 
ATOM      6 CL   UNL     1      43.175   2.190  11.711  0.00  0.00    +0.000 Cl
ATOM      7  C   UNL     1      44.444   2.992   9.470  0.00  0.00    +0.000 A 
ATOM      8  C   UNL     1      45.251   3.861   8.720  0.00  0.00    +0.000 A 
ATOM      9  C   UNL     1      45.751   5.024   9.341  0.00  0.00    +0.000 A 
BRANCH   8  10
ATOM     10  C   UNL     1      45.602   3.497   7.291  0.00  0.00    +0.000 C 
BRANCH  10  11
ATOM     11  C   UNL     1      47.012   2.938   7.162  0.00  0.00    +0.000 C 
ATOM     12  C   UNL     1      47.592   2.574   5.784  0.00  0.00    +0.000 C 
ATOM     13  O   UNL     1      47.948   1.247   6.244  0.00  0.00    +0.000 OA
ATOM     14  C   UNL     1      47.133   1.424   7.427  0.00  0.00    +0.000 C 
ENDBRANCH  10  11
ENDBRANCH   8  10
ENDBRANCH   2   3
BRANCH   2  15
ATOM     15  C   UNL     1      46.731   6.263  12.708  0.00  0.00    +0.000 C 
BRANCH  15  16
ATOM     16  N   UNL     1      46.735   7.413  13.634  0.00  0.00    +0.000 N 
ATOM     17  C   UNL     1      48.013   7.976  13.832  0.00  0.00    +0.000 A 
ATOM     18  C   UNL     1      48.154   9.045  14.715  0.00  0.00    +0.000 A 
ATOM     19  C   UNL     1      49.422   9.593  14.939  0.00  0.00    +0.000 A 
ATOM     20  C   UNL     1      50.532   9.070  14.272  0.00  0.00    +0.000 A 
ATOM     21  C   UNL     1      50.296   8.027  13.394  0.00  0.00    +0.000 A 
ATOM     22  N   UNL     1      49.076   7.479  13.160  0.00  0.00    +0.000 NA
ATOM     23  H   UNL     1      46.373   7.170  14.553  0.00  0.00    +0.000 HD
BRANCH  20  24
ATOM     24  C   UNL     1      51.880   9.630  14.536  0.00  0.00    +0.000 C 
ATOM     25  N   UNL     1      51.994  10.757  15.302  0.00  0.00    +0.000 N 
ATOM     26  O   UNL     1      52.886   9.106  14.069  0.00  0.00    +0.000 OA
ATOM     27  H   UNL     1      51.238  11.271  15.726  0.00  0.00    +0.000 HD
ATOM     28  H   UNL     1      52.932  11.114  15.446  0.00  0.00    +0.000 HD
ENDBRANCH  20  24
ENDBRANCH  15  16
ENDBRANCH   2  15
TORSDOF 6
ENDMDL
MODEL 7
REMARK VINA RESULT:    -6.455      2.901      4.711
REMARK INTER + INTRA:          -9.468
REMARK INTER:                  -8.722
REMARK INTRA:                  -0.746
REMARK UNBOUND:                -0.749
REMARK  Name = 
REMARK  7 active torsions:
REMARK  status: ('A' for Active; 'I' for Inactive)
REMARK    1  A    between atoms: C_1  and  C_2
REMARK    2  A    between atoms: C_2  and  C_3
REMARK    3  A    between atoms: C_2  and  C_14
REMARK    4  A    between atoms: C_3  and  N_4
REMARK    5  A    between atoms: C_8  and  C_9
REMARK    6  A    between atoms: C_19  and  C_20
REMARK    7  A    between atoms: C_20  and  C_21
REMARK                            x       y       z     vdW  Elec       q    Type
REMARK                         _______ _______ _______ _____ _____    ______ ____
ROOT
ATOM      1  C   UNL     1      49.408   7.393  12.546  0.00  0.00    +0.000 C 
ATOM      2  C   UNL     1      48.574   8.400  13.353  0.00  0.00    +0.000 C 
ENDROOT
BRANCH   2   3
ATOM      3  C   UNL     1      48.616   8.037  14.843  0.00  0.00    +0.000 A 
ATOM      4  C   UNL     1      48.254   8.978  15.821  0.00  0.00    +0.000 A 
ATOM      5  C   UNL     1      48.292   8.647  17.175  0.00  0.00    +0.000 A 
ATOM      6 CL   UNL     1      47.858   9.825  18.352  0.00  0.00    +0.000 Cl
ATOM      7  C   UNL     1      48.691   7.377  17.586  0.00  0.00    +0.000 A 
ATOM      8  C   UNL     1      49.061   6.410  16.639  0.00  0.00    +0.000 A 
ATOM      9  C   UNL     1      49.013   6.750  15.271  0.00  0.00    +0.000 A 
BRANCH   8  10
ATOM     10  C   UNL     1      49.550   5.056  17.114  0.00  0.00    +0.000 C 
BRANCH  10  11
ATOM     11  C   UNL     1      48.594   3.931  16.747  0.00  0.00    +0.000 C 
ATOM     12  C   UNL     1      47.128   4.229  16.387  0.00  0.00    +0.000 C 
ATOM     13  O   UNL     1      46.654   3.262  17.357  0.00  0.00    +0.000 OA
ATOM     14  C   UNL     1      47.972   3.192  17.950  0.00  0.00    +0.000 C 
ENDBRANCH  10  11
ENDBRANCH   8  10
ENDBRANCH   2   3
BRANCH   2  15
ATOM     15  C   UNL     1      47.116   8.487  12.821  0.00  0.00    +0.000 C 
BRANCH  15  16
ATOM     16  N   UNL     1      46.228   7.482  13.439  0.00  0.00    +0.000 N 
ATOM     17  C   UNL     1      45.761   6.506  12.533  0.00  0.00    +0.000 A 
ATOM     18  C   UNL     1      44.884   5.523  12.988  0.00  0.00    +0.000 A 
ATOM     19  C   UNL     1      44.394   4.567  12.092  0.00  0.00    +0.000 A 
ATOM     20  C   UNL     1      44.792   4.602  10.754  0.00  0.00    +0.000 A 
ATOM     21  C   UNL     1      45.686   5.595  10.396  0.00  0.00    +0.000 A 
ATOM     22  N   UNL     1      46.175   6.533  11.247  0.00  0.00    +0.000 NA
ATOM     23  H   UNL     1      45.408   7.902  13.869  0.00  0.00    +0.000 HD
BRANCH  20  24
ATOM     24  C   UNL     1      44.246   3.607   9.797  0.00  0.00    +0.000 C 
ATOM     25  N   UNL     1      44.208   3.915   8.466  0.00  0.00    +0.000 N 
ATOM     26  O   UNL     1      43.822   2.524  10.185  0.00  0.00    +0.000 OA
ATOM     27  H   UNL     1      44.521   4.775   8.042  0.00  0.00    +0.000 HD
ATOM     28  H   UNL     1      43.815   3.214   7.849  0.00  0.00    +0.000 HD
ENDBRANCH  20  24
ENDBRANCH  15  16
ENDBRANCH   2  15
TORSDOF 6
ENDMDL
MODEL 8
REMARK VINA RESULT:    -6.417      4.104      6.520
REMARK INTER + INTRA:          -9.416
REMARK INTER:                  -8.799
REMARK INTRA:                  -0.617
REMARK UNBOUND:                -0.749
REMARK  Name = 
REMARK  7 active torsions:
REMARK  status: ('A' for Active; 'I' for Inactive)
REMARK    1  A    between atoms: C_1  and  C_2
REMARK    2  A    between atoms: C_2  and  C_3
REMARK    3  A    between atoms: C_2  and  C_14
REMARK    4  A    between atoms: C_3  and  N_4
REMARK    5  A    between atoms: C_8  and  C_9
REMARK    6  A    between atoms: C_19  and  C_20
REMARK    7  A    between atoms: C_20  and  C_21
REMARK                            x       y       z     vdW  Elec       q    Type
REMARK                         _______ _______ _______ _____ _____    ______ ____
ROOT
ATOM      1  C   UNL     1      47.496   5.093  17.982  0.00  0.00    +0.000 C 
ATOM      2  C   UNL     1      47.968   3.755  17.392  0.00  0.00    +0.000 C 
ENDROOT
BRANCH   2   3
ATOM      3  C   UNL     1      49.496   3.651  17.493  0.00  0.00    +0.000 A 
ATOM      4  C   UNL     1      50.288   4.808  17.578  0.00  0.00    +0.000 A 
ATOM      5  C   UNL     1      51.676   4.713  17.670  0.00  0.00    +0.000 A 
ATOM      6 CL   UNL     1      52.624   6.148  17.757  0.00  0.00    +0.000 Cl
ATOM      7  C   UNL     1      52.306   3.470  17.680  0.00  0.00    +0.000 A 
ATOM      8  C   UNL     1      51.548   2.293  17.596  0.00  0.00    +0.000 A 
ATOM      9  C   UNL     1      50.144   2.396  17.511  0.00  0.00    +0.000 A 
BRANCH   8  10
ATOM     10  C   UNL     1      52.261   0.955  17.547  0.00  0.00    +0.000 C 
BRANCH  10  11
ATOM     11  C   UNL     1      53.770   1.095  17.685  0.00  0.00    +0.000 C 
ATOM     12  C   UNL     1      54.713   0.548  16.599  0.00  0.00    +0.000 C 
ATOM     13  O   UNL     1      55.477  -0.193  17.582  0.00  0.00    +0.000 OA
ATOM     14  C   UNL     1      54.440   0.023  18.569  0.00  0.00    +0.000 C 
ENDBRANCH  10  11
ENDBRANCH   8  10
ENDBRANCH   2   3
BRANCH   2  15
ATOM     15  C   UNL     1      47.472   3.571  15.931  0.00  0.00    +0.000 C 
BRANCH  15  16
ATOM     16  N   UNL     1      47.293   4.857  15.228  0.00  0.00    +0.000 N 
ATOM     17  C   UNL     1      46.583   4.744  14.014  0.00  0.00    +0.000 A 
ATOM     18  C   UNL     1      46.381   5.884  13.238  0.00  0.00    +0.000 A 
ATOM     19  C   UNL     1      45.703   5.778  12.019  0.00  0.00    +0.000 A 
ATOM     20  C   UNL     1      45.229   4.535  11.594  0.00  0.00    +0.000 A 
ATOM     21  C   UNL     1      45.449   3.463  12.440  0.00  0.00    +0.000 A 
ATOM     22  N   UNL     1      46.105   3.541  13.626  0.00  0.00    +0.000 NA
ATOM     23  H   UNL     1      48.178   5.306  15.012  0.00  0.00    +0.000 HD
BRANCH  20  24
ATOM     24  C   UNL     1      44.538   4.418  10.286  0.00  0.00    +0.000 C 
ATOM     25  N   UNL     1      45.129   4.946   9.172  0.00  0.00    +0.000 N 
ATOM     26  O   UNL     1      43.446   3.868  10.194  0.00  0.00    +0.000 OA
ATOM     27  H   UNL     1      46.016   5.424   9.135  0.00  0.00    +0.000 HD
ATOM     28  H   UNL     1      44.618   4.857   8.302  0.00  0.00    +0.000 HD
ENDBRANCH  20  24
ENDBRANCH  15  16
ENDBRANCH   2  15
TORSDOF 6
ENDMDL
MODEL 9
REMARK VINA RESULT:    -6.384      3.259      5.161
REMARK INTER + INTRA:          -9.372
REMARK INTER:                  -8.920
REMARK INTRA:                  -0.452
REMARK UNBOUND:                -0.749
REMARK  Name = 
REMARK  7 active torsions:
REMARK  status: ('A' for Active; 'I' for Inactive)
REMARK    1  A    between atoms: C_1  and  C_2
REMARK    2  A    between atoms: C_2  and  C_3
REMARK    3  A    between atoms: C_2  and  C_14
REMARK    4  A    between atoms: C_3  and  N_4
REMARK    5  A    between atoms: C_8  and  C_9
REMARK    6  A    between atoms: C_19  and  C_20
REMARK    7  A    between atoms: C_20  and  C_21
REMARK                            x       y       z     vdW  Elec       q    Type
REMARK                         _______ _______ _______ _____ _____    ______ ____
ROOT
ATOM      1  C   UNL     1      49.923   7.432  13.029  0.00  0.00    +0.000 C 
ATOM      2  C   UNL     1      49.081   7.620  14.301  0.00  0.00    +0.000 C 
ENDROOT
BRANCH   2   3
ATOM      3  C   UNL     1      49.719   6.853  15.467  0.00  0.00    +0.000 A 
ATOM      4  C   UNL     1      51.095   6.963  15.728  0.00  0.00    +0.000 A 
ATOM      5  C   UNL     1      51.674   6.266  16.789  0.00  0.00    +0.000 A 
ATOM      6 CL   UNL     1      53.366   6.408  17.077  0.00  0.00    +0.000 Cl
ATOM      7  C   UNL     1      50.902   5.447  17.609  0.00  0.00    +0.000 A 
ATOM      8  C   UNL     1      49.525   5.311  17.378  0.00  0.00    +0.000 A 
ATOM      9  C   UNL     1      48.944   6.025  16.309  0.00  0.00    +0.000 A 
BRANCH   8  10
ATOM     10  C   UNL     1      48.718   4.366  18.246  0.00  0.00    +0.000 C 
BRANCH  10  11
ATOM     11  C   UNL     1      48.838   2.917  17.797  0.00  0.00    +0.000 C 
ATOM     12  C   UNL     1      50.155   2.383  17.205  0.00  0.00    +0.000 C 
ATOM     13  O   UNL     1      49.466   1.870  16.039  0.00  0.00    +0.000 OA
ATOM     14  C   UNL     1      48.284   2.630  16.386  0.00  0.00    +0.000 C 
ENDBRANCH  10  11
ENDBRANCH   8  10
ENDBRANCH   2   3
BRANCH   2  15
ATOM     15  C   UNL     1      47.603   7.198  14.072  0.00  0.00    +0.000 C 
BRANCH  15  16
ATOM     16  N   UNL     1      47.202   7.288  12.654  0.00  0.00    +0.000 N 
ATOM     17  C   UNL     1      46.402   6.209  12.222  0.00  0.00    +0.000 A 
ATOM     18  C   UNL     1      45.989   6.159  10.892  0.00  0.00    +0.000 A 
ATOM     19  C   UNL     1      45.218   5.080  10.448  0.00  0.00    +0.000 A 
ATOM     20  C   UNL     1      44.863   4.067  11.341  0.00  0.00    +0.000 A 
ATOM     21  C   UNL     1      45.292   4.211  12.648  0.00  0.00    +0.000 A 
ATOM     22  N   UNL     1      46.040   5.248  13.103  0.00  0.00    +0.000 NA
ATOM     23  H   UNL     1      48.002   7.331  12.028  0.00  0.00    +0.000 HD
BRANCH  20  24
ATOM     24  C   UNL     1      44.073   2.906  10.861  0.00  0.00    +0.000 C 
ATOM     25  N   UNL     1      44.561   2.148   9.833  0.00  0.00    +0.000 N 
ATOM     26  O   UNL     1      42.990   2.626  11.364  0.00  0.00    +0.000 OA
ATOM     27  H   UNL     1      45.431   2.292   9.344  0.00  0.00    +0.000 HD
ATOM     28  H   UNL     1      43.984   1.374   9.527  0.00  0.00    +0.000 HD
ENDBRANCH  20  24
ENDBRANCH  15  16
ENDBRANCH   2  15
TORSDOF 6
ENDMDL
