MODEL 1
REMARK VINA RESULT:    -8.743      0.000      0.000
REMARK INTER + INTRA:         -12.051
REMARK INTER:                 -11.298
REMARK INTRA:                  -0.752
REMARK UNBOUND:                -0.752
REMARK  Name = 
REMARK  5 active torsions:
REMARK  status: ('A' for Active; 'I' for Inactive)
REMARK    1  A    between atoms: C_2  and  C_4
REMARK    2  A    between atoms: C_7  and  N_8
REMARK    3  A    between atoms: N_8  and  C_9
REMARK    4  A    between atoms: C_9  and  C_10
REMARK    5  A    between atoms: C_14  and  C_15
REMARK                            x       y       z     vdW  Elec       q    Type
REMARK                         _______ _______ _______ _____ _____    ______ ____
ROOT
ATOM      1  C   UNL     1      43.602   4.435  11.237  0.00  0.00    +0.000 C 
ENDROOT
BRANCH   1   2
ATOM      2  C   UNL     1      44.878   4.789  11.966  0.00  0.00    +0.000 A 
ATOM      3  C   UNL     1      45.496   3.890  12.838  0.00  0.00    +0.000 A 
ATOM      4  C   UNL     1      46.664   4.261  13.503  0.00  0.00    +0.000 A 
ATOM      5  C   UNL     1      47.222   5.527  13.299  0.00  0.00    +0.000 A 
ATOM      6  C   UNL     1      46.636   6.458  12.423  0.00  0.00    +0.000 A 
ATOM      7  C   UNL     1      45.451   6.063  11.780  0.00  0.00    +0.000 A 
BRANCH   6   8
ATOM      8  C   UNL     1      47.249   7.781  12.162  0.00  0.00    +0.000 A 
ATOM      9  C   UNL     1      48.618   7.920  11.854  0.00  0.00    +0.000 A 
ATOM     10  C   UNL     1      49.200   9.174  11.637  0.00  0.00    +0.000 A 
ATOM     11  C   UNL     1      48.421  10.323  11.712  0.00  0.00    +0.000 A 
ATOM     12  C   UNL     1      47.073  10.205  12.009  0.00  0.00    +0.000 A 
ATOM     13  F   UNL     1      46.315  11.308  12.087  0.00  0.00    +0.000 F 
ATOM     14  C   UNL     1      46.489   8.962  12.237  0.00  0.00    +0.000 A 
ENDBRANCH   6   8
ENDBRANCH   1   2
BRANCH   1  15
ATOM     15  N   UNL     1      43.765   4.804   9.836  0.00  0.00    +0.000 N 
ATOM     16  H   UNL     1      43.961   5.791   9.716  0.00  0.00    +0.000 HD
BRANCH  15  20
ATOM     17  C   UNL     1      46.335   2.333   7.817  0.00  0.00    +0.000 A 
ATOM     18  C   UNL     1      46.338   3.697   7.583  0.00  0.00    +0.000 A 
ATOM     19  N   UNL     1      45.472   4.545   8.197  0.00  0.00    +0.000 NA
ATOM     20  C   UNL     1      44.596   3.995   9.064  0.00  0.00    +0.000 A 
ATOM     21  C   UNL     1      44.606   2.609   9.281  0.00  0.00    +0.000 A 
ATOM     22  N   UNL     1      45.454   1.741   8.668  0.00  0.00    +0.000 NA
BRANCH  17  24
ATOM     23  N   UNL     1      48.375   2.117   6.535  0.00  0.00    +0.000 N 
ATOM     24  C   UNL     1      47.341   1.465   7.149  0.00  0.00    +0.000 C 
ATOM     25  O   UNL     1      47.251   0.244   7.143  0.00  0.00    +0.000 OA
ATOM     26  H   UNL     1      49.084   1.583   6.054  0.00  0.00    +0.000 HD
ATOM     27  H   UNL     1      48.418   3.130   6.552  0.00  0.00    +0.000 HD
ENDBRANCH  17  24
ENDBRANCH  15  20
ENDBRANCH   1  15
TORSDOF 5
ENDMDL
MODEL 2
REMARK VINA RESULT:    -8.686      2.804      4.118
REMARK INTER + INTRA:         -11.977
REMARK INTER:                 -11.362
REMARK INTRA:                  -0.615
REMARK UNBOUND:                -0.752
REMARK  Name = 
REMARK  5 active torsions:
REMARK  status: ('A' for Active; 'I' for Inactive)
REMARK    1  A    between atoms: C_2  and  C_4
REMARK    2  A    between atoms: C_7  and  N_8
REMARK    3  A    between atoms: N_8  and  C_9
REMARK    4  A    between atoms: C_9  and  C_10
REMARK    5  A    between atoms: C_14  and  C_15
REMARK                            x       y       z     vdW  Elec       q    Type
REMARK                         _______ _______ _______ _____ _____    ______ ____
ROOT
ATOM      1  C   UNL     1      44.249   4.664  11.427  0.00  0.00    +0.000 C 
ENDROOT
BRANCH   1   2
ATOM      2  C   UNL     1      45.470   5.334  12.017  0.00  0.00    +0.000 A 
ATOM      3  C   UNL     1      46.145   6.352  11.341  0.00  0.00    +0.000 A 
ATOM      4  C   UNL     1      47.275   6.933  11.914  0.00  0.00    +0.000 A 
ATOM      5  C   UNL     1      47.735   6.505  13.164  0.00  0.00    +0.000 A 
ATOM      6  C   UNL     1      47.078   5.490  13.881  0.00  0.00    +0.000 A 
ATOM      7  C   UNL     1      45.951   4.910  13.272  0.00  0.00    +0.000 A 
BRANCH   6   8
ATOM      8  C   UNL     1      47.526   5.066  15.228  0.00  0.00    +0.000 A 
ATOM      9  C   UNL     1      48.513   5.778  15.942  0.00  0.00    +0.000 A 
ATOM     10  C   UNL     1      48.956   5.358  17.202  0.00  0.00    +0.000 A 
ATOM     11  C   UNL     1      48.414   4.219  17.785  0.00  0.00    +0.000 A 
ATOM     12  C   UNL     1      47.440   3.510  17.099  0.00  0.00    +0.000 A 
ATOM     13  F   UNL     1      46.912   2.408  17.652  0.00  0.00    +0.000 F 
ATOM     14  C   UNL     1      47.001   3.916  15.841  0.00  0.00    +0.000 A 
ENDBRANCH   6   8
ENDBRANCH   1   2
BRANCH   1  15
ATOM     15  N   UNL     1      44.210   4.968  10.003  0.00  0.00    +0.000 N 
ATOM     16  H   UNL     1      44.389   5.948   9.811  0.00  0.00    +0.000 HD
BRANCH  15  20
ATOM     17  C   UNL     1      46.444   2.370   7.756  0.00  0.00    +0.000 A 
ATOM     18  C   UNL     1      46.500   3.734   7.521  0.00  0.00    +0.000 A 
ATOM     19  N   UNL     1      45.742   4.624   8.212  0.00  0.00    +0.000 NA
ATOM     20  C   UNL     1      44.921   4.119   9.158  0.00  0.00    +0.000 A 
ATOM     21  C   UNL     1      44.875   2.733   9.374  0.00  0.00    +0.000 A 
ATOM     22  N   UNL     1      45.615   1.823   8.685  0.00  0.00    +0.000 NA
BRANCH  17  24
ATOM     23  N   UNL     1      48.403   2.039   6.376  0.00  0.00    +0.000 N 
ATOM     24  C   UNL     1      47.335   1.452   6.998  0.00  0.00    +0.000 C 
ATOM     25  O   UNL     1      47.126   0.247   6.929  0.00  0.00    +0.000 OA
ATOM     26  H   UNL     1      49.038   1.469   5.837  0.00  0.00    +0.000 HD
ATOM     27  H   UNL     1      48.545   3.040   6.447  0.00  0.00    +0.000 HD
ENDBRANCH  17  24
ENDBRANCH  15  20
ENDBRANCH   1  15
TORSDOF 5
ENDMDL
MODEL 3
REMARK VINA RESULT:    -8.378      4.550      7.433
REMARK INTER + INTRA:         -11.579
REMARK INTER:                 -11.124
REMARK INTRA:                  -0.455
REMARK UNBOUND:                -0.752
REMARK  Name = 
REMARK  5 active torsions:
REMARK  status: ('A' for Active; 'I' for Inactive)
REMARK    1  A    between atoms: C_2  and  C_4
REMARK    2  A    between atoms: C_7  and  N_8
REMARK    3  A    between atoms: N_8  and  C_9
REMARK    4  A    between atoms: C_9  and  C_10
REMARK    5  A    between atoms: C_14  and  C_15
REMARK                            x       y       z     vdW  Elec       q    Type
REMARK                         _______ _______ _______ _____ _____    ______ ____
ROOT
ATOM      1  C   UNL     1      46.200   7.125  12.038  0.00  0.00    +0.000 C 
ENDROOT
BRANCH   1   2
ATOM      2  C   UNL     1      45.317   6.148  11.295  0.00  0.00    +0.000 A 
ATOM      3  C   UNL     1      43.945   6.065  11.543  0.00  0.00    +0.000 A 
ATOM      4  C   UNL     1      43.170   5.141  10.846  0.00  0.00    +0.000 A 
ATOM      5  C   UNL     1      43.756   4.297   9.898  0.00  0.00    +0.000 A 
ATOM      6  C   UNL     1      45.132   4.355   9.612  0.00  0.00    +0.000 A 
ATOM      7  C   UNL     1      45.892   5.285  10.341  0.00  0.00    +0.000 A 
BRANCH   6   8
ATOM      8  C   UNL     1      45.753   3.501   8.572  0.00  0.00    +0.000 A 
ATOM      9  C   UNL     1      46.274   4.043   7.379  0.00  0.00    +0.000 A 
ATOM     10  C   UNL     1      46.834   3.232   6.384  0.00  0.00    +0.000 A 
ATOM     11  C   UNL     1      46.894   1.855   6.565  0.00  0.00    +0.000 A 
ATOM     12  C   UNL     1      46.389   1.306   7.733  0.00  0.00    +0.000 A 
ATOM     13  F   UNL     1      46.440  -0.022   7.915  0.00  0.00    +0.000 F 
ATOM     14  C   UNL     1      45.822   2.106   8.722  0.00  0.00    +0.000 A 
ENDBRANCH   6   8
ENDBRANCH   1   2
BRANCH   1  15
ATOM     15  N   UNL     1      47.460   6.459  12.337  0.00  0.00    +0.000 N 
ATOM     16  H   UNL     1      48.263   7.057  12.173  0.00  0.00    +0.000 HD
BRANCH  15  20
ATOM     17  C   UNL     1      47.405   4.493  15.932  0.00  0.00    +0.000 A 
ATOM     18  C   UNL     1      48.197   5.615  15.753  0.00  0.00    +0.000 A 
ATOM     19  N   UNL     1      48.279   6.268  14.565  0.00  0.00    +0.000 NA
ATOM     20  C   UNL     1      47.540   5.775  13.549  0.00  0.00    +0.000 A 
ATOM     21  C   UNL     1      46.751   4.633  13.750  0.00  0.00    +0.000 A 
ATOM     22  N   UNL     1      46.665   3.956  14.926  0.00  0.00    +0.000 NA
BRANCH  17  24
ATOM     23  N   UNL     1      48.114   4.400  18.243  0.00  0.00    +0.000 N 
ATOM     24  C   UNL     1      47.323   3.853  17.272  0.00  0.00    +0.000 C 
ATOM     25  O   UNL     1      46.595   2.892  17.493  0.00  0.00    +0.000 OA
ATOM     26  H   UNL     1      48.110   4.002  19.170  0.00  0.00    +0.000 HD
ATOM     27  H   UNL     1      48.711   5.191  18.026  0.00  0.00    +0.000 HD
ENDBRANCH  17  24
ENDBRANCH  15  20
ENDBRANCH   1  15
TORSDOF 5
ENDMDL
MODEL 4
REMARK VINA RESULT:    -8.233      4.457      7.207
REMARK INTER + INTRA:         -11.391
REMARK INTER:                 -10.729
REMARK INTRA:                  -0.663
REMARK UNBOUND:                -0.752
REMARK  Name = 
REMARK  5 active torsions:
REMARK  status: ('A' for Active; 'I' for Inactive)
REMARK    1  A    between atoms: C_2  and  C_4
REMARK    2  A    between atoms: C_7  and  N_8
REMARK    3  A    between atoms: N_8  and  C_9
REMARK    4  A    between atoms: C_9  and  C_10
REMARK    5  A    between atoms: C_14  and  C_15
REMARK                            x       y       z     vdW  Elec       q    Type
REMARK                         _______ _______ _______ _____ _____    ______ ____
ROOT
ATOM      1  C   UNL     1      44.058   6.740  11.250  0.00  0.00    +0.000 C 
ENDROOT
BRANCH   1   2
ATOM      2  C   UNL     1      44.037   5.248  11.002  0.00  0.00    +0.000 A 
ATOM      3  C   UNL     1      43.257   4.388  11.778  0.00  0.00    +0.000 A 
ATOM      4  C   UNL     1      43.278   3.018  11.525  0.00  0.00    +0.000 A 
ATOM      5  C   UNL     1      44.073   2.499  10.498  0.00  0.00    +0.000 A 
ATOM      6  C   UNL     1      44.865   3.332   9.688  0.00  0.00    +0.000 A 
ATOM      7  C   UNL     1      44.838   4.708   9.976  0.00  0.00    +0.000 A 
BRANCH   6   8
ATOM      8  C   UNL     1      45.670   2.798   8.564  0.00  0.00    +0.000 A 
ATOM      9  C   UNL     1      46.139   3.628   7.525  0.00  0.00    +0.000 A 
ATOM     10  C   UNL     1      46.874   3.115   6.449  0.00  0.00    +0.000 A 
ATOM     11  C   UNL     1      47.166   1.757   6.392  0.00  0.00    +0.000 A 
ATOM     12  C   UNL     1      46.716   0.928   7.407  0.00  0.00    +0.000 A 
ATOM     13  F   UNL     1      46.990  -0.383   7.360  0.00  0.00    +0.000 F 
ATOM     14  C   UNL     1      45.976   1.429   8.476  0.00  0.00    +0.000 A 
ENDBRANCH   6   8
ENDBRANCH   1   2
BRANCH   1  15
ATOM     15  N   UNL     1      44.387   6.961  12.652  0.00  0.00    +0.000 N 
ATOM     16  H   UNL     1      43.865   6.352  13.273  0.00  0.00    +0.000 HD
BRANCH  15  20
ATOM     17  C   UNL     1      48.296   7.037  13.877  0.00  0.00    +0.000 A 
ATOM     18  C   UNL     1      47.644   8.207  13.526  0.00  0.00    +0.000 A 
ATOM     19  N   UNL     1      46.364   8.220  13.071  0.00  0.00    +0.000 NA
ATOM     20  C   UNL     1      45.740   7.027  12.979  0.00  0.00    +0.000 A 
ATOM     21  C   UNL     1      46.422   5.853  13.333  0.00  0.00    +0.000 A 
ATOM     22  N   UNL     1      47.706   5.815  13.777  0.00  0.00    +0.000 NA
BRANCH  17  24
ATOM     23  N   UNL     1      50.594   7.751  13.634  0.00  0.00    +0.000 N 
ATOM     24  C   UNL     1      49.682   7.095  14.413  0.00  0.00    +0.000 C 
ATOM     25  O   UNL     1      49.990   6.585  15.483  0.00  0.00    +0.000 OA
ATOM     26  H   UNL     1      51.554   7.815  13.940  0.00  0.00    +0.000 HD
ATOM     27  H   UNL     1      50.309   8.158  12.750  0.00  0.00    +0.000 HD
ENDBRANCH  17  24
ENDBRANCH  15  20
ENDBRANCH   1  15
TORSDOF 5
ENDMDL
MODEL 5
REMARK VINA RESULT:    -7.734      1.836      2.548
REMARK INTER + INTRA:         -10.747
REMARK INTER:                 -10.050
REMARK INTRA:                  -0.698
REMARK UNBOUND:                -0.752
REMARK  Name = 
REMARK  5 active torsions:
REMARK  status: ('A' for Active; 'I' for Inactive)
REMARK    1  A    between atoms: C_2  and  C_4
REMARK    2  A    between atoms: C_7  and  N_8
REMARK    3  A    between atoms: N_8  and  C_9
REMARK    4  A    between atoms: C_9  and  C_10
REMARK    5  A    between atoms: C_14  and  C_15
REMARK                            x       y       z     vdW  Elec       q    Type
REMARK                         _______ _______ _______ _____ _____    ______ ____
ROOT
ATOM      1  C   UNL     1      44.400   3.320  11.666  0.00  0.00    +0.000 C 
ENDROOT
BRANCH   1   2
ATOM      2  C   UNL     1      44.680   4.804  11.733  0.00  0.00    +0.000 A 
ATOM      3  C   UNL     1      43.686   5.750  11.475  0.00  0.00    +0.000 A 
ATOM      4  C   UNL     1      43.991   7.108  11.533  0.00  0.00    +0.000 A 
ATOM      5  C   UNL     1      45.286   7.530  11.853  0.00  0.00    +0.000 A 
ATOM      6  C   UNL     1      46.313   6.610  12.129  0.00  0.00    +0.000 A 
ATOM      7  C   UNL     1      45.981   5.247  12.046  0.00  0.00    +0.000 A 
BRANCH   6   8
ATOM      8  C   UNL     1      47.674   7.048  12.519  0.00  0.00    +0.000 A 
ATOM      9  C   UNL     1      48.167   6.867  13.828  0.00  0.00    +0.000 A 
ATOM     10  C   UNL     1      49.442   7.308  14.201  0.00  0.00    +0.000 A 
ATOM     11  C   UNL     1      50.260   7.934  13.269  0.00  0.00    +0.000 A 
ATOM     12  C   UNL     1      49.793   8.117  11.977  0.00  0.00    +0.000 A 
ATOM     13  F   UNL     1      50.575   8.722  11.071  0.00  0.00    +0.000 F 
ATOM     14  C   UNL     1      48.522   7.689  11.600  0.00  0.00    +0.000 A 
ENDBRANCH   6   8
ENDBRANCH   1   2
BRANCH   1  15
ATOM     15  N   UNL     1      43.929   3.009  10.322  0.00  0.00    +0.000 N 
ATOM     16  H   UNL     1      43.136   3.578  10.049  0.00  0.00    +0.000 HD
BRANCH  15  20
ATOM     17  C   UNL     1      46.554   2.802   7.183  0.00  0.00    +0.000 A 
ATOM     18  C   UNL     1      46.361   1.711   8.014  0.00  0.00    +0.000 A 
ATOM     19  N   UNL     1      45.535   1.753   9.092  0.00  0.00    +0.000 NA
ATOM     20  C   UNL     1      44.895   2.919   9.321  0.00  0.00    +0.000 A 
ATOM     21  C   UNL     1      45.111   4.013   8.471  0.00  0.00    +0.000 A 
ATOM     22  N   UNL     1      45.943   3.998   7.396  0.00  0.00    +0.000 NA
BRANCH  17  24
ATOM     23  N   UNL     1      48.732   2.323   6.244  0.00  0.00    +0.000 N 
ATOM     24  C   UNL     1      47.435   2.676   5.991  0.00  0.00    +0.000 C 
ATOM     25  O   UNL     1      47.029   2.881   4.854  0.00  0.00    +0.000 OA
ATOM     26  H   UNL     1      49.381   2.232   5.477  0.00  0.00    +0.000 HD
ATOM     27  H   UNL     1      49.039   2.167   7.198  0.00  0.00    +0.000 HD
ENDBRANCH  17  24
ENDBRANCH  15  20
ENDBRANCH   1  15
TORSDOF 5
ENDMDL
MODEL 6
REMARK VINA RESULT:    -7.451      5.491      8.086
REMARK INTER + INTRA:         -10.381
REMARK INTER:                  -9.792
REMARK INTRA:                  -0.589
REMARK UNBOUND:                -0.752
REMARK  Name = 
REMARK  5 active torsions:
REMARK  status: ('A' for Active; 'I' for Inactive)
REMARK    1  A    between atoms: C_2  and  C_4
REMARK    2  A    between atoms: C_7  and  N_8
REMARK    3  A    between atoms: N_8  and  C_9
REMARK    4  A    between atoms: C_9  and  C_10
REMARK    5  A    between atoms: C_14  and  C_15
REMARK                            x       y       z     vdW  Elec       q    Type
REMARK                         _______ _______ _______ _____ _____    ______ ____
ROOT
ATOM      1  C   UNL     1      45.936   5.496  13.792  0.00  0.00    +0.000 C 
ENDROOT
BRANCH   1   2
ATOM      2  C   UNL     1      45.040   5.145  12.626  0.00  0.00    +0.000 A 
ATOM      3  C   UNL     1      43.676   5.444  12.636  0.00  0.00    +0.000 A 
ATOM      4  C   UNL     1      42.882   5.090  11.546  0.00  0.00    +0.000 A 
ATOM      5  C   UNL     1      43.443   4.439  10.442  0.00  0.00    +0.000 A 
ATOM      6  C   UNL     1      44.813   4.129  10.390  0.00  0.00    +0.000 A 
ATOM      7  C   UNL     1      45.587   4.483  11.509  0.00  0.00    +0.000 A 
BRANCH   6   8
ATOM      8  C   UNL     1      45.427   3.488   9.203  0.00  0.00    +0.000 A 
ATOM      9  C   UNL     1      45.832   4.236   8.079  0.00  0.00    +0.000 A 
ATOM     10  C   UNL     1      46.384   3.625   6.947  0.00  0.00    +0.000 A 
ATOM     11  C   UNL     1      46.554   2.245   6.917  0.00  0.00    +0.000 A 
ATOM     12  C   UNL     1      46.165   1.495   8.016  0.00  0.00    +0.000 A 
ATOM     13  F   UNL     1      46.323   0.163   7.995  0.00  0.00    +0.000 F 
ATOM     14  C   UNL     1      45.606   2.095   9.141  0.00  0.00    +0.000 A 
ENDBRANCH   6   8
ENDBRANCH   1   2
BRANCH   1  15
ATOM     15  N   UNL     1      46.452   4.256  14.356  0.00  0.00    +0.000 N 
ATOM     16  H   UNL     1      46.722   3.588  13.641  0.00  0.00    +0.000 HD
BRANCH  15  20
ATOM     17  C   UNL     1      49.029   4.566  17.526  0.00  0.00    +0.000 A 
ATOM     18  C   UNL     1      48.921   5.591  16.601  0.00  0.00    +0.000 A 
ATOM     19  N   UNL     1      48.114   5.509  15.512  0.00  0.00    +0.000 NA
ATOM     20  C   UNL     1      47.404   4.370  15.367  0.00  0.00    +0.000 A 
ATOM     21  C   UNL     1      47.533   3.342  16.312  0.00  0.00    +0.000 A 
ATOM     22  N   UNL     1      48.345   3.397  17.402  0.00  0.00    +0.000 NA
BRANCH  17  24
ATOM     23  N   UNL     1      50.933   3.856  18.838  0.00  0.00    +0.000 N 
ATOM     24  C   UNL     1      49.895   4.738  18.723  0.00  0.00    +0.000 C 
ATOM     25  O   UNL     1      49.691   5.612  19.557  0.00  0.00    +0.000 OA
ATOM     26  H   UNL     1      51.550   3.916  19.635  0.00  0.00    +0.000 HD
ATOM     27  H   UNL     1      51.072   3.140  18.134  0.00  0.00    +0.000 HD
ENDBRANCH  17  24
ENDBRANCH  15  20
ENDBRANCH   1  15
TORSDOF 5
ENDMDL
MODEL 7
REMARK VINA RESULT:    -6.994      5.648      7.917
REMARK INTER + INTRA:          -9.791
REMARK INTER:                  -9.035
REMARK INTRA:                  -0.756
REMARK UNBOUND:                -0.752
REMARK  Name = 
REMARK  5 active torsions:
REMARK  status: ('A' for Active; 'I' for Inactive)
REMARK    1  A    between atoms: C_2  and  C_4
REMARK    2  A    between atoms: C_7  and  N_8
REMARK    3  A    between atoms: N_8  and  C_9
REMARK    4  A    between atoms: C_9  and  C_10
REMARK    5  A    between atoms: C_14  and  C_15
REMARK                            x       y       z     vdW  Elec       q    Type
REMARK                         _______ _______ _______ _____ _____    ______ ____
ROOT
ATOM      1  C   UNL     1      48.675   6.734  15.744  0.00  0.00    +0.000 C 
ENDROOT
BRANCH   1   2
ATOM      2  C   UNL     1      48.289   6.813  14.284  0.00  0.00    +0.000 A 
ATOM      3  C   UNL     1      48.950   7.666  13.397  0.00  0.00    +0.000 A 
ATOM      4  C   UNL     1      48.554   7.719  12.063  0.00  0.00    +0.000 A 
ATOM      5  C   UNL     1      47.499   6.922  11.605  0.00  0.00    +0.000 A 
ATOM      6  C   UNL     1      46.814   6.044  12.463  0.00  0.00    +0.000 A 
ATOM      7  C   UNL     1      47.224   6.023  13.807  0.00  0.00    +0.000 A 
BRANCH   6   8
ATOM      8  C   UNL     1      45.731   5.157  11.976  0.00  0.00    +0.000 A 
ATOM      9  C   UNL     1      45.114   4.207  12.815  0.00  0.00    +0.000 A 
ATOM     10  C   UNL     1      44.111   3.351  12.344  0.00  0.00    +0.000 A 
ATOM     11  C   UNL     1      43.695   3.432  11.020  0.00  0.00    +0.000 A 
ATOM     12  C   UNL     1      44.288   4.363  10.183  0.00  0.00    +0.000 A 
ATOM     13  F   UNL     1      43.894   4.447   8.904  0.00  0.00    +0.000 F 
ATOM     14  C   UNL     1      45.292   5.211  10.642  0.00  0.00    +0.000 A 
ENDBRANCH   6   8
ENDBRANCH   1   2
BRANCH   1  15
ATOM     15  N   UNL     1      48.073   5.532  16.306  0.00  0.00    +0.000 N 
ATOM     16  H   UNL     1      47.334   5.159  15.721  0.00  0.00    +0.000 HD
BRANCH  15  20
ATOM     17  C   UNL     1      50.836   2.733  17.455  0.00  0.00    +0.000 A 
ATOM     18  C   UNL     1      49.613   2.345  16.934  0.00  0.00    +0.000 A 
ATOM     19  N   UNL     1      48.652   3.239  16.585  0.00  0.00    +0.000 NA
ATOM     20  C   UNL     1      48.945   4.545  16.762  0.00  0.00    +0.000 A 
ATOM     21  C   UNL     1      50.188   4.915  17.297  0.00  0.00    +0.000 A 
ATOM     22  N   UNL     1      51.158   4.037  17.666  0.00  0.00    +0.000 NA
BRANCH  17  24
ATOM     23  N   UNL     1      51.389   0.448  18.027  0.00  0.00    +0.000 N 
ATOM     24  C   UNL     1      51.864   1.705  17.773  0.00  0.00    +0.000 C 
ATOM     25  O   UNL     1      53.060   1.967  17.809  0.00  0.00    +0.000 OA
ATOM     26  H   UNL     1      52.038  -0.290  18.259  0.00  0.00    +0.000 HD
ATOM     27  H   UNL     1      50.392   0.265  17.995  0.00  0.00    +0.000 HD
ENDBRANCH  17  24
ENDBRANCH  15  20
ENDBRANCH   1  15
TORSDOF 5
ENDMDL
MODEL 8
REMARK VINA RESULT:    -6.808      5.482      8.000
REMARK INTER + INTRA:          -9.551
REMARK INTER:                  -8.959
REMARK INTRA:                  -0.591
REMARK UNBOUND:                -0.752
REMARK  Name = 
REMARK  5 active torsions:
REMARK  status: ('A' for Active; 'I' for Inactive)
REMARK    1  A    between atoms: C_2  and  C_4
REMARK    2  A    between atoms: C_7  and  N_8
REMARK    3  A    between atoms: N_8  and  C_9
REMARK    4  A    between atoms: C_9  and  C_10
REMARK    5  A    between atoms: C_14  and  C_15
REMARK                            x       y       z     vdW  Elec       q    Type
REMARK                         _______ _______ _______ _____ _____    ______ ____
ROOT
ATOM      1  C   UNL     1      48.512   7.198  13.692  0.00  0.00    +0.000 C 
ENDROOT
BRANCH   1   2
ATOM      2  C   UNL     1      47.216   7.275  12.916  0.00  0.00    +0.000 A 
ATOM      3  C   UNL     1      46.394   8.402  12.974  0.00  0.00    +0.000 A 
ATOM      4  C   UNL     1      45.201   8.426  12.255  0.00  0.00    +0.000 A 
ATOM      5  C   UNL     1      44.822   7.329  11.473  0.00  0.00    +0.000 A 
ATOM      6  C   UNL     1      45.626   6.180  11.381  0.00  0.00    +0.000 A 
ATOM      7  C   UNL     1      46.816   6.176  12.130  0.00  0.00    +0.000 A 
BRANCH   6   8
ATOM      8  C   UNL     1      45.260   5.034  10.515  0.00  0.00    +0.000 A 
ATOM      9  C   UNL     1      44.518   3.940  11.004  0.00  0.00    +0.000 A 
ATOM     10  C   UNL     1      44.198   2.845  10.191  0.00  0.00    +0.000 A 
ATOM     11  C   UNL     1      44.607   2.825   8.863  0.00  0.00    +0.000 A 
ATOM     12  C   UNL     1      45.334   3.895   8.365  0.00  0.00    +0.000 A 
ATOM     13  F   UNL     1      45.736   3.882   7.086  0.00  0.00    +0.000 F 
ATOM     14  C   UNL     1      45.664   4.982   9.170  0.00  0.00    +0.000 A 
ENDBRANCH   6   8
ENDBRANCH   1   2
BRANCH   1  15
ATOM     15  N   UNL     1      48.193   7.248  15.112  0.00  0.00    +0.000 N 
ATOM     16  H   UNL     1      47.193   7.234  15.285  0.00  0.00    +0.000 HD
BRANCH  15  20
ATOM     17  C   UNL     1      50.420   4.622  17.332  0.00  0.00    +0.000 A 
ATOM     18  C   UNL     1      49.052   4.449  17.198  0.00  0.00    +0.000 A 
ATOM     19  N   UNL     1      48.271   5.322  16.510  0.00  0.00    +0.000 NA
ATOM     20  C   UNL     1      48.893   6.379  15.947  0.00  0.00    +0.000 A 
ATOM     21  C   UNL     1      50.278   6.538  16.102  0.00  0.00    +0.000 A 
ATOM     22  N   UNL     1      51.076   5.685  16.797  0.00  0.00    +0.000 NA
BRANCH  17  24
ATOM     23  N   UNL     1      51.605   3.941  19.329  0.00  0.00    +0.000 N 
ATOM     24  C   UNL     1      51.225   3.604  18.059  0.00  0.00    +0.000 C 
ATOM     25  O   UNL     1      51.534   2.532  17.553  0.00  0.00    +0.000 OA
ATOM     26  H   UNL     1      52.162   3.295  19.868  0.00  0.00    +0.000 HD
ATOM     27  H   UNL     1      51.339   4.839  19.717  0.00  0.00    +0.000 HD
ENDBRANCH  17  24
ENDBRANCH  15  20
ENDBRANCH   1  15
TORSDOF 5
ENDMDL
MODEL 9
REMARK VINA RESULT:    -6.443      5.994      7.824
REMARK INTER + INTRA:          -9.079
REMARK INTER:                  -8.472
REMARK INTRA:                  -0.607
REMARK UNBOUND:                -0.752
REMARK  Name = 
REMARK  5 active torsions:
REMARK  status: ('A' for Active; 'I' for Inactive)
REMARK    1  A    between atoms: C_2  and  C_4
REMARK    2  A    between atoms: C_7  and  N_8
REMARK    3  A    between atoms: N_8  and  C_9
REMARK    4  A    between atoms: C_9  and  C_10
REMARK    5  A    between atoms: C_14  and  C_15
REMARK                            x       y       z     vdW  Elec       q    Type
REMARK                         _______ _______ _______ _____ _____    ______ ____
ROOT
ATOM      1  C   UNL     1      47.106   4.050  16.243  0.00  0.00    +0.000 C 
ENDROOT
BRANCH   1   2
ATOM      2  C   UNL     1      48.257   4.346  17.178  0.00  0.00    +0.000 A 
ATOM      3  C   UNL     1      48.207   5.404  18.089  0.00  0.00    +0.000 A 
ATOM      4  C   UNL     1      49.296   5.651  18.923  0.00  0.00    +0.000 A 
ATOM      5  C   UNL     1      50.438   4.845  18.855  0.00  0.00    +0.000 A 
ATOM      6  C   UNL     1      50.524   3.766  17.959  0.00  0.00    +0.000 A 
ATOM      7  C   UNL     1      49.418   3.549  17.118  0.00  0.00    +0.000 A 
BRANCH   6   8
ATOM      8  C   UNL     1      51.707   2.875  17.916  0.00  0.00    +0.000 A 
ATOM      9  C   UNL     1      51.623   1.548  17.447  0.00  0.00    +0.000 A 
ATOM     10  C   UNL     1      52.736   0.699  17.435  0.00  0.00    +0.000 A 
ATOM     11  C   UNL     1      53.967   1.162  17.886  0.00  0.00    +0.000 A 
ATOM     12  C   UNL     1      54.068   2.465  18.348  0.00  0.00    +0.000 A 
ATOM     13  F   UNL     1      55.251   2.920  18.787  0.00  0.00    +0.000 F 
ATOM     14  C   UNL     1      52.963   3.312  18.371  0.00  0.00    +0.000 A 
ENDBRANCH   6   8
ENDBRANCH   1   2
BRANCH   1  15
ATOM     15  N   UNL     1      47.089   5.075  15.208  0.00  0.00    +0.000 N 
ATOM     16  H   UNL     1      47.990   5.528  15.096  0.00  0.00    +0.000 HD
BRANCH  15  20
ATOM     17  C   UNL     1      45.134   4.191  11.717  0.00  0.00    +0.000 A 
ATOM     18  C   UNL     1      45.645   3.181  12.515  0.00  0.00    +0.000 A 
ATOM     19  N   UNL     1      46.339   3.433  13.655  0.00  0.00    +0.000 NA
ATOM     20  C   UNL     1      46.509   4.730  13.989  0.00  0.00    +0.000 A 
ATOM     21  C   UNL     1      45.989   5.737  13.163  0.00  0.00    +0.000 A 
ATOM     22  N   UNL     1      45.303   5.508  12.011  0.00  0.00    +0.000 NA
BRANCH  17  24
ATOM     23  N   UNL     1      43.732   4.897   9.876  0.00  0.00    +0.000 N 
ATOM     24  C   UNL     1      44.342   3.848  10.506  0.00  0.00    +0.000 C 
ATOM     25  O   UNL     1      44.237   2.697  10.099  0.00  0.00    +0.000 OA
ATOM     26  H   UNL     1      43.172   4.725   9.055  0.00  0.00    +0.000 HD
ATOM     27  H   UNL     1      43.833   5.838  10.242  0.00  0.00    +0.000 HD
ENDBRANCH  17  24
ENDBRANCH  15  20
ENDBRANCH   1  15
TORSDOF 5
ENDMDL
