MODEL 1
REMARK VINA RESULT:    -7.432      0.000      0.000
REMARK INTER + INTRA:          -9.828
REMARK INTER:                  -9.170
REMARK INTRA:                  -0.658
REMARK UNBOUND:                -0.658
REMARK  Name = 
REMARK  4 active torsions:
REMARK  status: ('A' for Active; 'I' for Inactive)
REMARK    1  A    between atoms: C_2  and  C_3
REMARK    2  A    between atoms: C_7  and  C_8
REMARK    3  A    between atoms: C_8  and  N_9
REMARK    4  A    between atoms: C_10  and  C_12
REMARK                            x       y       z     vdW  Elec       q    Type
REMARK                         _______ _______ _______ _____ _____    ______ ____
ROOT
ATOM      1  N   UNL     1      46.032   5.596  10.622  0.00  0.00    +0.000 N 
ATOM      2  C   UNL     1      45.788   6.635  11.487  0.00  0.00    +0.000 C 
ATOM      3  O   UNL     1      44.823   7.384  11.363  0.00  0.00    +0.000 OA
ATOM      4  H   UNL     1      46.975   5.222  10.578  0.00  0.00    +0.000 HD
ENDROOT
BRANCH   2   5
ATOM      5  C   UNL     1      46.711   6.756  12.622  0.00  0.00    +0.000 A 
ATOM      6  C   UNL     1      47.526   7.875  12.745  0.00  0.00    +0.000 A 
ATOM      7  S   UNL     1      48.507   7.853  14.142  0.00  0.00    +0.000 S 
ATOM      8  C   UNL     1      47.907   6.329  14.606  0.00  0.00    +0.000 A 
ATOM      9  N   UNL     1      48.363   5.704  15.726  0.00  0.00    +0.000 NA
ATOM     10  C   UNL     1      47.837   4.544  15.941  0.00  0.00    +0.000 A 
ATOM     11  N   UNL     1      46.889   3.956  15.145  0.00  0.00    +0.000 N 
ATOM     12  C   UNL     1      46.369   4.565  14.028  0.00  0.00    +0.000 A 
ATOM     13  O   UNL     1      45.471   4.044  13.380  0.00  0.00    +0.000 OA
ATOM     14  C   UNL     1      46.951   5.859  13.725  0.00  0.00    +0.000 A 
ATOM     15  H   UNL     1      46.500   3.055  15.381  0.00  0.00    +0.000 HD
ENDBRANCH   2   5
BRANCH   1  16
ATOM     16  C   UNL     1      45.195   5.339   9.474  0.00  0.00    +0.000 C 
BRANCH  16  21
ATOM     17  C   UNL     1      46.517   2.301   7.571  0.00  0.00    +0.000 A 
ATOM     18  C   UNL     1      45.735   1.270   8.096  0.00  0.00    +0.000 A 
ATOM     19  C   UNL     1      44.759   1.558   9.050  0.00  0.00    +0.000 A 
ATOM     20  C   UNL     1      44.563   2.875   9.480  0.00  0.00    +0.000 A 
ATOM     21  C   UNL     1      45.350   3.918   8.974  0.00  0.00    +0.000 A 
ATOM     22  C   UNL     1      46.328   3.616   8.013  0.00  0.00    +0.000 A 
BRANCH  17  24
ATOM     23  N   UNL     1      48.321   1.774   5.784  0.00  0.00    +0.000 NA
ATOM     24  C   UNL     1      47.514   2.015   6.581  0.00  0.00    +0.000 C 
ENDBRANCH  17  24
ENDBRANCH  16  21
ENDBRANCH   1  16
TORSDOF 4
ENDMDL
MODEL 2
REMARK VINA RESULT:    -7.330      1.969      2.679
REMARK INTER + INTRA:          -9.701
REMARK INTER:                  -9.052
REMARK INTRA:                  -0.649
REMARK UNBOUND:                -0.658
REMARK  Name = 
REMARK  4 active torsions:
REMARK  status: ('A' for Active; 'I' for Inactive)
REMARK    1  A    between atoms: C_2  and  C_3
REMARK    2  A    between atoms: C_7  and  C_8
REMARK    3  A    between atoms: C_8  and  N_9
REMARK    4  A    between atoms: C_10  and  C_12
REMARK                            x       y       z     vdW  Elec       q    Type
REMARK                         _______ _______ _______ _____ _____    ______ ____
ROOT
ATOM      1  N   UNL     1      44.979   5.297  10.422  0.00  0.00    +0.000 N 
ATOM      2  C   UNL     1      44.185   6.152  11.147  0.00  0.00    +0.000 C 
ATOM      3  O   UNL     1      42.997   5.928  11.362  0.00  0.00    +0.000 OA
ATOM      4  H   UNL     1      45.833   5.666  10.015  0.00  0.00    +0.000 HD
ENDROOT
BRANCH   2   5
ATOM      5  C   UNL     1      44.858   7.324  11.718  0.00  0.00    +0.000 A 
ATOM      6  C   UNL     1      44.461   8.606  11.357  0.00  0.00    +0.000 A 
ATOM      7  S   UNL     1      45.338   9.840  12.146  0.00  0.00    +0.000 S 
ATOM      8  C   UNL     1      46.306   8.704  12.965  0.00  0.00    +0.000 A 
ATOM      9  N   UNL     1      47.303   9.102  13.801  0.00  0.00    +0.000 NA
ATOM     10  C   UNL     1      47.971   8.133  14.334  0.00  0.00    +0.000 A 
ATOM     11  N   UNL     1      47.727   6.801  14.114  0.00  0.00    +0.000 N 
ATOM     12  C   UNL     1      46.706   6.351  13.311  0.00  0.00    +0.000 A 
ATOM     13  O   UNL     1      46.469   5.157  13.194  0.00  0.00    +0.000 OA
ATOM     14  C   UNL     1      45.945   7.403  12.664  0.00  0.00    +0.000 A 
ATOM     15  H   UNL     1      48.271   6.090  14.580  0.00  0.00    +0.000 HD
ENDBRANCH   2   5
BRANCH   1  16
ATOM     16  C   UNL     1      44.461   4.092   9.820  0.00  0.00    +0.000 C 
BRANCH  16  21
ATOM     17  C   UNL     1      46.446   1.603   7.709  0.00  0.00    +0.000 A 
ATOM     18  C   UNL     1      47.083   2.444   6.794  0.00  0.00    +0.000 A 
ATOM     19  C   UNL     1      46.892   3.824   6.874  0.00  0.00    +0.000 A 
ATOM     20  C   UNL     1      46.066   4.363   7.866  0.00  0.00    +0.000 A 
ATOM     21  C   UNL     1      45.408   3.531   8.781  0.00  0.00    +0.000 A 
ATOM     22  C   UNL     1      45.609   2.144   8.692  0.00  0.00    +0.000 A 
BRANCH  17  24
ATOM     23  N   UNL     1      46.811  -0.962   7.596  0.00  0.00    +0.000 NA
ATOM     24  C   UNL     1      46.647   0.184   7.641  0.00  0.00    +0.000 C 
ENDBRANCH  17  24
ENDBRANCH  16  21
ENDBRANCH   1  16
TORSDOF 4
ENDMDL
MODEL 3
REMARK VINA RESULT:    -7.241      3.954      7.452
REMARK INTER + INTRA:          -9.592
REMARK INTER:                  -9.038
REMARK INTRA:                  -0.554
REMARK UNBOUND:                -0.658
REMARK  Name = 
REMARK  4 active torsions:
REMARK  status: ('A' for Active; 'I' for Inactive)
REMARK    1  A    between atoms: C_2  and  C_3
REMARK    2  A    between atoms: C_7  and  C_8
REMARK    3  A    between atoms: C_8  and  N_9
REMARK    4  A    between atoms: C_10  and  C_12
REMARK                            x       y       z     vdW  Elec       q    Type
REMARK                         _______ _______ _______ _____ _____    ______ ____
ROOT
ATOM      1  N   UNL     1      46.784   4.428  15.808  0.00  0.00    +0.000 N 
ATOM      2  C   UNL     1      46.844   4.184  14.457  0.00  0.00    +0.000 C 
ATOM      3  O   UNL     1      47.247   3.121  13.995  0.00  0.00    +0.000 OA
ATOM      4  H   UNL     1      46.750   5.393  16.118  0.00  0.00    +0.000 HD
ENDROOT
BRANCH   2   5
ATOM      5  C   UNL     1      46.325   5.248  13.589  0.00  0.00    +0.000 A 
ATOM      6  C   UNL     1      47.057   6.412  13.393  0.00  0.00    +0.000 A 
ATOM      7  S   UNL     1      46.308   7.518  12.330  0.00  0.00    +0.000 S 
ATOM      8  C   UNL     1      44.961   6.497  12.129  0.00  0.00    +0.000 A 
ATOM      9  N   UNL     1      43.908   6.866  11.349  0.00  0.00    +0.000 NA
ATOM     10  C   UNL     1      42.946   6.005  11.309  0.00  0.00    +0.000 A 
ATOM     11  N   UNL     1      42.945   4.803  11.970  0.00  0.00    +0.000 N 
ATOM     12  C   UNL     1      44.000   4.371  12.737  0.00  0.00    +0.000 A 
ATOM     13  O   UNL     1      43.997   3.262  13.254  0.00  0.00    +0.000 OA
ATOM     14  C   UNL     1      45.094   5.318  12.839  0.00  0.00    +0.000 A 
ATOM     15  H   UNL     1      42.170   4.163  11.880  0.00  0.00    +0.000 HD
ENDBRANCH   2   5
BRANCH   1  16
ATOM     16  C   UNL     1      47.237   3.464  16.783  0.00  0.00    +0.000 C 
BRANCH  16  21
ATOM     17  C   UNL     1      50.910   2.675  17.474  0.00  0.00    +0.000 A 
ATOM     18  C   UNL     1      51.457   3.952  17.622  0.00  0.00    +0.000 A 
ATOM     19  C   UNL     1      50.632   5.073  17.524  0.00  0.00    +0.000 A 
ATOM     20  C   UNL     1      49.264   4.920  17.278  0.00  0.00    +0.000 A 
ATOM     21  C   UNL     1      48.704   3.647  17.112  0.00  0.00    +0.000 A 
ATOM     22  C   UNL     1      49.543   2.525  17.215  0.00  0.00    +0.000 A 
BRANCH  17  24
ATOM     23  N   UNL     1      52.433   0.586  17.684  0.00  0.00    +0.000 NA
ATOM     24  C   UNL     1      51.749   1.517  17.587  0.00  0.00    +0.000 C 
ENDBRANCH  17  24
ENDBRANCH  16  21
ENDBRANCH   1  16
TORSDOF 4
ENDMDL
MODEL 4
REMARK VINA RESULT:    -6.878      2.480      3.541
REMARK INTER + INTRA:          -9.144
REMARK INTER:                  -8.319
REMARK INTRA:                  -0.825
REMARK UNBOUND:                -0.658
REMARK  Name = 
REMARK  4 active torsions:
REMARK  status: ('A' for Active; 'I' for Inactive)
REMARK    1  A    between atoms: C_2  and  C_3
REMARK    2  A    between atoms: C_7  and  C_8
REMARK    3  A    between atoms: C_8  and  N_9
REMARK    4  A    between atoms: C_10  and  C_12
REMARK                            x       y       z     vdW  Elec       q    Type
REMARK                         _______ _______ _______ _____ _____    ______ ____
ROOT
ATOM      1  N   UNL     1      46.882   7.069  13.793  0.00  0.00    +0.000 N 
ATOM      2  C   UNL     1      48.163   6.582  13.887  0.00  0.00    +0.000 C 
ATOM      3  O   UNL     1      48.910   6.495  12.917  0.00  0.00    +0.000 OA
ATOM      4  H   UNL     1      46.224   6.830  14.528  0.00  0.00    +0.000 HD
ENDROOT
BRANCH   2   5
ATOM      5  C   UNL     1      48.621   6.237  15.239  0.00  0.00    +0.000 A 
ATOM      6  C   UNL     1      49.610   6.993  15.857  0.00  0.00    +0.000 A 
ATOM      7  S   UNL     1      49.988   6.461  17.435  0.00  0.00    +0.000 S 
ATOM      8  C   UNL     1      48.874   5.178  17.329  0.00  0.00    +0.000 A 
ATOM      9  N   UNL     1      48.718   4.295  18.352  0.00  0.00    +0.000 NA
ATOM     10  C   UNL     1      47.856   3.360  18.123  0.00  0.00    +0.000 A 
ATOM     11  N   UNL     1      47.130   3.232  16.967  0.00  0.00    +0.000 N 
ATOM     12  C   UNL     1      47.224   4.121  15.923  0.00  0.00    +0.000 A 
ATOM     13  O   UNL     1      46.508   4.020  14.936  0.00  0.00    +0.000 OA
ATOM     14  C   UNL     1      48.202   5.174  16.120  0.00  0.00    +0.000 A 
ATOM     15  H   UNL     1      46.454   2.490  16.859  0.00  0.00    +0.000 HD
ENDBRANCH   2   5
BRANCH   1  16
ATOM     16  C   UNL     1      46.304   7.470  12.533  0.00  0.00    +0.000 C 
BRANCH  16  21
ATOM     17  C   UNL     1      45.015   4.843  10.077  0.00  0.00    +0.000 A 
ATOM     18  C   UNL     1      43.980   4.252  10.804  0.00  0.00    +0.000 A 
ATOM     19  C   UNL     1      43.678   4.719  12.084  0.00  0.00    +0.000 A 
ATOM     20  C   UNL     1      44.410   5.776  12.637  0.00  0.00    +0.000 A 
ATOM     21  C   UNL     1      45.461   6.369  11.925  0.00  0.00    +0.000 A 
ATOM     22  C   UNL     1      45.754   5.892  10.638  0.00  0.00    +0.000 A 
BRANCH  17  24
ATOM     23  N   UNL     1      45.580   3.998   7.691  0.00  0.00    +0.000 NA
ATOM     24  C   UNL     1      45.322   4.377   8.756  0.00  0.00    +0.000 C 
ENDBRANCH  17  24
ENDBRANCH  16  21
ENDBRANCH   1  16
TORSDOF 4
ENDMDL
MODEL 5
REMARK VINA RESULT:    -6.854      3.999      7.592
REMARK INTER + INTRA:          -9.114
REMARK INTER:                  -8.550
REMARK INTRA:                  -0.564
REMARK UNBOUND:                -0.658
REMARK  Name = 
REMARK  4 active torsions:
REMARK  status: ('A' for Active; 'I' for Inactive)
REMARK    1  A    between atoms: C_2  and  C_3
REMARK    2  A    between atoms: C_7  and  C_8
REMARK    3  A    between atoms: C_8  and  N_9
REMARK    4  A    between atoms: C_10  and  C_12
REMARK                            x       y       z     vdW  Elec       q    Type
REMARK                         _______ _______ _______ _____ _____    ______ ____
ROOT
ATOM      1  N   UNL     1      46.769   4.335  15.809  0.00  0.00    +0.000 N 
ATOM      2  C   UNL     1      46.813   4.083  14.459  0.00  0.00    +0.000 C 
ATOM      3  O   UNL     1      47.158   2.998  14.001  0.00  0.00    +0.000 OA
ATOM      4  H   UNL     1      46.786   5.302  16.116  0.00  0.00    +0.000 HD
ENDROOT
BRANCH   2   5
ATOM      5  C   UNL     1      46.346   5.169  13.588  0.00  0.00    +0.000 A 
ATOM      6  C   UNL     1      47.158   6.271  13.348  0.00  0.00    +0.000 A 
ATOM      7  S   UNL     1      46.461   7.413  12.288  0.00  0.00    +0.000 S 
ATOM      8  C   UNL     1      45.034   6.495  12.149  0.00  0.00    +0.000 A 
ATOM      9  N   UNL     1      43.987   6.930  11.396  0.00  0.00    +0.000 NA
ATOM     10  C   UNL     1      42.962   6.144  11.402  0.00  0.00    +0.000 A 
ATOM     11  N   UNL     1      42.891   4.958  12.086  0.00  0.00    +0.000 N 
ATOM     12  C   UNL     1      43.936   4.458  12.827  0.00  0.00    +0.000 A 
ATOM     13  O   UNL     1      43.866   3.361  13.365  0.00  0.00    +0.000 OA
ATOM     14  C   UNL     1      45.101   5.321  12.876  0.00  0.00    +0.000 A 
ATOM     15  H   UNL     1      42.068   4.376  12.032  0.00  0.00    +0.000 HD
ENDBRANCH   2   5
BRANCH   1  16
ATOM     16  C   UNL     1      47.174   3.353  16.787  0.00  0.00    +0.000 C 
BRANCH  16  21
ATOM     17  C   UNL     1      50.632   4.683  17.716  0.00  0.00    +0.000 A 
ATOM     18  C   UNL     1      51.412   3.526  17.656  0.00  0.00    +0.000 A 
ATOM     19  C   UNL     1      50.825   2.314  17.290  0.00  0.00    +0.000 A 
ATOM     20  C   UNL     1      49.461   2.258  16.983  0.00  0.00    +0.000 A 
ATOM     21  C   UNL     1      48.663   3.407  17.053  0.00  0.00    +0.000 A 
ATOM     22  C   UNL     1      49.265   4.621  17.422  0.00  0.00    +0.000 A 
BRANCH  17  24
ATOM     23  N   UNL     1      51.713   6.944  18.384  0.00  0.00    +0.000 NA
ATOM     24  C   UNL     1      51.231   5.934  18.080  0.00  0.00    +0.000 C 
ENDBRANCH  17  24
ENDBRANCH  16  21
ENDBRANCH   1  16
TORSDOF 4
ENDMDL
MODEL 6
REMARK VINA RESULT:    -6.836      3.345      7.346
REMARK INTER + INTRA:          -9.092
REMARK INTER:                  -8.470
REMARK INTRA:                  -0.622
REMARK UNBOUND:                -0.658
REMARK  Name = 
REMARK  4 active torsions:
REMARK  status: ('A' for Active; 'I' for Inactive)
REMARK    1  A    between atoms: C_2  and  C_3
REMARK    2  A    between atoms: C_7  and  C_8
REMARK    3  A    between atoms: C_8  and  N_9
REMARK    4  A    between atoms: C_10  and  C_12
REMARK                            x       y       z     vdW  Elec       q    Type
REMARK                         _______ _______ _______ _____ _____    ______ ____
ROOT
ATOM      1  N   UNL     1      47.829   5.943  15.733  0.00  0.00    +0.000 N 
ATOM      2  C   UNL     1      48.146   6.318  14.449  0.00  0.00    +0.000 C 
ATOM      3  O   UNL     1      49.284   6.631  14.114  0.00  0.00    +0.000 OA
ATOM      4  H   UNL     1      46.858   6.003  16.022  0.00  0.00    +0.000 HD
ENDROOT
BRANCH   2   5
ATOM      5  C   UNL     1      47.051   6.251  13.473  0.00  0.00    +0.000 A 
ATOM      6  C   UNL     1      46.565   7.412  12.885  0.00  0.00    +0.000 A 
ATOM      7  S   UNL     1      45.317   7.133  11.755  0.00  0.00    +0.000 S 
ATOM      8  C   UNL     1      45.355   5.456  12.043  0.00  0.00    +0.000 A 
ATOM      9  N   UNL     1      44.498   4.612  11.406  0.00  0.00    +0.000 NA
ATOM     10  C   UNL     1      44.624   3.371  11.741  0.00  0.00    +0.000 A 
ATOM     11  N   UNL     1      45.536   2.895  12.647  0.00  0.00    +0.000 N 
ATOM     12  C   UNL     1      46.448   3.702  13.285  0.00  0.00    +0.000 A 
ATOM     13  O   UNL     1      47.296   3.234  14.033  0.00  0.00    +0.000 OA
ATOM     14  C   UNL     1      46.326   5.111  12.965  0.00  0.00    +0.000 A 
ATOM     15  H   UNL     1      45.600   1.907  12.849  0.00  0.00    +0.000 HD
ENDBRANCH   2   5
BRANCH   1  16
ATOM     16  C   UNL     1      48.807   5.937  16.794  0.00  0.00    +0.000 C 
BRANCH  16  21
ATOM     17  C   UNL     1      51.294   3.176  17.682  0.00  0.00    +0.000 A 
ATOM     18  C   UNL     1      50.533   2.023  17.471  0.00  0.00    +0.000 A 
ATOM     19  C   UNL     1      49.219   2.136  17.015  0.00  0.00    +0.000 A 
ATOM     20  C   UNL     1      48.665   3.397  16.770  0.00  0.00    +0.000 A 
ATOM     21  C   UNL     1      49.410   4.562  16.992  0.00  0.00    +0.000 A 
ATOM     22  C   UNL     1      50.732   4.437  17.449  0.00  0.00    +0.000 A 
BRANCH  17  24
ATOM     23  N   UNL     1      53.747   2.975  18.498  0.00  0.00    +0.000 NA
ATOM     24  C   UNL     1      52.649   3.068  18.138  0.00  0.00    +0.000 C 
ENDBRANCH  17  24
ENDBRANCH  16  21
ENDBRANCH   1  16
TORSDOF 4
ENDMDL
MODEL 7
REMARK VINA RESULT:    -6.754      3.045      6.839
REMARK INTER + INTRA:          -8.991
REMARK INTER:                  -8.226
REMARK INTRA:                  -0.764
REMARK UNBOUND:                -0.658
REMARK  Name = 
REMARK  4 active torsions:
REMARK  status: ('A' for Active; 'I' for Inactive)
REMARK    1  A    between atoms: C_2  and  C_3
REMARK    2  A    between atoms: C_7  and  C_8
REMARK    3  A    between atoms: C_8  and  N_9
REMARK    4  A    between atoms: C_10  and  C_12
REMARK                            x       y       z     vdW  Elec       q    Type
REMARK                         _______ _______ _______ _____ _____    ______ ____
ROOT
ATOM      1  N   UNL     1      47.507   6.259  12.485  0.00  0.00    +0.000 N 
ATOM      2  C   UNL     1      46.403   6.657  11.770  0.00  0.00    +0.000 C 
ATOM      3  O   UNL     1      46.030   7.825  11.727  0.00  0.00    +0.000 OA
ATOM      4  H   UNL     1      47.583   5.280  12.741  0.00  0.00    +0.000 HD
ENDROOT
BRANCH   2   5
ATOM      5  C   UNL     1      45.730   5.609  10.992  0.00  0.00    +0.000 A 
ATOM      6  C   UNL     1      45.798   5.616   9.605  0.00  0.00    +0.000 A 
ATOM      7  S   UNL     1      44.983   4.304   8.877  0.00  0.00    +0.000 S 
ATOM      8  C   UNL     1      44.478   3.707  10.388  0.00  0.00    +0.000 A 
ATOM      9  N   UNL     1      43.699   2.595  10.482  0.00  0.00    +0.000 NA
ATOM     10  C   UNL     1      43.371   2.273  11.689  0.00  0.00    +0.000 A 
ATOM     11  N   UNL     1      43.760   2.956  12.813  0.00  0.00    +0.000 N 
ATOM     12  C   UNL     1      44.578   4.059  12.772  0.00  0.00    +0.000 A 
ATOM     13  O   UNL     1      44.965   4.602  13.798  0.00  0.00    +0.000 OA
ATOM     14  C   UNL     1      44.949   4.480  11.434  0.00  0.00    +0.000 A 
ATOM     15  H   UNL     1      43.488   2.638  13.732  0.00  0.00    +0.000 HD
ENDBRANCH   2   5
BRANCH   1  16
ATOM     16  C   UNL     1      48.282   7.184  13.278  0.00  0.00    +0.000 C 
BRANCH  16  21
ATOM     17  C   UNL     1      48.146   5.010  16.416  0.00  0.00    +0.000 A 
ATOM     18  C   UNL     1      49.263   5.456  17.125  0.00  0.00    +0.000 A 
ATOM     19  C   UNL     1      50.051   6.481  16.601  0.00  0.00    +0.000 A 
ATOM     20  C   UNL     1      49.724   7.060  15.370  0.00  0.00    +0.000 A 
ATOM     21  C   UNL     1      48.614   6.613  14.640  0.00  0.00    +0.000 A 
ATOM     22  C   UNL     1      47.828   5.582  15.178  0.00  0.00    +0.000 A 
BRANCH  17  24
ATOM     23  N   UNL     1      46.667   3.114  17.389  0.00  0.00    +0.000 NA
ATOM     24  C   UNL     1      47.324   3.965  16.954  0.00  0.00    +0.000 C 
ENDBRANCH  17  24
ENDBRANCH  16  21
ENDBRANCH   1  16
TORSDOF 4
ENDMDL
MODEL 8
REMARK VINA RESULT:    -6.534      4.399      7.617
REMARK INTER + INTRA:          -8.720
REMARK INTER:                  -7.944
REMARK INTRA:                  -0.776
REMARK UNBOUND:                -0.658
REMARK  Name = 
REMARK  4 active torsions:
REMARK  status: ('A' for Active; 'I' for Inactive)
REMARK    1  A    between atoms: C_2  and  C_3
REMARK    2  A    between atoms: C_7  and  C_8
REMARK    3  A    between atoms: C_8  and  N_9
REMARK    4  A    between atoms: C_10  and  C_12
REMARK                            x       y       z     vdW  Elec       q    Type
REMARK                         _______ _______ _______ _____ _____    ______ ____
ROOT
ATOM      1  N   UNL     1      47.091   4.488  16.092  0.00  0.00    +0.000 N 
ATOM      2  C   UNL     1      47.039   4.183  14.753  0.00  0.00    +0.000 C 
ATOM      3  O   UNL     1      47.351   3.080  14.315  0.00  0.00    +0.000 OA
ATOM      4  H   UNL     1      47.130   5.467  16.358  0.00  0.00    +0.000 HD
ENDROOT
BRANCH   2   5
ATOM      5  C   UNL     1      46.514   5.235  13.875  0.00  0.00    +0.000 A 
ATOM      6  C   UNL     1      45.246   5.115  13.319  0.00  0.00    +0.000 A 
ATOM      7  S   UNL     1      44.796   6.448  12.352  0.00  0.00    +0.000 S 
ATOM      8  C   UNL     1      46.296   7.211  12.609  0.00  0.00    +0.000 A 
ATOM      9  N   UNL     1      46.588   8.405  12.025  0.00  0.00    +0.000 NA
ATOM     10  C   UNL     1      47.770   8.853  12.289  0.00  0.00    +0.000 A 
ATOM     11  N   UNL     1      48.685   8.220  13.090  0.00  0.00    +0.000 N 
ATOM     12  C   UNL     1      48.422   7.034  13.733  0.00  0.00    +0.000 A 
ATOM     13  O   UNL     1      49.234   6.533  14.499  0.00  0.00    +0.000 OA
ATOM     14  C   UNL     1      47.116   6.473  13.444  0.00  0.00    +0.000 A 
ATOM     15  H   UNL     1      49.587   8.635  13.276  0.00  0.00    +0.000 HD
ENDBRANCH   2   5
BRANCH   1  16
ATOM     16  C   UNL     1      47.563   3.545  17.077  0.00  0.00    +0.000 C 
BRANCH  16  21
ATOM     17  C   UNL     1      51.255   2.688  17.557  0.00  0.00    +0.000 A 
ATOM     18  C   UNL     1      51.827   3.953  17.712  0.00  0.00    +0.000 A 
ATOM     19  C   UNL     1      51.014   5.087  17.686  0.00  0.00    +0.000 A 
ATOM     20  C   UNL     1      49.633   4.959  17.507  0.00  0.00    +0.000 A 
ATOM     21  C   UNL     1      49.047   3.698  17.336  0.00  0.00    +0.000 A 
ATOM     22  C   UNL     1      49.873   2.564  17.364  0.00  0.00    +0.000 A 
BRANCH  17  24
ATOM     23  N   UNL     1      52.741   0.564  17.624  0.00  0.00    +0.000 NA
ATOM     24  C   UNL     1      52.081   1.517  17.594  0.00  0.00    +0.000 C 
ENDBRANCH  17  24
ENDBRANCH  16  21
ENDBRANCH   1  16
TORSDOF 4
ENDMDL
MODEL 9
REMARK VINA RESULT:    -6.121      3.349      5.654
REMARK INTER + INTRA:          -8.210
REMARK INTER:                  -7.710
REMARK INTRA:                  -0.500
REMARK UNBOUND:                -0.658
REMARK  Name = 
REMARK  4 active torsions:
REMARK  status: ('A' for Active; 'I' for Inactive)
REMARK    1  A    between atoms: C_2  and  C_3
REMARK    2  A    between atoms: C_7  and  C_8
REMARK    3  A    between atoms: C_8  and  N_9
REMARK    4  A    between atoms: C_10  and  C_12
REMARK                            x       y       z     vdW  Elec       q    Type
REMARK                         _______ _______ _______ _____ _____    ______ ____
ROOT
ATOM      1  N   UNL     1      47.428   4.323  15.551  0.00  0.00    +0.000 N 
ATOM      2  C   UNL     1      47.463   3.925  16.866  0.00  0.00    +0.000 C 
ATOM      3  O   UNL     1      46.577   3.244  17.374  0.00  0.00    +0.000 OA
ATOM      4  H   UNL     1      47.995   5.118  15.277  0.00  0.00    +0.000 HD
ENDROOT
BRANCH   2   5
ATOM      5  C   UNL     1      48.666   4.300  17.618  0.00  0.00    +0.000 A 
ATOM      6  C   UNL     1      48.678   5.455  18.390  0.00  0.00    +0.000 A 
ATOM      7  S   UNL     1      50.151   5.709  19.215  0.00  0.00    +0.000 S 
ATOM      8  C   UNL     1      50.837   4.308  18.535  0.00  0.00    +0.000 A 
ATOM      9  N   UNL     1      52.121   3.949  18.808  0.00  0.00    +0.000 NA
ATOM     10  C   UNL     1      52.516   2.878  18.204  0.00  0.00    +0.000 A 
ATOM     11  N   UNL     1      51.740   2.127  17.359  0.00  0.00    +0.000 N 
ATOM     12  C   UNL     1      50.427   2.426  17.084  0.00  0.00    +0.000 A 
ATOM     13  O   UNL     1      49.742   1.694  16.383  0.00  0.00    +0.000 OA
ATOM     14  C   UNL     1      49.946   3.640  17.716  0.00  0.00    +0.000 A 
ATOM     15  H   UNL     1      52.101   1.285  16.934  0.00  0.00    +0.000 HD
ENDBRANCH   2   5
BRANCH   1  16
ATOM     16  C   UNL     1      46.319   4.006  14.683  0.00  0.00    +0.000 C 
BRANCH  16  21
ATOM     17  C   UNL     1      45.561   5.188  11.130  0.00  0.00    +0.000 A 
ATOM     18  C   UNL     1      46.338   6.345  11.039  0.00  0.00    +0.000 A 
ATOM     19  C   UNL     1      47.131   6.733  12.119  0.00  0.00    +0.000 A 
ATOM     20  C   UNL     1      47.148   5.966  13.289  0.00  0.00    +0.000 A 
ATOM     21  C   UNL     1      46.362   4.812  13.402  0.00  0.00    +0.000 A 
ATOM     22  C   UNL     1      45.569   4.431  12.307  0.00  0.00    +0.000 A 
BRANCH  17  24
ATOM     23  N   UNL     1      44.102   4.452   9.117  0.00  0.00    +0.000 NA
ATOM     24  C   UNL     1      44.753   4.776  10.019  0.00  0.00    +0.000 C 
ENDBRANCH  17  24
ENDBRANCH  16  21
ENDBRANCH   1  16
TORSDOF 4
ENDMDL
