MODEL 1
REMARK VINA RESULT:    -7.777      0.000      0.000
REMARK INTER + INTRA:         -11.287
REMARK INTER:                 -10.732
REMARK INTRA:                  -0.556
REMARK UNBOUND:                -0.556
REMARK  Name = 
REMARK  7 active torsions:
REMARK  status: ('A' for Active; 'I' for Inactive)
REMARK    1  A    between atoms: N_1  and  C_2
REMARK    2  A    between atoms: C_2  and  C_3
REMARK    3  A    between atoms: C_3  and  C_4
REMARK    4  A    between atoms: C_7  and  C_8
REMARK    5  A    between atoms: C_8  and  O_9
REMARK    6  A    between atoms: O_9  and  C_10
REMARK    7  A    between atoms: C_13  and  C_14
REMARK                            x       y       z     vdW  Elec       q    Type
REMARK                         _______ _______ _______ _____ _____    ______ ____
ROOT
ATOM      1  C   UNL     1      46.738   5.510  13.490  0.00  0.00    +0.000 A 
ATOM      2  C   UNL     1      46.644   4.127  13.523  0.00  0.00    +0.000 A 
ATOM      3  N   UNL     1      45.624   3.422  12.982  0.00  0.00    +0.000 NA
ATOM      4  C   UNL     1      44.627   4.114  12.356  0.00  0.00    +0.000 A 
ATOM      5  C   UNL     1      44.642   5.509  12.278  0.00  0.00    +0.000 A 
ATOM      6 CL   UNL     1      43.395   6.419  11.511  0.00  0.00    +0.000 Cl
ATOM      7  C   UNL     1      45.704   6.207  12.858  0.00  0.00    +0.000 A 
ENDROOT
BRANCH   1   8
ATOM      8  C   UNL     1      47.889   6.233  14.136  0.00  0.00    +0.000 C 
BRANCH   8   9
ATOM      9  C   UNL     1      48.481   7.305  13.214  0.00  0.00    +0.000 C 
BRANCH   9  10
ATOM     10  N   UNL     1      49.748   6.859  12.640  0.00  0.00    +0.000 NA
ATOM     11  H   UNL     1      50.222   7.654  12.210  0.00  0.00    +0.000 HD
ATOM     12  H   UNL     1      49.574   6.195  11.886  0.00  0.00    +0.000 HD
ENDBRANCH   9  10
ENDBRANCH   8   9
ENDBRANCH   1   8
BRANCH   4  13
ATOM     13  C   UNL     1      43.526   3.273  11.743  0.00  0.00    +0.000 C 
BRANCH  13  14
ATOM     14  O   UNL     1      43.369   3.638  10.371  0.00  0.00    +0.000 OA
BRANCH  14  15
ATOM     15  C   UNL     1      44.328   3.231   9.491  0.00  0.00    +0.000 A 
ATOM     16  C   UNL     1      44.856   1.952   9.351  0.00  0.00    +0.000 A 
ATOM     17  C   UNL     1      45.823   1.705   8.366  0.00  0.00    +0.000 A 
ATOM     18  C   UNL     1      46.251   2.746   7.538  0.00  0.00    +0.000 A 
ATOM     19  N   UNL     1      45.753   4.006   7.676  0.00  0.00    +0.000 NA
ATOM     20  C   UNL     1      44.818   4.212   8.637  0.00  0.00    +0.000 A 
BRANCH  18  21
ATOM     21  C   UNL     1      47.288   2.490   6.450  0.00  0.00    +0.000 C 
ATOM     22  F   UNL     1      47.010   3.137   5.277  0.00  0.00    +0.000 F 
ATOM     23  F   UNL     1      48.541   2.903   6.796  0.00  0.00    +0.000 F 
ATOM     24  F   UNL     1      47.404   1.173   6.114  0.00  0.00    +0.000 F 
ENDBRANCH  18  21
ENDBRANCH  14  15
ENDBRANCH  13  14
ENDBRANCH   4  13
TORSDOF 7
ENDMDL
MODEL 2
REMARK VINA RESULT:    -7.598      4.014      6.836
REMARK INTER + INTRA:         -11.041
REMARK INTER:                 -10.513
REMARK INTRA:                  -0.528
REMARK UNBOUND:                -0.556
REMARK  Name = 
REMARK  7 active torsions:
REMARK  status: ('A' for Active; 'I' for Inactive)
REMARK    1  A    between atoms: N_1  and  C_2
REMARK    2  A    between atoms: C_2  and  C_3
REMARK    3  A    between atoms: C_3  and  C_4
REMARK    4  A    between atoms: C_7  and  C_8
REMARK    5  A    between atoms: C_8  and  O_9
REMARK    6  A    between atoms: O_9  and  C_10
REMARK    7  A    between atoms: C_13  and  C_14
REMARK                            x       y       z     vdW  Elec       q    Type
REMARK                         _______ _______ _______ _____ _____    ______ ____
ROOT
ATOM      1  C   UNL     1      45.974   2.558   8.137  0.00  0.00    +0.000 A 
ATOM      2  C   UNL     1      46.070   3.933   7.988  0.00  0.00    +0.000 A 
ATOM      3  N   UNL     1      45.421   4.828   8.769  0.00  0.00    +0.000 NA
ATOM      4  C   UNL     1      44.629   4.349   9.771  0.00  0.00    +0.000 A 
ATOM      5  C   UNL     1      44.475   2.978   9.992  0.00  0.00    +0.000 A 
ATOM      6 CL   UNL     1      43.472   2.334  11.237  0.00  0.00    +0.000 Cl
ATOM      7  C   UNL     1      45.149   2.081   9.159  0.00  0.00    +0.000 A 
ENDROOT
BRANCH   1   8
ATOM      8  C   UNL     1      46.703   1.617   7.215  0.00  0.00    +0.000 C 
BRANCH   8   9
ATOM      9  C   UNL     1      47.253   2.339   5.979  0.00  0.00    +0.000 C 
BRANCH   9  10
ATOM     10  N   UNL     1      48.587   1.851   5.640  0.00  0.00    +0.000 NA
ATOM     11  H   UNL     1      48.891   2.280   4.765  0.00  0.00    +0.000 HD
ATOM     12  H   UNL     1      48.555   0.847   5.463  0.00  0.00    +0.000 HD
ENDBRANCH   9  10
ENDBRANCH   8   9
ENDBRANCH   1   8
BRANCH   4  13
ATOM     13  C   UNL     1      43.950   5.395  10.632  0.00  0.00    +0.000 C 
BRANCH  13  14
ATOM     14  O   UNL     1      44.942   6.268  11.175  0.00  0.00    +0.000 OA
BRANCH  14  15
ATOM     15  C   UNL     1      45.673   5.820  12.236  0.00  0.00    +0.000 A 
ATOM     16  C   UNL     1      46.978   6.166  12.566  0.00  0.00    +0.000 A 
ATOM     17  C   UNL     1      47.569   5.627  13.718  0.00  0.00    +0.000 A 
ATOM     18  C   UNL     1      46.842   4.744  14.521  0.00  0.00    +0.000 A 
ATOM     19  N   UNL     1      45.568   4.385  14.199  0.00  0.00    +0.000 NA
ATOM     20  C   UNL     1      45.026   4.925  13.079  0.00  0.00    +0.000 A 
BRANCH  18  21
ATOM     21  C   UNL     1      47.462   4.163  15.787  0.00  0.00    +0.000 C 
ATOM     22  F   UNL     1      46.593   4.119  16.842  0.00  0.00    +0.000 F 
ATOM     23  F   UNL     1      47.897   2.879  15.630  0.00  0.00    +0.000 F 
ATOM     24  F   UNL     1      48.537   4.873  16.236  0.00  0.00    +0.000 F 
ENDBRANCH  18  21
ENDBRANCH  14  15
ENDBRANCH  13  14
ENDBRANCH   4  13
TORSDOF 7
ENDMDL
MODEL 3
REMARK VINA RESULT:    -7.519      1.717      2.123
REMARK INTER + INTRA:         -10.932
REMARK INTER:                 -10.220
REMARK INTRA:                  -0.712
REMARK UNBOUND:                -0.556
REMARK  Name = 
REMARK  7 active torsions:
REMARK  status: ('A' for Active; 'I' for Inactive)
REMARK    1  A    between atoms: N_1  and  C_2
REMARK    2  A    between atoms: C_2  and  C_3
REMARK    3  A    between atoms: C_3  and  C_4
REMARK    4  A    between atoms: C_7  and  C_8
REMARK    5  A    between atoms: C_8  and  O_9
REMARK    6  A    between atoms: O_9  and  C_10
REMARK    7  A    between atoms: C_13  and  C_14
REMARK                            x       y       z     vdW  Elec       q    Type
REMARK                         _______ _______ _______ _____ _____    ______ ____
ROOT
ATOM      1  C   UNL     1      46.588   7.264  12.657  0.00  0.00    +0.000 A 
ATOM      2  C   UNL     1      45.338   7.494  12.101  0.00  0.00    +0.000 A 
ATOM      3  N   UNL     1      44.423   6.526  11.864  0.00  0.00    +0.000 NA
ATOM      4  C   UNL     1      44.745   5.243  12.199  0.00  0.00    +0.000 A 
ATOM      5  C   UNL     1      45.983   4.922  12.763  0.00  0.00    +0.000 A 
ATOM      6 CL   UNL     1      46.432   3.312  13.185  0.00  0.00    +0.000 Cl
ATOM      7  C   UNL     1      46.910   5.943  12.984  0.00  0.00    +0.000 A 
ENDROOT
BRANCH   1   8
ATOM      8  C   UNL     1      47.570   8.385  12.870  0.00  0.00    +0.000 C 
BRANCH   8   9
ATOM      9  C   UNL     1      48.213   8.325  14.260  0.00  0.00    +0.000 C 
BRANCH   9  10
ATOM     10  N   UNL     1      47.431   9.086  15.231  0.00  0.00    +0.000 NA
ATOM     11  H   UNL     1      48.016   9.306  16.037  0.00  0.00    +0.000 HD
ATOM     12  H   UNL     1      46.667   8.513  15.588  0.00  0.00    +0.000 HD
ENDBRANCH   9  10
ENDBRANCH   8   9
ENDBRANCH   1   8
BRANCH   4  13
ATOM     13  C   UNL     1      43.673   4.205  11.938  0.00  0.00    +0.000 C 
BRANCH  13  14
ATOM     14  O   UNL     1      43.361   4.196  10.544  0.00  0.00    +0.000 OA
BRANCH  14  15
ATOM     15  C   UNL     1      44.250   3.604   9.696  0.00  0.00    +0.000 A 
ATOM     16  C   UNL     1      44.616   2.263   9.660  0.00  0.00    +0.000 A 
ATOM     17  C   UNL     1      45.531   1.819   8.695  0.00  0.00    +0.000 A 
ATOM     18  C   UNL     1      46.071   2.729   7.782  0.00  0.00    +0.000 A 
ATOM     19  N   UNL     1      45.733   4.048   7.818  0.00  0.00    +0.000 NA
ATOM     20  C   UNL     1      44.844   4.445   8.762  0.00  0.00    +0.000 A 
BRANCH  18  21
ATOM     21  C   UNL     1      47.053   2.260   6.715  0.00  0.00    +0.000 C 
ATOM     22  F   UNL     1      48.314   2.765   6.881  0.00  0.00    +0.000 F 
ATOM     23  F   UNL     1      47.213   0.905   6.692  0.00  0.00    +0.000 F 
ATOM     24  F   UNL     1      46.688   2.617   5.450  0.00  0.00    +0.000 F 
ENDBRANCH  18  21
ENDBRANCH  14  15
ENDBRANCH  13  14
ENDBRANCH   4  13
TORSDOF 7
ENDMDL
MODEL 4
REMARK VINA RESULT:    -7.324      1.832      2.591
REMARK INTER + INTRA:         -10.663
REMARK INTER:                 -10.120
REMARK INTRA:                  -0.542
REMARK UNBOUND:                -0.556
REMARK  Name = 
REMARK  7 active torsions:
REMARK  status: ('A' for Active; 'I' for Inactive)
REMARK    1  A    between atoms: N_1  and  C_2
REMARK    2  A    between atoms: C_2  and  C_3
REMARK    3  A    between atoms: C_3  and  C_4
REMARK    4  A    between atoms: C_7  and  C_8
REMARK    5  A    between atoms: C_8  and  O_9
REMARK    6  A    between atoms: O_9  and  C_10
REMARK    7  A    between atoms: C_13  and  C_14
REMARK                            x       y       z     vdW  Elec       q    Type
REMARK                         _______ _______ _______ _____ _____    ______ ____
ROOT
ATOM      1  C   UNL     1      47.123   4.678  14.569  0.00  0.00    +0.000 A 
ATOM      2  C   UNL     1      45.953   4.076  14.132  0.00  0.00    +0.000 A 
ATOM      3  N   UNL     1      45.244   4.486  13.055  0.00  0.00    +0.000 NA
ATOM      4  C   UNL     1      45.712   5.555  12.348  0.00  0.00    +0.000 A 
ATOM      5  C   UNL     1      46.883   6.222  12.719  0.00  0.00    +0.000 A 
ATOM      6 CL   UNL     1      47.498   7.585  11.861  0.00  0.00    +0.000 Cl
ATOM      7  C   UNL     1      47.584   5.780  13.843  0.00  0.00    +0.000 A 
ENDROOT
BRANCH   1   8
ATOM      8  C   UNL     1      47.849   4.187  15.792  0.00  0.00    +0.000 C 
BRANCH   8   9
ATOM      9  C   UNL     1      46.986   4.303  17.054  0.00  0.00    +0.000 C 
BRANCH   9  10
ATOM     10  N   UNL     1      46.653   2.983  17.584  0.00  0.00    +0.000 NA
ATOM     11  H   UNL     1      45.859   2.604  17.069  0.00  0.00    +0.000 HD
ATOM     12  H   UNL     1      46.347   3.065  18.553  0.00  0.00    +0.000 HD
ENDBRANCH   9  10
ENDBRANCH   8   9
ENDBRANCH   1   8
BRANCH   4  13
ATOM     13  C   UNL     1      44.895   5.953  11.136  0.00  0.00    +0.000 C 
BRANCH  13  14
ATOM     14  O   UNL     1      44.244   4.795  10.612  0.00  0.00    +0.000 OA
BRANCH  14  15
ATOM     15  C   UNL     1      44.907   4.062   9.673  0.00  0.00    +0.000 A 
ATOM     16  C   UNL     1      44.931   2.677   9.548  0.00  0.00    +0.000 A 
ATOM     17  C   UNL     1      45.648   2.088   8.497  0.00  0.00    +0.000 A 
ATOM     18  C   UNL     1      46.336   2.896   7.588  0.00  0.00    +0.000 A 
ATOM     19  N   UNL     1      46.333   4.252   7.710  0.00  0.00    +0.000 NA
ATOM     20  C   UNL     1      45.629   4.791   8.736  0.00  0.00    +0.000 A 
BRANCH  18  21
ATOM     21  C   UNL     1      47.105   2.272   6.429  0.00  0.00    +0.000 C 
ATOM     22  F   UNL     1      46.926   0.920   6.328  0.00  0.00    +0.000 F 
ATOM     23  F   UNL     1      46.739   2.772   5.213  0.00  0.00    +0.000 F 
ATOM     24  F   UNL     1      48.455   2.450   6.518  0.00  0.00    +0.000 F 
ENDBRANCH  18  21
ENDBRANCH  14  15
ENDBRANCH  13  14
ENDBRANCH   4  13
TORSDOF 7
ENDMDL
MODEL 5
REMARK VINA RESULT:    -7.072      3.544      6.451
REMARK INTER + INTRA:         -10.315
REMARK INTER:                  -9.694
REMARK INTRA:                  -0.621
REMARK UNBOUND:                -0.556
REMARK  Name = 
REMARK  7 active torsions:
REMARK  status: ('A' for Active; 'I' for Inactive)
REMARK    1  A    between atoms: N_1  and  C_2
REMARK    2  A    between atoms: C_2  and  C_3
REMARK    3  A    between atoms: C_3  and  C_4
REMARK    4  A    between atoms: C_7  and  C_8
REMARK    5  A    between atoms: C_8  and  O_9
REMARK    6  A    between atoms: O_9  and  C_10
REMARK    7  A    between atoms: C_13  and  C_14
REMARK                            x       y       z     vdW  Elec       q    Type
REMARK                         _______ _______ _______ _____ _____    ______ ____
ROOT
ATOM      1  C   UNL     1      45.850   2.534   8.292  0.00  0.00    +0.000 A 
ATOM      2  C   UNL     1      45.793   3.900   8.063  0.00  0.00    +0.000 A 
ATOM      3  N   UNL     1      45.029   4.758   8.779  0.00  0.00    +0.000 NA
ATOM      4  C   UNL     1      44.273   4.250   9.795  0.00  0.00    +0.000 A 
ATOM      5  C   UNL     1      44.271   2.885  10.094  0.00  0.00    +0.000 A 
ATOM      6 CL   UNL     1      43.319   2.203  11.359  0.00  0.00    +0.000 Cl
ATOM      7  C   UNL     1      45.062   2.025   9.328  0.00  0.00    +0.000 A 
ENDROOT
BRANCH   1   8
ATOM      8  C   UNL     1      46.702   1.631   7.441  0.00  0.00    +0.000 C 
BRANCH   8   9
ATOM      9  C   UNL     1      47.931   2.361   6.886  0.00  0.00    +0.000 C 
BRANCH   9  10
ATOM     10  N   UNL     1      48.386   1.747   5.641  0.00  0.00    +0.000 NA
ATOM     11  H   UNL     1      48.399   0.732   5.750  0.00  0.00    +0.000 HD
ATOM     12  H   UNL     1      49.349   2.021   5.450  0.00  0.00    +0.000 HD
ENDBRANCH   9  10
ENDBRANCH   8   9
ENDBRANCH   1   8
BRANCH   4  13
ATOM     13  C   UNL     1      43.461   5.259  10.580  0.00  0.00    +0.000 C 
BRANCH  13  14
ATOM     14  O   UNL     1      43.924   5.281  11.931  0.00  0.00    +0.000 OA
BRANCH  14  15
ATOM     15  C   UNL     1      45.121   5.884  12.185  0.00  0.00    +0.000 A 
ATOM     16  C   UNL     1      45.553   7.125  11.729  0.00  0.00    +0.000 A 
ATOM     17  C   UNL     1      46.812   7.605  12.114  0.00  0.00    +0.000 A 
ATOM     18  C   UNL     1      47.624   6.831  12.947  0.00  0.00    +0.000 A 
ATOM     19  N   UNL     1      47.219   5.608  13.386  0.00  0.00    +0.000 NA
ATOM     20  C   UNL     1      45.995   5.172  12.998  0.00  0.00    +0.000 A 
BRANCH  18  21
ATOM     21  C   UNL     1      48.989   7.347  13.391  0.00  0.00    +0.000 C 
ATOM     22  F   UNL     1      48.998   8.689  13.657  0.00  0.00    +0.000 F 
ATOM     23  F   UNL     1      49.440   6.754  14.534  0.00  0.00    +0.000 F 
ATOM     24  F   UNL     1      49.967   7.159  12.458  0.00  0.00    +0.000 F 
ENDBRANCH  18  21
ENDBRANCH  14  15
ENDBRANCH  13  14
ENDBRANCH   4  13
TORSDOF 7
ENDMDL
MODEL 6
REMARK VINA RESULT:    -6.807      1.973      2.327
REMARK INTER + INTRA:          -9.949
REMARK INTER:                  -9.576
REMARK INTRA:                  -0.373
REMARK UNBOUND:                -0.556
REMARK  Name = 
REMARK  7 active torsions:
REMARK  status: ('A' for Active; 'I' for Inactive)
REMARK    1  A    between atoms: N_1  and  C_2
REMARK    2  A    between atoms: C_2  and  C_3
REMARK    3  A    between atoms: C_3  and  C_4
REMARK    4  A    between atoms: C_7  and  C_8
REMARK    5  A    between atoms: C_8  and  O_9
REMARK    6  A    between atoms: O_9  and  C_10
REMARK    7  A    between atoms: C_13  and  C_14
REMARK                            x       y       z     vdW  Elec       q    Type
REMARK                         _______ _______ _______ _____ _____    ______ ____
ROOT
ATOM      1  C   UNL     1      46.215   7.839  12.324  0.00  0.00    +0.000 A 
ATOM      2  C   UNL     1      46.919   6.677  12.600  0.00  0.00    +0.000 A 
ATOM      3  N   UNL     1      46.393   5.433  12.517  0.00  0.00    +0.000 NA
ATOM      4  C   UNL     1      45.090   5.311  12.128  0.00  0.00    +0.000 A 
ATOM      5  C   UNL     1      44.308   6.430  11.831  0.00  0.00    +0.000 A 
ATOM      6 CL   UNL     1      42.656   6.319  11.352  0.00  0.00    +0.000 Cl
ATOM      7  C   UNL     1      44.878   7.701  11.939  0.00  0.00    +0.000 A 
ENDROOT
BRANCH   1   8
ATOM      8  C   UNL     1      46.854   9.194  12.462  0.00  0.00    +0.000 C 
BRANCH   8   9
ATOM      9  C   UNL     1      46.204  10.230  11.537  0.00  0.00    +0.000 C 
BRANCH   9  10
ATOM     10  N   UNL     1      45.499  11.251  12.309  0.00  0.00    +0.000 NA
ATOM     11  H   UNL     1      44.715  10.821  12.800  0.00  0.00    +0.000 HD
ATOM     12  H   UNL     1      45.091  11.942  11.680  0.00  0.00    +0.000 HD
ENDBRANCH   9  10
ENDBRANCH   8   9
ENDBRANCH   1   8
BRANCH   4  13
ATOM     13  C   UNL     1      44.563   3.895  12.024  0.00  0.00    +0.000 C 
BRANCH  13  14
ATOM     14  O   UNL     1      43.918   3.729  10.761  0.00  0.00    +0.000 OA
BRANCH  14  15
ATOM     15  C   UNL     1      44.703   3.493   9.671  0.00  0.00    +0.000 A 
ATOM     16  C   UNL     1      45.221   4.433   8.786  0.00  0.00    +0.000 A 
ATOM     17  C   UNL     1      46.039   4.013   7.728  0.00  0.00    +0.000 A 
ATOM     18  C   UNL     1      46.322   2.654   7.568  0.00  0.00    +0.000 A 
ATOM     19  N   UNL     1      45.808   1.723   8.418  0.00  0.00    +0.000 NA
ATOM     20  C   UNL     1      45.021   2.162   9.432  0.00  0.00    +0.000 A 
BRANCH  18  21
ATOM     21  C   UNL     1      47.225   2.182   6.434  0.00  0.00    +0.000 C 
ATOM     22  F   UNL     1      46.889   2.714   5.220  0.00  0.00    +0.000 F 
ATOM     23  F   UNL     1      48.536   2.516   6.618  0.00  0.00    +0.000 F 
ATOM     24  F   UNL     1      47.203   0.830   6.253  0.00  0.00    +0.000 F 
ENDBRANCH  18  21
ENDBRANCH  14  15
ENDBRANCH  13  14
ENDBRANCH   4  13
TORSDOF 7
ENDMDL
MODEL 7
REMARK VINA RESULT:    -6.266      5.253      6.604
REMARK INTER + INTRA:          -9.203
REMARK INTER:                  -8.664
REMARK INTRA:                  -0.538
REMARK UNBOUND:                -0.556
REMARK  Name = 
REMARK  7 active torsions:
REMARK  status: ('A' for Active; 'I' for Inactive)
REMARK    1  A    between atoms: N_1  and  C_2
REMARK    2  A    between atoms: C_2  and  C_3
REMARK    3  A    between atoms: C_3  and  C_4
REMARK    4  A    between atoms: C_7  and  C_8
REMARK    5  A    between atoms: C_8  and  O_9
REMARK    6  A    between atoms: O_9  and  C_10
REMARK    7  A    between atoms: C_13  and  C_14
REMARK                            x       y       z     vdW  Elec       q    Type
REMARK                         _______ _______ _______ _____ _____    ______ ____
ROOT
ATOM      1  C   UNL     1      51.329   2.780  17.649  0.00  0.00    +0.000 A 
ATOM      2  C   UNL     1      50.352   2.048  16.991  0.00  0.00    +0.000 A 
ATOM      3  N   UNL     1      49.170   2.559  16.577  0.00  0.00    +0.000 NA
ATOM      4  C   UNL     1      48.925   3.881  16.813  0.00  0.00    +0.000 A 
ATOM      5  C   UNL     1      49.854   4.692  17.469  0.00  0.00    +0.000 A 
ATOM      6 CL   UNL     1      49.575   6.361  17.799  0.00  0.00    +0.000 Cl
ATOM      7  C   UNL     1      51.060   4.130  17.895  0.00  0.00    +0.000 A 
ENDROOT
BRANCH   1   8
ATOM      8  C   UNL     1      52.613   2.142  18.107  0.00  0.00    +0.000 C 
BRANCH   8   9
ATOM      9  C   UNL     1      52.849   0.785  17.432  0.00  0.00    +0.000 C 
BRANCH   9  10
ATOM     10  N   UNL     1      52.798  -0.300  18.409  0.00  0.00    +0.000 NA
ATOM     11  H   UNL     1      53.594  -0.221  19.042  0.00  0.00    +0.000 HD
ATOM     12  H   UNL     1      52.903  -1.197  17.937  0.00  0.00    +0.000 HD
ENDBRANCH   9  10
ENDBRANCH   8   9
ENDBRANCH   1   8
BRANCH   4  13
ATOM     13  C   UNL     1      47.599   4.407  16.302  0.00  0.00    +0.000 C 
BRANCH  13  14
ATOM     14  O   UNL     1      47.810   5.076  15.058  0.00  0.00    +0.000 OA
BRANCH  14  15
ATOM     15  C   UNL     1      46.927   4.836  14.047  0.00  0.00    +0.000 A 
ATOM     16  C   UNL     1      46.269   5.775  13.261  0.00  0.00    +0.000 A 
ATOM     17  C   UNL     1      45.410   5.347  12.240  0.00  0.00    +0.000 A 
ATOM     18  C   UNL     1      45.218   3.980  12.024  0.00  0.00    +0.000 A 
ATOM     19  N   UNL     1      45.843   3.050  12.798  0.00  0.00    +0.000 NA
ATOM     20  C   UNL     1      46.669   3.497  13.776  0.00  0.00    +0.000 A 
BRANCH  18  21
ATOM     21  C   UNL     1      44.301   3.496  10.905  0.00  0.00    +0.000 C 
ATOM     22  F   UNL     1      44.785   2.398  10.249  0.00  0.00    +0.000 F 
ATOM     23  F   UNL     1      43.063   3.130  11.348  0.00  0.00    +0.000 F 
ATOM     24  F   UNL     1      44.093   4.432   9.935  0.00  0.00    +0.000 F 
ENDBRANCH  18  21
ENDBRANCH  14  15
ENDBRANCH  13  14
ENDBRANCH   4  13
TORSDOF 7
ENDMDL
MODEL 8
REMARK VINA RESULT:    -6.114      4.606      7.476
REMARK INTER + INTRA:          -8.994
REMARK INTER:                  -8.491
REMARK INTRA:                  -0.502
REMARK UNBOUND:                -0.556
REMARK  Name = 
REMARK  7 active torsions:
REMARK  status: ('A' for Active; 'I' for Inactive)
REMARK    1  A    between atoms: N_1  and  C_2
REMARK    2  A    between atoms: C_2  and  C_3
REMARK    3  A    between atoms: C_3  and  C_4
REMARK    4  A    between atoms: C_7  and  C_8
REMARK    5  A    between atoms: C_8  and  O_9
REMARK    6  A    between atoms: O_9  and  C_10
REMARK    7  A    between atoms: C_13  and  C_14
REMARK                            x       y       z     vdW  Elec       q    Type
REMARK                         _______ _______ _______ _____ _____    ______ ____
ROOT
ATOM      1  C   UNL     1      45.261   3.936   9.049  0.00  0.00    +0.000 A 
ATOM      2  C   UNL     1      44.904   2.992  10.000  0.00  0.00    +0.000 A 
ATOM      3  N   UNL     1      44.832   3.241  11.328  0.00  0.00    +0.000 NA
ATOM      4  C   UNL     1      45.120   4.503  11.760  0.00  0.00    +0.000 A 
ATOM      5  C   UNL     1      45.490   5.515  10.871  0.00  0.00    +0.000 A 
ATOM      6 CL   UNL     1      45.876   7.117  11.379  0.00  0.00    +0.000 Cl
ATOM      7  C   UNL     1      45.566   5.221   9.507  0.00  0.00    +0.000 A 
ENDROOT
BRANCH   1   8
ATOM      8  C   UNL     1      45.347   3.584   7.588  0.00  0.00    +0.000 C 
BRANCH   8   9
ATOM      9  C   UNL     1      46.753   3.117   7.195  0.00  0.00    +0.000 C 
BRANCH   9  10
ATOM     10  N   UNL     1      46.997   3.336   5.771  0.00  0.00    +0.000 NA
ATOM     11  H   UNL     1      46.173   3.055   5.240  0.00  0.00    +0.000 HD
ATOM     12  H   UNL     1      47.756   2.734   5.452  0.00  0.00    +0.000 HD
ENDBRANCH   9  10
ENDBRANCH   8   9
ENDBRANCH   1   8
BRANCH   4  13
ATOM     13  C   UNL     1      44.995   4.733  13.252  0.00  0.00    +0.000 C 
BRANCH  13  14
ATOM     14  O   UNL     1      45.930   3.895  13.934  0.00  0.00    +0.000 OA
BRANCH  14  15
ATOM     15  C   UNL     1      46.847   4.493  14.747  0.00  0.00    +0.000 A 
ATOM     16  C   UNL     1      47.177   4.138  16.050  0.00  0.00    +0.000 A 
ATOM     17  C   UNL     1      48.171   4.851  16.733  0.00  0.00    +0.000 A 
ATOM     18  C   UNL     1      48.819   5.915  16.101  0.00  0.00    +0.000 A 
ATOM     19  N   UNL     1      48.494   6.283  14.831  0.00  0.00    +0.000 NA
ATOM     20  C   UNL     1      47.529   5.572  14.197  0.00  0.00    +0.000 A 
BRANCH  18  21
ATOM     21  C   UNL     1      49.917   6.689  16.823  0.00  0.00    +0.000 C 
ATOM     22  F   UNL     1      49.527   7.941  17.213  0.00  0.00    +0.000 F 
ATOM     23  F   UNL     1      50.342   6.076  17.965  0.00  0.00    +0.000 F 
ATOM     24  F   UNL     1      51.032   6.882  16.061  0.00  0.00    +0.000 F 
ENDBRANCH  18  21
ENDBRANCH  14  15
ENDBRANCH  13  14
ENDBRANCH   4  13
TORSDOF 7
ENDMDL
MODEL 9
REMARK VINA RESULT:    -6.071      5.755      8.413
REMARK INTER + INTRA:          -8.933
REMARK INTER:                  -8.513
REMARK INTRA:                  -0.420
REMARK UNBOUND:                -0.556
REMARK  Name = 
REMARK  7 active torsions:
REMARK  status: ('A' for Active; 'I' for Inactive)
REMARK    1  A    between atoms: N_1  and  C_2
REMARK    2  A    between atoms: C_2  and  C_3
REMARK    3  A    between atoms: C_3  and  C_4
REMARK    4  A    between atoms: C_7  and  C_8
REMARK    5  A    between atoms: C_8  and  O_9
REMARK    6  A    between atoms: O_9  and  C_10
REMARK    7  A    between atoms: C_13  and  C_14
REMARK                            x       y       z     vdW  Elec       q    Type
REMARK                         _______ _______ _______ _____ _____    ______ ____
ROOT
ATOM      1  C   UNL     1      45.097   4.273   9.848  0.00  0.00    +0.000 A 
ATOM      2  C   UNL     1      44.873   3.333  10.842  0.00  0.00    +0.000 A 
ATOM      3  N   UNL     1      45.159   3.529  12.150  0.00  0.00    +0.000 NA
ATOM      4  C   UNL     1      45.694   4.730  12.517  0.00  0.00    +0.000 A 
ATOM      5  C   UNL     1      45.952   5.734  11.579  0.00  0.00    +0.000 A 
ATOM      6 CL   UNL     1      46.640   7.257  12.000  0.00  0.00    +0.000 Cl
ATOM      7  C   UNL     1      45.656   5.494  10.235  0.00  0.00    +0.000 A 
ENDROOT
BRANCH   1   8
ATOM      8  C   UNL     1      44.780   3.980   8.406  0.00  0.00    +0.000 C 
BRANCH   8   9
ATOM      9  C   UNL     1      45.938   3.264   7.700  0.00  0.00    +0.000 C 
BRANCH   9  10
ATOM     10  N   UNL     1      46.761   4.213   6.955  0.00  0.00    +0.000 NA
ATOM     11  H   UNL     1      46.732   5.122   7.418  0.00  0.00    +0.000 HD
ATOM     12  H   UNL     1      46.368   4.359   6.025  0.00  0.00    +0.000 HD
ENDBRANCH   9  10
ENDBRANCH   8   9
ENDBRANCH   1   8
BRANCH   4  13
ATOM     13  C   UNL     1      45.967   4.906  13.997  0.00  0.00    +0.000 C 
BRANCH  13  14
ATOM     14  O   UNL     1      47.208   4.278  14.320  0.00  0.00    +0.000 OA
BRANCH  14  15
ATOM     15  C   UNL     1      47.599   4.275  15.627  0.00  0.00    +0.000 A 
ATOM     16  C   UNL     1      47.468   3.237  16.543  0.00  0.00    +0.000 A 
ATOM     17  C   UNL     1      47.955   3.398  17.848  0.00  0.00    +0.000 A 
ATOM     18  C   UNL     1      48.563   4.601  18.217  0.00  0.00    +0.000 A 
ATOM     19  N   UNL     1      48.683   5.630  17.333  0.00  0.00    +0.000 NA
ATOM     20  C   UNL     1      48.203   5.442  16.079  0.00  0.00    +0.000 A 
BRANCH  18  21
ATOM     21  C   UNL     1      49.116   4.785  19.626  0.00  0.00    +0.000 C 
ATOM     22  F   UNL     1      50.476   4.657  19.693  0.00  0.00    +0.000 F 
ATOM     23  F   UNL     1      48.848   6.017  20.149  0.00  0.00    +0.000 F 
ATOM     24  F   UNL     1      48.625   3.881  20.522  0.00  0.00    +0.000 F 
ENDBRANCH  18  21
ENDBRANCH  14  15
ENDBRANCH  13  14
ENDBRANCH   4  13
TORSDOF 7
ENDMDL
