MODEL 1
REMARK VINA RESULT:    -8.554      0.000      0.000
REMARK INTER + INTRA:         -10.745
REMARK INTER:                 -10.554
REMARK INTRA:                  -0.191
REMARK UNBOUND:                -0.191
REMARK  Name = 
REMARK  6 active torsions:
REMARK  status: ('A' for Active; 'I' for Inactive)
REMARK    1  A    between atoms: C_1  and  C_2
REMARK    2  A    between atoms: C_10  and  C_11
REMARK    3  A    between atoms: C_11  and  O_12
REMARK    4  A    between atoms: O_12  and  C_13
REMARK    5  A    between atoms: C_16  and  C_17
REMARK    6  A    between atoms: C_24  and  C_25
REMARK                            x       y       z     vdW  Elec       q    Type
REMARK                         _______ _______ _______ _____ _____    ______ ____
ROOT
ATOM      1  C   UNL     1      49.953   7.629  11.317  0.00  0.00    +0.000 C 
ATOM      2  C   UNL     1      49.756   8.294  12.680  0.00  0.00    +0.000 C 
ATOM      3  C   UNL     1      48.943   7.413  13.656  0.00  0.00    +0.000 C 
ATOM      4  N   UNL     1      47.533   7.411  13.270  0.00  0.00    +0.000 N 
ATOM      5  C   UNL     1      46.780   6.277  13.106  0.00  0.00    +0.000 A 
ATOM      6  C   UNL     1      47.034   5.124  13.852  0.00  0.00    +0.000 A 
ATOM      7  C   UNL     1      46.256   3.983  13.673  0.00  0.00    +0.000 A 
ATOM      8  C   UNL     1      45.249   4.004  12.727  0.00  0.00    +0.000 A 
ATOM      9  F   UNL     1      44.512   2.905  12.520  0.00  0.00    +0.000 F 
ATOM     10  C   UNL     1      45.043   5.159  11.988  0.00  0.00    +0.000 A 
ATOM     11  N   UNL     1      45.783   6.290  12.187  0.00  0.00    +0.000 NA
ATOM     12  C   UNL     1      46.936   8.735  13.081  0.00  0.00    +0.000 C 
ATOM     13  C   UNL     1      47.805   9.587  12.134  0.00  0.00    +0.000 C 
ATOM     14  C   UNL     1      47.321  11.032  12.114  0.00  0.00    +0.000 C 
ATOM     15  O   UNL     1      49.187   9.610  12.547  0.00  0.00    +0.000 OA
ENDROOT
BRANCH  10  16
ATOM     16  C   UNL     1      44.002   5.167  10.891  0.00  0.00    +0.000 C 
BRANCH  16  17
ATOM     17  O   UNL     1      43.920   3.881  10.273  0.00  0.00    +0.000 OA
BRANCH  17  18
ATOM     18  C   UNL     1      44.843   3.597   9.304  0.00  0.00    +0.000 A 
ATOM     19  C   UNL     1      45.490   4.511   8.475  0.00  0.00    +0.000 A 
ATOM     20  C   UNL     1      46.419   4.056   7.535  0.00  0.00    +0.000 A 
ATOM     21  C   UNL     1      46.669   2.691   7.453  0.00  0.00    +0.000 A 
ATOM     22  N   UNL     1      46.056   1.765   8.240  0.00  0.00    +0.000 NA
ATOM     23  C   UNL     1      45.162   2.250   9.139  0.00  0.00    +0.000 A 
BRANCH  21  24
ATOM     24  C   UNL     1      47.663   2.178   6.455  0.00  0.00    +0.000 C 
ATOM     25  N   UNL     1      47.891   2.995   5.378  0.00  0.00    +0.000 N 
ATOM     26  O   UNL     1      48.231   1.101   6.581  0.00  0.00    +0.000 OA
ATOM     27  H   UNL     1      47.398   3.878   5.306  0.00  0.00    +0.000 HD
ATOM     28  H   UNL     1      48.547   2.713   4.664  0.00  0.00    +0.000 HD
ENDBRANCH  21  24
ENDBRANCH  17  18
ENDBRANCH  16  17
ENDBRANCH  10  16
TORSDOF 4
ENDMDL
MODEL 2
REMARK VINA RESULT:    -7.240      3.415      8.232
REMARK INTER + INTRA:          -9.123
REMARK INTER:                  -8.748
REMARK INTRA:                  -0.376
REMARK UNBOUND:                -0.191
REMARK  Name = 
REMARK  6 active torsions:
REMARK  status: ('A' for Active; 'I' for Inactive)
REMARK    1  A    between atoms: C_1  and  C_2
REMARK    2  A    between atoms: C_10  and  C_11
REMARK    3  A    between atoms: C_11  and  O_12
REMARK    4  A    between atoms: O_12  and  C_13
REMARK    5  A    between atoms: C_16  and  C_17
REMARK    6  A    between atoms: C_24  and  C_25
REMARK                            x       y       z     vdW  Elec       q    Type
REMARK                         _______ _______ _______ _____ _____    ______ ____
ROOT
ATOM      1  C   UNL     1      47.170   4.212   7.108  0.00  0.00    +0.000 C 
ATOM      2  C   UNL     1      45.973   3.360   6.683  0.00  0.00    +0.000 C 
ATOM      3  C   UNL     1      44.723   3.619   7.553  0.00  0.00    +0.000 C 
ATOM      4  N   UNL     1      44.897   3.010   8.871  0.00  0.00    +0.000 N 
ATOM      5  C   UNL     1      44.699   3.668  10.058  0.00  0.00    +0.000 A 
ATOM      6  C   UNL     1      43.761   4.696  10.168  0.00  0.00    +0.000 A 
ATOM      7  C   UNL     1      43.572   5.351  11.383  0.00  0.00    +0.000 A 
ATOM      8  C   UNL     1      44.349   4.983  12.466  0.00  0.00    +0.000 A 
ATOM      9  F   UNL     1      44.202   5.624  13.633  0.00  0.00    +0.000 F 
ATOM     10  C   UNL     1      45.288   3.976  12.310  0.00  0.00    +0.000 A 
ATOM     11  N   UNL     1      45.449   3.309  11.129  0.00  0.00    +0.000 NA
ATOM     12  C   UNL     1      45.288   1.598   8.858  0.00  0.00    +0.000 C 
ATOM     13  C   UNL     1      46.512   1.387   7.944  0.00  0.00    +0.000 C 
ATOM     14  C   UNL     1      46.782  -0.100   7.743  0.00  0.00    +0.000 C 
ATOM     15  O   UNL     1      46.312   1.961   6.636  0.00  0.00    +0.000 OA
ENDROOT
BRANCH  10  16
ATOM     16  C   UNL     1      46.202   3.624  13.463  0.00  0.00    +0.000 C 
BRANCH  16  17
ATOM     17  O   UNL     1      46.999   4.753  13.828  0.00  0.00    +0.000 OA
BRANCH  17  18
ATOM     18  C   UNL     1      47.497   4.776  15.102  0.00  0.00    +0.000 A 
ATOM     19  C   UNL     1      48.275   5.781  15.674  0.00  0.00    +0.000 A 
ATOM     20  C   UNL     1      48.699   5.655  17.000  0.00  0.00    +0.000 A 
ATOM     21  C   UNL     1      48.332   4.520  17.713  0.00  0.00    +0.000 A 
ATOM     22  N   UNL     1      47.578   3.514  17.190  0.00  0.00    +0.000 NA
ATOM     23  C   UNL     1      47.186   3.677  15.900  0.00  0.00    +0.000 A 
BRANCH  21  24
ATOM     24  C   UNL     1      48.773   4.363  19.137  0.00  0.00    +0.000 C 
ATOM     25  N   UNL     1      48.323   3.235  19.772  0.00  0.00    +0.000 N 
ATOM     26  O   UNL     1      49.481   5.185  19.704  0.00  0.00    +0.000 OA
ATOM     27  H   UNL     1      47.735   2.578  19.271  0.00  0.00    +0.000 HD
ATOM     28  H   UNL     1      48.579   3.064  20.734  0.00  0.00    +0.000 HD
ENDBRANCH  21  24
ENDBRANCH  17  18
ENDBRANCH  16  17
ENDBRANCH  10  16
TORSDOF 4
ENDMDL
MODEL 3
REMARK VINA RESULT:    -7.212      3.767      6.063
REMARK INTER + INTRA:          -9.089
REMARK INTER:                  -8.541
REMARK INTRA:                  -0.548
REMARK UNBOUND:                -0.191
REMARK  Name = 
REMARK  6 active torsions:
REMARK  status: ('A' for Active; 'I' for Inactive)
REMARK    1  A    between atoms: C_1  and  C_2
REMARK    2  A    between atoms: C_10  and  C_11
REMARK    3  A    between atoms: C_11  and  O_12
REMARK    4  A    between atoms: O_12  and  C_13
REMARK    5  A    between atoms: C_16  and  C_17
REMARK    6  A    between atoms: C_24  and  C_25
REMARK                            x       y       z     vdW  Elec       q    Type
REMARK                         _______ _______ _______ _____ _____    ______ ____
ROOT
ATOM      1  C   UNL     1      47.598   7.119  19.044  0.00  0.00    +0.000 C 
ATOM      2  C   UNL     1      48.642   6.025  19.267  0.00  0.00    +0.000 C 
ATOM      3  C   UNL     1      49.883   6.197  18.360  0.00  0.00    +0.000 C 
ATOM      4  N   UNL     1      49.551   5.829  16.985  0.00  0.00    +0.000 N 
ATOM      5  C   UNL     1      49.812   6.614  15.891  0.00  0.00    +0.000 A 
ATOM      6  C   UNL     1      50.911   7.474  15.864  0.00  0.00    +0.000 A 
ATOM      7  C   UNL     1      51.162   8.261  14.742  0.00  0.00    +0.000 A 
ATOM      8  C   UNL     1      50.289   8.194  13.672  0.00  0.00    +0.000 A 
ATOM      9  F   UNL     1      50.499   8.969  12.599  0.00  0.00    +0.000 F 
ATOM     10  C   UNL     1      49.196   7.347  13.747  0.00  0.00    +0.000 A 
ATOM     11  N   UNL     1      48.968   6.549  14.832  0.00  0.00    +0.000 NA
ATOM     12  C   UNL     1      48.919   4.516  16.826  0.00  0.00    +0.000 C 
ATOM     13  C   UNL     1      47.715   4.380  17.780  0.00  0.00    +0.000 C 
ATOM     14  C   UNL     1      47.197   2.946  17.790  0.00  0.00    +0.000 C 
ATOM     15  O   UNL     1      48.066   4.712  19.140  0.00  0.00    +0.000 OA
ENDROOT
BRANCH  10  16
ATOM     16  C   UNL     1      48.187   7.329  12.620  0.00  0.00    +0.000 C 
BRANCH  16  17
ATOM     17  O   UNL     1      46.879   7.056  13.126  0.00  0.00    +0.000 OA
BRANCH  17  18
ATOM     18  C   UNL     1      46.165   6.069  12.505  0.00  0.00    +0.000 A 
ATOM     19  C   UNL     1      45.793   6.028  11.163  0.00  0.00    +0.000 A 
ATOM     20  C   UNL     1      45.067   4.935  10.680  0.00  0.00    +0.000 A 
ATOM     21  C   UNL     1      44.733   3.914  11.562  0.00  0.00    +0.000 A 
ATOM     22  N   UNL     1      45.074   3.917  12.880  0.00  0.00    +0.000 NA
ATOM     23  C   UNL     1      45.779   4.996  13.307  0.00  0.00    +0.000 A 
BRANCH  21  24
ATOM     24  C   UNL     1      43.957   2.731  11.068  0.00  0.00    +0.000 C 
ATOM     25  N   UNL     1      44.443   2.142   9.930  0.00  0.00    +0.000 N 
ATOM     26  O   UNL     1      42.953   2.316  11.632  0.00  0.00    +0.000 OA
ATOM     27  H   UNL     1      45.275   2.516   9.488  0.00  0.00    +0.000 HD
ATOM     28  H   UNL     1      43.970   1.340   9.537  0.00  0.00    +0.000 HD
ENDBRANCH  21  24
ENDBRANCH  17  18
ENDBRANCH  16  17
ENDBRANCH  10  16
TORSDOF 4
ENDMDL
MODEL 4
REMARK VINA RESULT:    -6.720      4.202      6.808
REMARK INTER + INTRA:          -8.482
REMARK INTER:                  -7.770
REMARK INTRA:                  -0.713
REMARK UNBOUND:                -0.191
REMARK  Name = 
REMARK  6 active torsions:
REMARK  status: ('A' for Active; 'I' for Inactive)
REMARK    1  A    between atoms: C_1  and  C_2
REMARK    2  A    between atoms: C_10  and  C_11
REMARK    3  A    between atoms: C_11  and  O_12
REMARK    4  A    between atoms: O_12  and  C_13
REMARK    5  A    between atoms: C_16  and  C_17
REMARK    6  A    between atoms: C_24  and  C_25
REMARK                            x       y       z     vdW  Elec       q    Type
REMARK                         _______ _______ _______ _____ _____    ______ ____
ROOT
ATOM      1  C   UNL     1      47.360   3.651  17.934  0.00  0.00    +0.000 C 
ATOM      2  C   UNL     1      48.472   3.995  18.925  0.00  0.00    +0.000 C 
ATOM      3  C   UNL     1      48.833   5.498  18.912  0.00  0.00    +0.000 C 
ATOM      4  N   UNL     1      49.587   5.819  17.701  0.00  0.00    +0.000 N 
ATOM      5  C   UNL     1      49.280   6.850  16.851  0.00  0.00    +0.000 A 
ATOM      6  C   UNL     1      48.681   8.021  17.320  0.00  0.00    +0.000 A 
ATOM      7  C   UNL     1      48.379   9.059  16.441  0.00  0.00    +0.000 A 
ATOM      8  C   UNL     1      48.659   8.897  15.097  0.00  0.00    +0.000 A 
ATOM      9  F   UNL     1      48.346   9.873  14.234  0.00  0.00    +0.000 F 
ATOM     10  C   UNL     1      49.231   7.711  14.667  0.00  0.00    +0.000 A 
ATOM     11  N   UNL     1      49.559   6.706  15.532  0.00  0.00    +0.000 NA
ATOM     12  C   UNL     1      50.748   4.962  17.444  0.00  0.00    +0.000 C 
ATOM     13  C   UNL     1      50.343   3.475  17.510  0.00  0.00    +0.000 C 
ATOM     14  C   UNL     1      51.577   2.581  17.474  0.00  0.00    +0.000 C 
ATOM     15  O   UNL     1      49.631   3.165  18.726  0.00  0.00    +0.000 OA
ENDROOT
BRANCH  10  16
ATOM     16  C   UNL     1      49.462   7.488  13.189  0.00  0.00    +0.000 C 
BRANCH  16  17
ATOM     17  O   UNL     1      48.930   6.223  12.787  0.00  0.00    +0.000 OA
BRANCH  17  18
ATOM     18  C   UNL     1      47.595   6.175  12.493  0.00  0.00    +0.000 A 
ATOM     19  C   UNL     1      46.913   6.977  11.580  0.00  0.00    +0.000 A 
ATOM     20  C   UNL     1      45.540   6.793  11.390  0.00  0.00    +0.000 A 
ATOM     21  C   UNL     1      44.891   5.809  12.126  0.00  0.00    +0.000 A 
ATOM     22  N   UNL     1      45.519   5.008  13.030  0.00  0.00    +0.000 NA
ATOM     23  C   UNL     1      46.851   5.220  13.183  0.00  0.00    +0.000 A 
BRANCH  21  24
ATOM     24  C   UNL     1      43.420   5.591  11.937  0.00  0.00    +0.000 C 
ATOM     25  N   UNL     1      42.684   5.511  13.091  0.00  0.00    +0.000 N 
ATOM     26  O   UNL     1      42.904   5.484  10.832  0.00  0.00    +0.000 OA
ATOM     27  H   UNL     1      43.148   5.601  13.988  0.00  0.00    +0.000 HD
ATOM     28  H   UNL     1      41.686   5.363  13.041  0.00  0.00    +0.000 HD
ENDBRANCH  21  24
ENDBRANCH  17  18
ENDBRANCH  16  17
ENDBRANCH  10  16
TORSDOF 4
ENDMDL
MODEL 5
REMARK VINA RESULT:    -6.554      4.623      6.263
REMARK INTER + INTRA:          -8.277
REMARK INTER:                  -7.885
REMARK INTRA:                  -0.392
REMARK UNBOUND:                -0.191
REMARK  Name = 
REMARK  6 active torsions:
REMARK  status: ('A' for Active; 'I' for Inactive)
REMARK    1  A    between atoms: C_1  and  C_2
REMARK    2  A    between atoms: C_10  and  C_11
REMARK    3  A    between atoms: C_11  and  O_12
REMARK    4  A    between atoms: O_12  and  C_13
REMARK    5  A    between atoms: C_16  and  C_17
REMARK    6  A    between atoms: C_24  and  C_25
REMARK                            x       y       z     vdW  Elec       q    Type
REMARK                         _______ _______ _______ _____ _____    ______ ____
ROOT
ATOM      1  C   UNL     1      50.588   9.248  17.692  0.00  0.00    +0.000 C 
ATOM      2  C   UNL     1      50.398   9.096  19.202  0.00  0.00    +0.000 C 
ATOM      3  C   UNL     1      50.501   7.625  19.666  0.00  0.00    +0.000 C 
ATOM      4  N   UNL     1      49.298   6.893  19.275  0.00  0.00    +0.000 N 
ATOM      5  C   UNL     1      49.306   5.696  18.606  0.00  0.00    +0.000 A 
ATOM      6  C   UNL     1      50.344   4.778  18.777  0.00  0.00    +0.000 A 
ATOM      7  C   UNL     1      50.334   3.566  18.090  0.00  0.00    +0.000 A 
ATOM      8  C   UNL     1      49.293   3.302  17.220  0.00  0.00    +0.000 A 
ATOM      9  F   UNL     1      49.284   2.155  16.528  0.00  0.00    +0.000 F 
ATOM     10  C   UNL     1      48.294   4.249  17.058  0.00  0.00    +0.000 A 
ATOM     11  N   UNL     1      48.286   5.423  17.756  0.00  0.00    +0.000 NA
ATOM     12  C   UNL     1      48.033   7.517  19.669  0.00  0.00    +0.000 C 
ATOM     13  C   UNL     1      47.998   8.992  19.219  0.00  0.00    +0.000 C 
ATOM     14  C   UNL     1      46.795   9.708  19.822  0.00  0.00    +0.000 C 
ATOM     15  O   UNL     1      49.174   9.712  19.643  0.00  0.00    +0.000 OA
ENDROOT
BRANCH  10  16
ATOM     16  C   UNL     1      47.197   4.009  16.044  0.00  0.00    +0.000 C 
BRANCH  16  17
ATOM     17  O   UNL     1      47.613   4.446  14.748  0.00  0.00    +0.000 OA
BRANCH  17  18
ATOM     18  C   UNL     1      46.662   4.467  13.765  0.00  0.00    +0.000 A 
ATOM     19  C   UNL     1      46.109   3.366  13.116  0.00  0.00    +0.000 A 
ATOM     20  C   UNL     1      45.135   3.560  12.133  0.00  0.00    +0.000 A 
ATOM     21  C   UNL     1      44.746   4.858  11.827  0.00  0.00    +0.000 A 
ATOM     22  N   UNL     1      45.264   5.961  12.434  0.00  0.00    +0.000 NA
ATOM     23  C   UNL     1      46.206   5.728  13.382  0.00  0.00    +0.000 A 
BRANCH  21  24
ATOM     24  C   UNL     1      43.702   5.092  10.778  0.00  0.00    +0.000 C 
ATOM     25  N   UNL     1      44.058   4.738   9.503  0.00  0.00    +0.000 N 
ATOM     26  O   UNL     1      42.604   5.573  11.033  0.00  0.00    +0.000 OA
ATOM     27  H   UNL     1      44.977   4.347   9.330  0.00  0.00    +0.000 HD
ATOM     28  H   UNL     1      43.404   4.870   8.744  0.00  0.00    +0.000 HD
ENDBRANCH  21  24
ENDBRANCH  17  18
ENDBRANCH  16  17
ENDBRANCH  10  16
TORSDOF 4
ENDMDL
MODEL 6
REMARK VINA RESULT:    -6.305      4.478      6.061
REMARK INTER + INTRA:          -7.971
REMARK INTER:                  -7.539
REMARK INTRA:                  -0.431
REMARK UNBOUND:                -0.191
REMARK  Name = 
REMARK  6 active torsions:
REMARK  status: ('A' for Active; 'I' for Inactive)
REMARK    1  A    between atoms: C_1  and  C_2
REMARK    2  A    between atoms: C_10  and  C_11
REMARK    3  A    between atoms: C_11  and  O_12
REMARK    4  A    between atoms: O_12  and  C_13
REMARK    5  A    between atoms: C_16  and  C_17
REMARK    6  A    between atoms: C_24  and  C_25
REMARK                            x       y       z     vdW  Elec       q    Type
REMARK                         _______ _______ _______ _____ _____    ______ ____
ROOT
ATOM      1  C   UNL     1      53.128   7.511  16.012  0.00  0.00    +0.000 C 
ATOM      2  C   UNL     1      53.330   7.544  17.527  0.00  0.00    +0.000 C 
ATOM      3  C   UNL     1      52.941   6.210  18.205  0.00  0.00    +0.000 C 
ATOM      4  N   UNL     1      51.486   6.072  18.236  0.00  0.00    +0.000 N 
ATOM      5  C   UNL     1      50.807   4.961  17.804  0.00  0.00    +0.000 A 
ATOM      6  C   UNL     1      51.373   3.688  17.889  0.00  0.00    +0.000 A 
ATOM      7  C   UNL     1      50.667   2.571  17.447  0.00  0.00    +0.000 A 
ATOM      8  C   UNL     1      49.411   2.752  16.899  0.00  0.00    +0.000 A 
ATOM      9  F   UNL     1      48.731   1.692  16.440  0.00  0.00    +0.000 F 
ATOM     10  C   UNL     1      48.893   4.034  16.809  0.00  0.00    +0.000 A 
ATOM     11  N   UNL     1      49.570   5.126  17.273  0.00  0.00    +0.000 NA
ATOM     12  C   UNL     1      50.763   7.216  18.796  0.00  0.00    +0.000 C 
ATOM     13  C   UNL     1      51.216   8.523  18.116  0.00  0.00    +0.000 C 
ATOM     14  C   UNL     1      50.644   9.734  18.845  0.00  0.00    +0.000 C 
ATOM     15  O   UNL     1      52.651   8.665  18.124  0.00  0.00    +0.000 OA
ENDROOT
BRANCH  10  16
ATOM     16  C   UNL     1      47.557   4.253  16.133  0.00  0.00    +0.000 C 
BRANCH  16  17
ATOM     17  O   UNL     1      47.712   5.086  14.982  0.00  0.00    +0.000 OA
BRANCH  17  18
ATOM     18  C   UNL     1      46.854   4.872  13.939  0.00  0.00    +0.000 A 
ATOM     19  C   UNL     1      46.238   5.844  13.154  0.00  0.00    +0.000 A 
ATOM     20  C   UNL     1      45.389   5.455  12.113  0.00  0.00    +0.000 A 
ATOM     21  C   UNL     1      45.180   4.099  11.894  0.00  0.00    +0.000 A 
ATOM     22  N   UNL     1      45.758   3.119  12.641  0.00  0.00    +0.000 NA
ATOM     23  C   UNL     1      46.576   3.539  13.639  0.00  0.00    +0.000 A 
BRANCH  21  24
ATOM     24  C   UNL     1      44.276   3.658  10.784  0.00  0.00    +0.000 C 
ATOM     25  N   UNL     1      44.329   2.323  10.476  0.00  0.00    +0.000 N 
ATOM     26  O   UNL     1      43.541   4.431  10.182  0.00  0.00    +0.000 OA
ATOM     27  H   UNL     1      44.953   1.714  10.993  0.00  0.00    +0.000 HD
ATOM     28  H   UNL     1      43.748   1.955   9.736  0.00  0.00    +0.000 HD
ENDBRANCH  21  24
ENDBRANCH  17  18
ENDBRANCH  16  17
ENDBRANCH  10  16
TORSDOF 4
ENDMDL
MODEL 7
REMARK VINA RESULT:    -6.239      3.547      4.804
REMARK INTER + INTRA:          -7.888
REMARK INTER:                  -7.448
REMARK INTRA:                  -0.440
REMARK UNBOUND:                -0.191
REMARK  Name = 
REMARK  6 active torsions:
REMARK  status: ('A' for Active; 'I' for Inactive)
REMARK    1  A    between atoms: C_1  and  C_2
REMARK    2  A    between atoms: C_10  and  C_11
REMARK    3  A    between atoms: C_11  and  O_12
REMARK    4  A    between atoms: O_12  and  C_13
REMARK    5  A    between atoms: C_16  and  C_17
REMARK    6  A    between atoms: C_24  and  C_25
REMARK                            x       y       z     vdW  Elec       q    Type
REMARK                         _______ _______ _______ _____ _____    ______ ____
ROOT
ATOM      1  C   UNL     1      51.030   8.002  11.902  0.00  0.00    +0.000 C 
ATOM      2  C   UNL     1      50.912   9.295  12.709  0.00  0.00    +0.000 C 
ATOM      3  C   UNL     1      51.013   9.054  14.233  0.00  0.00    +0.000 C 
ATOM      4  N   UNL     1      49.779   8.441  14.723  0.00  0.00    +0.000 N 
ATOM      5  C   UNL     1      49.735   7.311  15.500  0.00  0.00    +0.000 A 
ATOM      6  C   UNL     1      50.764   7.005  16.392  0.00  0.00    +0.000 A 
ATOM      7  C   UNL     1      50.699   5.854  17.174  0.00  0.00    +0.000 A 
ATOM      8  C   UNL     1      49.613   5.011  17.031  0.00  0.00    +0.000 A 
ATOM      9  F   UNL     1      49.551   3.884  17.753  0.00  0.00    +0.000 F 
ATOM     10  C   UNL     1      48.624   5.337  16.118  0.00  0.00    +0.000 A 
ATOM     11  N   UNL     1      48.669   6.482  15.374  0.00  0.00    +0.000 NA
ATOM     12  C   UNL     1      48.546   9.136  14.347  0.00  0.00    +0.000 C 
ATOM     13  C   UNL     1      48.514   9.388  12.826  0.00  0.00    +0.000 C 
ATOM     14  C   UNL     1      47.354  10.307  12.459  0.00  0.00    +0.000 C 
ATOM     15  O   UNL     1      49.721  10.026  12.361  0.00  0.00    +0.000 OA
ENDROOT
BRANCH  10  16
ATOM     16  C   UNL     1      47.474   4.380  15.890  0.00  0.00    +0.000 C 
BRANCH  16  17
ATOM     17  O   UNL     1      47.536   3.833  14.571  0.00  0.00    +0.000 OA
BRANCH  17  18
ATOM     18  C   UNL     1      46.579   4.240  13.683  0.00  0.00    +0.000 A 
ATOM     19  C   UNL     1      46.137   5.544  13.474  0.00  0.00    +0.000 A 
ATOM     20  C   UNL     1      45.151   5.794  12.516  0.00  0.00    +0.000 A 
ATOM     21  C   UNL     1      44.634   4.724  11.795  0.00  0.00    +0.000 A 
ATOM     22  N   UNL     1      45.035   3.435  11.972  0.00  0.00    +0.000 NA
ATOM     23  C   UNL     1      45.994   3.237  12.911  0.00  0.00    +0.000 A 
BRANCH  21  24
ATOM     24  C   UNL     1      43.578   4.967  10.761  0.00  0.00    +0.000 C 
ATOM     25  N   UNL     1      43.941   4.683   9.470  0.00  0.00    +0.000 N 
ATOM     26  O   UNL     1      42.465   5.397  11.040  0.00  0.00    +0.000 OA
ATOM     27  H   UNL     1      44.872   4.332   9.277  0.00  0.00    +0.000 HD
ATOM     28  H   UNL     1      43.279   4.824   8.719  0.00  0.00    +0.000 HD
ENDBRANCH  21  24
ENDBRANCH  17  18
ENDBRANCH  16  17
ENDBRANCH  10  16
TORSDOF 4
ENDMDL
MODEL 8
REMARK VINA RESULT:    -6.107      4.045      8.500
REMARK INTER + INTRA:          -7.725
REMARK INTER:                  -7.231
REMARK INTRA:                  -0.494
REMARK UNBOUND:                -0.191
REMARK  Name = 
REMARK  6 active torsions:
REMARK  status: ('A' for Active; 'I' for Inactive)
REMARK    1  A    between atoms: C_1  and  C_2
REMARK    2  A    between atoms: C_10  and  C_11
REMARK    3  A    between atoms: C_11  and  O_12
REMARK    4  A    between atoms: O_12  and  C_13
REMARK    5  A    between atoms: C_16  and  C_17
REMARK    6  A    between atoms: C_24  and  C_25
REMARK                            x       y       z     vdW  Elec       q    Type
REMARK                         _______ _______ _______ _____ _____    ______ ____
ROOT
ATOM      1  C   UNL     1      45.216   4.547   9.277  0.00  0.00    +0.000 C 
ATOM      2  C   UNL     1      43.812   4.733   9.852  0.00  0.00    +0.000 C 
ATOM      3  C   UNL     1      43.658   6.066  10.618  0.00  0.00    +0.000 C 
ATOM      4  N   UNL     1      44.352   5.986  11.903  0.00  0.00    +0.000 N 
ATOM      5  C   UNL     1      45.250   6.918  12.354  0.00  0.00    +0.000 A 
ATOM      6  C   UNL     1      45.139   8.263  11.997  0.00  0.00    +0.000 A 
ATOM      7  C   UNL     1      46.061   9.196  12.468  0.00  0.00    +0.000 A 
ATOM      8  C   UNL     1      47.099   8.761  13.271  0.00  0.00    +0.000 A 
ATOM      9  F   UNL     1      48.011   9.640  13.706  0.00  0.00    +0.000 F 
ATOM     10  C   UNL     1      47.189   7.414  13.583  0.00  0.00    +0.000 A 
ATOM     11  N   UNL     1      46.267   6.503  13.150  0.00  0.00    +0.000 NA
ATOM     12  C   UNL     1      44.007   4.823  12.726  0.00  0.00    +0.000 C 
ATOM     13  C   UNL     1      44.137   3.525  11.904  0.00  0.00    +0.000 C 
ATOM     14  C   UNL     1      43.562   2.342  12.675  0.00  0.00    +0.000 C 
ATOM     15  O   UNL     1      43.418   3.605  10.655  0.00  0.00    +0.000 OA
ENDROOT
BRANCH  10  16
ATOM     16  C   UNL     1      48.368   6.913  14.389  0.00  0.00    +0.000 C 
BRANCH  16  17
ATOM     17  O   UNL     1      48.160   5.554  14.781  0.00  0.00    +0.000 OA
BRANCH  17  18
ATOM     18  C   UNL     1      48.192   5.282  16.121  0.00  0.00    +0.000 A 
ATOM     19  C   UNL     1      47.463   4.301  16.790  0.00  0.00    +0.000 A 
ATOM     20  C   UNL     1      47.618   4.146  18.171  0.00  0.00    +0.000 A 
ATOM     21  C   UNL     1      48.500   4.985  18.841  0.00  0.00    +0.000 A 
ATOM     22  N   UNL     1      49.227   5.957  18.226  0.00  0.00    +0.000 NA
ATOM     23  C   UNL     1      49.048   6.073  16.886  0.00  0.00    +0.000 A 
BRANCH  21  24
ATOM     24  C   UNL     1      48.685   4.836  20.321  0.00  0.00    +0.000 C 
ATOM     25  N   UNL     1      49.890   4.315  20.715  0.00  0.00    +0.000 N 
ATOM     26  O   UNL     1      47.821   5.150  21.130  0.00  0.00    +0.000 OA
ATOM     27  H   UNL     1      50.579   4.063  20.015  0.00  0.00    +0.000 HD
ATOM     28  H   UNL     1      50.084   4.184  21.698  0.00  0.00    +0.000 HD
ENDBRANCH  21  24
ENDBRANCH  17  18
ENDBRANCH  16  17
ENDBRANCH  10  16
TORSDOF 4
ENDMDL
MODEL 9
REMARK VINA RESULT:    -5.844      3.400      7.861
REMARK INTER + INTRA:          -7.402
REMARK INTER:                  -6.696
REMARK INTRA:                  -0.706
REMARK UNBOUND:                -0.191
REMARK  Name = 
REMARK  6 active torsions:
REMARK  status: ('A' for Active; 'I' for Inactive)
REMARK    1  A    between atoms: C_1  and  C_2
REMARK    2  A    between atoms: C_10  and  C_11
REMARK    3  A    between atoms: C_11  and  O_12
REMARK    4  A    between atoms: O_12  and  C_13
REMARK    5  A    between atoms: C_16  and  C_17
REMARK    6  A    between atoms: C_24  and  C_25
REMARK                            x       y       z     vdW  Elec       q    Type
REMARK                         _______ _______ _______ _____ _____    ______ ____
ROOT
ATOM      1  C   UNL     1      45.239   4.818   9.342  0.00  0.00    +0.000 C 
ATOM      2  C   UNL     1      44.201   4.594  10.443  0.00  0.00    +0.000 C 
ATOM      3  C   UNL     1      43.748   5.915  11.106  0.00  0.00    +0.000 C 
ATOM      4  N   UNL     1      44.804   6.424  11.978  0.00  0.00    +0.000 N 
ATOM      5  C   UNL     1      45.285   7.708  11.939  0.00  0.00    +0.000 A 
ATOM      6  C   UNL     1      44.467   8.776  11.568  0.00  0.00    +0.000 A 
ATOM      7  C   UNL     1      44.974  10.074  11.537  0.00  0.00    +0.000 A 
ATOM      8  C   UNL     1      46.303  10.278  11.854  0.00  0.00    +0.000 A 
ATOM      9  F   UNL     1      46.814  11.516  11.798  0.00  0.00    +0.000 F 
ATOM     10  C   UNL     1      47.090   9.189  12.193  0.00  0.00    +0.000 A 
ATOM     11  N   UNL     1      46.586   7.921  12.257  0.00  0.00    +0.000 NA
ATOM     12  C   UNL     1      45.329   5.461  12.949  0.00  0.00    +0.000 C 
ATOM     13  C   UNL     1      45.728   4.149  12.244  0.00  0.00    +0.000 C 
ATOM     14  C   UNL     1      46.055   3.068  13.268  0.00  0.00    +0.000 C 
ATOM     15  O   UNL     1      44.663   3.639  11.416  0.00  0.00    +0.000 OA
ENDROOT
BRANCH  10  16
ATOM     16  C   UNL     1      48.566   9.389  12.457  0.00  0.00    +0.000 C 
BRANCH  16  17
ATOM     17  O   UNL     1      48.776   9.827  13.801  0.00  0.00    +0.000 OA
BRANCH  17  18
ATOM     18  C   UNL     1      48.907   8.859  14.758  0.00  0.00    +0.000 A 
ATOM     19  C   UNL     1      48.407   8.900  16.058  0.00  0.00    +0.000 A 
ATOM     20  C   UNL     1      48.621   7.817  16.915  0.00  0.00    +0.000 A 
ATOM     21  C   UNL     1      49.335   6.723  16.441  0.00  0.00    +0.000 A 
ATOM     22  N   UNL     1      49.843   6.645  15.180  0.00  0.00    +0.000 NA
ATOM     23  C   UNL     1      49.612   7.718  14.381  0.00  0.00    +0.000 A 
BRANCH  21  24
ATOM     24  C   UNL     1      49.576   5.548  17.340  0.00  0.00    +0.000 C 
ATOM     25  N   UNL     1      49.154   5.701  18.635  0.00  0.00    +0.000 N 
ATOM     26  O   UNL     1      50.118   4.520  16.954  0.00  0.00    +0.000 OA
ATOM     27  H   UNL     1      48.713   6.569  18.919  0.00  0.00    +0.000 HD
ATOM     28  H   UNL     1      49.286   4.950  19.298  0.00  0.00    +0.000 HD
ENDBRANCH  21  24
ENDBRANCH  17  18
ENDBRANCH  16  17
ENDBRANCH  10  16
TORSDOF 4
ENDMDL
