MODEL 1
REMARK VINA RESULT:    -8.955      0.000      0.000
REMARK INTER + INTRA:         -13.624
REMARK INTER:                 -12.881
REMARK INTRA:                  -0.743
REMARK UNBOUND:                -0.743
REMARK  Name = 
REMARK  12 active torsions:
REMARK  status: ('A' for Active; 'I' for Inactive)
REMARK    1  A    between atoms: C_1  and  C_2
REMARK    2  A    between atoms: N_4  and  C_5
REMARK    3  A    between atoms: C_7  and  C_8
REMARK    4  A    between atoms: C_8  and  C_9
REMARK    5  A    between atoms: C_9  and  C_10
REMARK    6  A    between atoms: C_9  and  C_11
REMARK    7  A    between atoms: C_9  and  C_12
REMARK    8  A    between atoms: C_12  and  N_13
REMARK    9  A    between atoms: CA_17  and  C_18
REMARK   10  A    between atoms: C_18  and  OXT_20
REMARK   11  A    between atoms: C_25  and  C_26
REMARK   12  A    between atoms: C_29  and  C_30
REMARK                            x       y       z     vdW  Elec       q    Type
REMARK                         _______ _______ _______ _____ _____    ______ ____
ROOT
ATOM      1  C   UNL     1      45.570   4.695  12.091  0.00  0.00    +0.000 C 
ENDROOT
BRANCH   1   4
ATOM      2  C   UNL     1      47.608   5.168  15.351  0.00  0.00    +0.000 A 
ATOM      3  C   UNL     1      46.696   4.685  14.383  0.00  0.00    +0.000 A 
ATOM      4  C   UNL     1      46.560   5.254  13.101  0.00  0.00    +0.000 A 
ATOM      5  C   UNL     1      47.353   6.357  12.777  0.00  0.00    +0.000 A 
ATOM      6  C   UNL     1      48.273   6.854  13.699  0.00  0.00    +0.000 A 
ATOM      7  C   UNL     1      48.415   6.267  14.968  0.00  0.00    +0.000 A 
BRANCH   2  11
ATOM      8  C   UNL     1      50.430   3.364  17.430  0.00  0.00    +0.000 C 
ATOM      9  C   UNL     1      49.034   2.921  17.870  0.00  0.00    +0.000 C 
ATOM     10  C   UNL     1      47.992   3.110  16.740  0.00  0.00    +0.000 C 
ATOM     11  N   UNL     1      47.708   4.545  16.582  0.00  0.00    +0.000 N 
ATOM     12  C   UNL     1      47.240   5.164  17.836  0.00  0.00    +0.000 C 
ATOM     13  C   UNL     1      48.324   4.972  18.918  0.00  0.00    +0.000 C 
ATOM     14  C   UNL     1      47.855   5.524  20.257  0.00  0.00    +0.000 C 
ATOM     15  O   UNL     1      48.632   3.572  19.095  0.00  0.00    +0.000 OA
ENDBRANCH   2  11
BRANCH   7  16
ATOM     16  C   UNL     1      49.461   6.790  15.806  0.00  0.00    +0.000 C 
ATOM     17  N   UNL     1      50.300   7.194  16.505  0.00  0.00    +0.000 NA
ENDBRANCH   7  16
ENDBRANCH   1   4
BRANCH   1  18
ATOM     18  C   UNL     1      44.219   5.464  11.908  0.00  0.00    +0.000 C 
ATOM     19  C   UNL     1      43.446   5.527  13.243  0.00  0.00    +0.000 C 
ATOM     20  C   UNL     1      44.489   6.886  11.376  0.00  0.00    +0.000 C 
BRANCH  18  21
ATOM     21  C   UNL     1      43.343   4.687  10.868  0.00  0.00    +0.000 C 
BRANCH  21  22
ATOM     22  N   UNL     1      43.924   4.759   9.535  0.00  0.00    +0.000 N 
ATOM     23  C   UNL     1      44.768   3.803   9.029  0.00  0.00    +0.000 A 
ATOM     24  C   UNL     1      44.710   2.438   9.317  0.00  0.00    +0.000 A 
ATOM     25  N   UNL     1      45.516   1.503   8.745  0.00  0.00    +0.000 NA
ATOM     26  CA  UNL     1      46.392   2.008   7.827  0.00  0.00    +0.000 A 
ATOM     27  C   UNL     1      46.461   3.351   7.515  0.00  0.00    +0.000 A 
ATOM     28  N   UNL     1      45.656   4.265   8.116  0.00  0.00    +0.000 NA
ATOM     29  H   UNL     1      44.287   5.663   9.240  0.00  0.00    +0.000 HD
BRANCH  26  30
ATOM     30  C   UNL     1      47.281   1.030   7.160  0.00  0.00    +0.000 C 
ATOM     31  O   UNL     1      48.067   1.297   6.270  0.00  0.00    +0.000 OA
BRANCH  30  32
ATOM     32  OXT UNL     1      47.097  -0.208   7.682  0.00  0.00    +0.000 OA
ATOM     33  HXT UNL     1      46.129  -0.384   7.764  0.00  0.00    +0.000 HD
ENDBRANCH  30  32
ENDBRANCH  26  30
ENDBRANCH  21  22
ENDBRANCH  18  21
ENDBRANCH   1  18
TORSDOF 8
ENDMDL
MODEL 2
REMARK VINA RESULT:    -8.280      1.982      3.423
REMARK INTER + INTRA:         -12.653
REMARK INTER:                 -11.749
REMARK INTRA:                  -0.904
REMARK UNBOUND:                -0.743
REMARK  Name = 
REMARK  12 active torsions:
REMARK  status: ('A' for Active; 'I' for Inactive)
REMARK    1  A    between atoms: C_1  and  C_2
REMARK    2  A    between atoms: N_4  and  C_5
REMARK    3  A    between atoms: C_7  and  C_8
REMARK    4  A    between atoms: C_8  and  C_9
REMARK    5  A    between atoms: C_9  and  C_10
REMARK    6  A    between atoms: C_9  and  C_11
REMARK    7  A    between atoms: C_9  and  C_12
REMARK    8  A    between atoms: C_12  and  N_13
REMARK    9  A    between atoms: CA_17  and  C_18
REMARK   10  A    between atoms: C_18  and  OXT_20
REMARK   11  A    between atoms: C_25  and  C_26
REMARK   12  A    between atoms: C_29  and  C_30
REMARK                            x       y       z     vdW  Elec       q    Type
REMARK                         _______ _______ _______ _____ _____    ______ ____
ROOT
ATOM      1  C   UNL     1      45.627   4.733  11.984  0.00  0.00    +0.000 C 
ENDROOT
BRANCH   1   4
ATOM      2  C   UNL     1      48.053   6.507  14.427  0.00  0.00    +0.000 A 
ATOM      3  C   UNL     1      47.256   6.193  13.302  0.00  0.00    +0.000 A 
ATOM      4  C   UNL     1      46.475   5.023  13.212  0.00  0.00    +0.000 A 
ATOM      5  C   UNL     1      46.505   4.122  14.279  0.00  0.00    +0.000 A 
ATOM      6  C   UNL     1      47.269   4.401  15.411  0.00  0.00    +0.000 A 
ATOM      7  C   UNL     1      48.028   5.581  15.499  0.00  0.00    +0.000 A 
BRANCH   2  11
ATOM      8  C   UNL     1      48.467   9.546  16.904  0.00  0.00    +0.000 C 
ATOM      9  C   UNL     1      48.847   9.927  15.472  0.00  0.00    +0.000 C 
ATOM     10  C   UNL     1      48.148   9.017  14.433  0.00  0.00    +0.000 C 
ATOM     11  N   UNL     1      48.775   7.687  14.460  0.00  0.00    +0.000 N 
ATOM     12  C   UNL     1      50.227   7.747  14.211  0.00  0.00    +0.000 C 
ATOM     13  C   UNL     1      50.877   8.642  15.288  0.00  0.00    +0.000 C 
ATOM     14  C   UNL     1      52.368   8.803  15.029  0.00  0.00    +0.000 C 
ATOM     15  O   UNL     1      50.279   9.958  15.293  0.00  0.00    +0.000 OA
ENDBRANCH   2  11
BRANCH   7  16
ATOM     16  C   UNL     1      48.700   5.822  16.747  0.00  0.00    +0.000 C 
ATOM     17  N   UNL     1      49.230   6.042  17.762  0.00  0.00    +0.000 NA
ENDBRANCH   7  16
ENDBRANCH   1   4
BRANCH   1  18
ATOM     18  C   UNL     1      44.258   5.482  11.864  0.00  0.00    +0.000 C 
ATOM     19  C   UNL     1      43.535   5.511  13.226  0.00  0.00    +0.000 C 
ATOM     20  C   UNL     1      44.485   6.917  11.345  0.00  0.00    +0.000 C 
BRANCH  18  21
ATOM     21  C   UNL     1      43.357   4.707  10.844  0.00  0.00    +0.000 C 
BRANCH  21  22
ATOM     22  N   UNL     1      43.920   4.757   9.502  0.00  0.00    +0.000 N 
ATOM     23  C   UNL     1      44.764   3.796   9.004  0.00  0.00    +0.000 A 
ATOM     24  C   UNL     1      44.718   2.437   9.320  0.00  0.00    +0.000 A 
ATOM     25  N   UNL     1      45.523   1.495   8.756  0.00  0.00    +0.000 NA
ATOM     26  CA  UNL     1      46.383   1.987   7.817  0.00  0.00    +0.000 A 
ATOM     27  C   UNL     1      46.440   3.325   7.478  0.00  0.00    +0.000 A 
ATOM     28  N   UNL     1      45.637   4.245   8.071  0.00  0.00    +0.000 NA
ATOM     29  H   UNL     1      44.274   5.657   9.185  0.00  0.00    +0.000 HD
BRANCH  26  30
ATOM     30  C   UNL     1      47.270   1.002   7.158  0.00  0.00    +0.000 C 
ATOM     31  O   UNL     1      48.067   1.262   6.275  0.00  0.00    +0.000 OA
BRANCH  30  32
ATOM     32  OXT UNL     1      47.071  -0.234   7.678  0.00  0.00    +0.000 OA
ATOM     33  HXT UNL     1      46.586  -0.150   8.533  0.00  0.00    +0.000 HD
ENDBRANCH  30  32
ENDBRANCH  26  30
ENDBRANCH  21  22
ENDBRANCH  18  21
ENDBRANCH   1  18
TORSDOF 8
ENDMDL
MODEL 3
REMARK VINA RESULT:    -7.685      3.406      4.292
REMARK INTER + INTRA:         -11.798
REMARK INTER:                 -10.926
REMARK INTRA:                  -0.872
REMARK UNBOUND:                -0.743
REMARK  Name = 
REMARK  12 active torsions:
REMARK  status: ('A' for Active; 'I' for Inactive)
REMARK    1  A    between atoms: C_1  and  C_2
REMARK    2  A    between atoms: N_4  and  C_5
REMARK    3  A    between atoms: C_7  and  C_8
REMARK    4  A    between atoms: C_8  and  C_9
REMARK    5  A    between atoms: C_9  and  C_10
REMARK    6  A    between atoms: C_9  and  C_11
REMARK    7  A    between atoms: C_9  and  C_12
REMARK    8  A    between atoms: C_12  and  N_13
REMARK    9  A    between atoms: CA_17  and  C_18
REMARK   10  A    between atoms: C_18  and  OXT_20
REMARK   11  A    between atoms: C_25  and  C_26
REMARK   12  A    between atoms: C_29  and  C_30
REMARK                            x       y       z     vdW  Elec       q    Type
REMARK                         _______ _______ _______ _____ _____    ______ ____
ROOT
ATOM      1  C   UNL     1      45.208   6.296  10.953  0.00  0.00    +0.000 C 
ENDROOT
BRANCH   1   4
ATOM      2  C   UNL     1      48.207   8.197  12.500  0.00  0.00    +0.000 A 
ATOM      3  C   UNL     1      47.405   7.212  11.878  0.00  0.00    +0.000 A 
ATOM      4  C   UNL     1      46.027   7.382  11.633  0.00  0.00    +0.000 A 
ATOM      5  C   UNL     1      45.424   8.574  12.038  0.00  0.00    +0.000 A 
ATOM      6  C   UNL     1      46.184   9.574  12.643  0.00  0.00    +0.000 A 
ATOM      7  C   UNL     1      47.560   9.403  12.865  0.00  0.00    +0.000 A 
BRANCH   2  11
ATOM      8  C   UNL     1      51.567  10.077  11.651  0.00  0.00    +0.000 C 
ATOM      9  C   UNL     1      51.793   8.577  11.850  0.00  0.00    +0.000 C 
ATOM     10  C   UNL     1      50.504   7.763  11.579  0.00  0.00    +0.000 C 
ATOM     11  N   UNL     1      49.560   7.974  12.687  0.00  0.00    +0.000 N 
ATOM     12  C   UNL     1      50.142   7.614  13.994  0.00  0.00    +0.000 C 
ATOM     13  C   UNL     1      51.404   8.471  14.226  0.00  0.00    +0.000 C 
ATOM     14  C   UNL     1      52.090   8.081  15.528  0.00  0.00    +0.000 C 
ATOM     15  O   UNL     1      52.353   8.293  13.151  0.00  0.00    +0.000 OA
ENDBRANCH   2  11
BRANCH   7  16
ATOM     16  C   UNL     1      48.272  10.531  13.403  0.00  0.00    +0.000 C 
ATOM     17  N   UNL     1      48.840  11.461  13.816  0.00  0.00    +0.000 NA
ENDBRANCH   7  16
ENDBRANCH   1   4
BRANCH   1  18
ATOM     18  C   UNL     1      44.470   5.270  11.875  0.00  0.00    +0.000 C 
ATOM     19  C   UNL     1      45.480   4.301  12.525  0.00  0.00    +0.000 C 
ATOM     20  C   UNL     1      43.667   6.017  12.960  0.00  0.00    +0.000 C 
BRANCH  18  21
ATOM     21  C   UNL     1      43.482   4.433  10.995  0.00  0.00    +0.000 C 
BRANCH  21  22
ATOM     22  N   UNL     1      43.836   4.516   9.585  0.00  0.00    +0.000 N 
ATOM     23  C   UNL     1      44.739   3.675   8.985  0.00  0.00    +0.000 A 
ATOM     24  C   UNL     1      44.947   2.337   9.324  0.00  0.00    +0.000 A 
ATOM     25  N   UNL     1      45.800   1.506   8.664  0.00  0.00    +0.000 NA
ATOM     26  CA  UNL     1      46.433   2.087   7.603  0.00  0.00    +0.000 A 
ATOM     27  C   UNL     1      46.235   3.404   7.239  0.00  0.00    +0.000 A 
ATOM     28  N   UNL     1      45.392   4.215   7.928  0.00  0.00    +0.000 NA
ATOM     29  H   UNL     1      43.999   5.447   9.206  0.00  0.00    +0.000 HD
BRANCH  26  30
ATOM     30  C   UNL     1      47.359   1.221   6.837  0.00  0.00    +0.000 C 
ATOM     31  O   UNL     1      48.309   1.619   6.188  0.00  0.00    +0.000 OA
BRANCH  30  32
ATOM     32  OXT UNL     1      47.001  -0.080   6.963  0.00  0.00    +0.000 OA
ATOM     33  HXT UNL     1      46.162  -0.234   6.465  0.00  0.00    +0.000 HD
ENDBRANCH  30  32
ENDBRANCH  26  30
ENDBRANCH  21  22
ENDBRANCH  18  21
ENDBRANCH   1  18
TORSDOF 8
ENDMDL
MODEL 4
REMARK VINA RESULT:    -6.842      2.514      4.325
REMARK INTER + INTRA:         -10.585
REMARK INTER:                  -9.437
REMARK INTRA:                  -1.147
REMARK UNBOUND:                -0.743
REMARK  Name = 
REMARK  12 active torsions:
REMARK  status: ('A' for Active; 'I' for Inactive)
REMARK    1  A    between atoms: C_1  and  C_2
REMARK    2  A    between atoms: N_4  and  C_5
REMARK    3  A    between atoms: C_7  and  C_8
REMARK    4  A    between atoms: C_8  and  C_9
REMARK    5  A    between atoms: C_9  and  C_10
REMARK    6  A    between atoms: C_9  and  C_11
REMARK    7  A    between atoms: C_9  and  C_12
REMARK    8  A    between atoms: C_12  and  N_13
REMARK    9  A    between atoms: CA_17  and  C_18
REMARK   10  A    between atoms: C_18  and  OXT_20
REMARK   11  A    between atoms: C_25  and  C_26
REMARK   12  A    between atoms: C_29  and  C_30
REMARK                            x       y       z     vdW  Elec       q    Type
REMARK                         _______ _______ _______ _____ _____    ______ ____
ROOT
ATOM      1  C   UNL     1      49.170   9.334  13.847  0.00  0.00    +0.000 C 
ENDROOT
BRANCH   1   4
ATOM      2  C   UNL     1      49.828   6.514  16.420  0.00  0.00    +0.000 A 
ATOM      3  C   UNL     1      49.192   7.453  15.574  0.00  0.00    +0.000 A 
ATOM      4  C   UNL     1      49.899   8.347  14.745  0.00  0.00    +0.000 A 
ATOM      5  C   UNL     1      51.295   8.315  14.773  0.00  0.00    +0.000 A 
ATOM      6  C   UNL     1      51.959   7.395  15.584  0.00  0.00    +0.000 A 
ATOM      7  C   UNL     1      51.244   6.494  16.391  0.00  0.00    +0.000 A 
BRANCH   2  11
ATOM      8  C   UNL     1      49.684   2.626  17.054  0.00  0.00    +0.000 C 
ATOM      9  C   UNL     1      48.355   3.303  17.391  0.00  0.00    +0.000 C 
ATOM     10  C   UNL     1      48.176   4.631  16.614  0.00  0.00    +0.000 C 
ATOM     11  N   UNL     1      49.072   5.647  17.189  0.00  0.00    +0.000 N 
ATOM     12  C   UNL     1      48.839   5.848  18.631  0.00  0.00    +0.000 C 
ATOM     13  C   UNL     1      49.055   4.504  19.359  0.00  0.00    +0.000 C 
ATOM     14  C   UNL     1      48.748   4.639  20.844  0.00  0.00    +0.000 C 
ATOM     15  O   UNL     1      48.194   3.480  18.815  0.00  0.00    +0.000 OA
ENDBRANCH   2  11
BRANCH   7  16
ATOM     16  C   UNL     1      52.020   5.521  17.112  0.00  0.00    +0.000 C 
ATOM     17  N   UNL     1      52.627   4.730  17.716  0.00  0.00    +0.000 NA
ENDBRANCH   7  16
ENDBRANCH   1   4
BRANCH   1  18
ATOM     18  C   UNL     1      48.720   8.825  12.437  0.00  0.00    +0.000 C 
ATOM     19  C   UNL     1      48.800   9.964  11.399  0.00  0.00    +0.000 C 
ATOM     20  C   UNL     1      49.601   7.636  12.000  0.00  0.00    +0.000 C 
BRANCH  18  21
ATOM     21  C   UNL     1      47.232   8.349  12.533  0.00  0.00    +0.000 C 
BRANCH  21  22
ATOM     22  N   UNL     1      47.148   6.984  13.034  0.00  0.00    +0.000 N 
ATOM     23  C   UNL     1      46.305   6.039  12.505  0.00  0.00    +0.000 A 
ATOM     24  C   UNL     1      45.933   5.947  11.163  0.00  0.00    +0.000 A 
ATOM     25  N   UNL     1      45.152   4.955  10.654  0.00  0.00    +0.000 NA
ATOM     26  CA  UNL     1      44.770   4.020  11.573  0.00  0.00    +0.000 A 
ATOM     27  C   UNL     1      45.135   4.081  12.903  0.00  0.00    +0.000 A 
ATOM     28  N   UNL     1      45.901   5.093  13.387  0.00  0.00    +0.000 NA
ATOM     29  H   UNL     1      47.131   6.866  14.045  0.00  0.00    +0.000 HD
BRANCH  26  30
ATOM     30  C   UNL     1      43.934   2.907  11.068  0.00  0.00    +0.000 C 
ATOM     31  O   UNL     1      42.875   2.556  11.554  0.00  0.00    +0.000 OA
BRANCH  30  32
ATOM     32  OXT UNL     1      44.513   2.335   9.984  0.00  0.00    +0.000 OA
ATOM     33  HXT UNL     1      45.473   2.195  10.167  0.00  0.00    +0.000 HD
ENDBRANCH  30  32
ENDBRANCH  26  30
ENDBRANCH  21  22
ENDBRANCH  18  21
ENDBRANCH   1  18
TORSDOF 8
ENDMDL
MODEL 5
REMARK VINA RESULT:    -6.775      3.141      5.003
REMARK INTER + INTRA:         -10.488
REMARK INTER:                 -10.166
REMARK INTRA:                  -0.322
REMARK UNBOUND:                -0.743
REMARK  Name = 
REMARK  12 active torsions:
REMARK  status: ('A' for Active; 'I' for Inactive)
REMARK    1  A    between atoms: C_1  and  C_2
REMARK    2  A    between atoms: N_4  and  C_5
REMARK    3  A    between atoms: C_7  and  C_8
REMARK    4  A    between atoms: C_8  and  C_9
REMARK    5  A    between atoms: C_9  and  C_10
REMARK    6  A    between atoms: C_9  and  C_11
REMARK    7  A    between atoms: C_9  and  C_12
REMARK    8  A    between atoms: C_12  and  N_13
REMARK    9  A    between atoms: CA_17  and  C_18
REMARK   10  A    between atoms: C_18  and  OXT_20
REMARK   11  A    between atoms: C_25  and  C_26
REMARK   12  A    between atoms: C_29  and  C_30
REMARK                            x       y       z     vdW  Elec       q    Type
REMARK                         _______ _______ _______ _____ _____    ______ ____
ROOT
ATOM      1  C   UNL     1      44.994   6.346  11.785  0.00  0.00    +0.000 C 
ENDROOT
BRANCH   1   4
ATOM      2  C   UNL     1      48.641   7.489  12.415  0.00  0.00    +0.000 A 
ATOM      3  C   UNL     1      47.382   7.250  11.815  0.00  0.00    +0.000 A 
ATOM      4  C   UNL     1      46.333   6.572  12.468  0.00  0.00    +0.000 A 
ATOM      5  C   UNL     1      46.555   6.099  13.763  0.00  0.00    +0.000 A 
ATOM      6  C   UNL     1      47.778   6.325  14.393  0.00  0.00    +0.000 A 
ATOM      7  C   UNL     1      48.809   7.021  13.741  0.00  0.00    +0.000 A 
BRANCH   2  11
ATOM      8  C   UNL     1      50.952  10.611  13.089  0.00  0.00    +0.000 C 
ATOM      9  C   UNL     1      50.773  10.353  11.592  0.00  0.00    +0.000 C 
ATOM     10  C   UNL     1      49.461   9.585  11.297  0.00  0.00    +0.000 C 
ATOM     11  N   UNL     1      49.618   8.186  11.725  0.00  0.00    +0.000 N 
ATOM     12  C   UNL     1      50.768   7.528  11.079  0.00  0.00    +0.000 C 
ATOM     13  C   UNL     1      52.048   8.316  11.426  0.00  0.00    +0.000 C 
ATOM     14  C   UNL     1      53.257   7.723  10.715  0.00  0.00    +0.000 C 
ATOM     15  O   UNL     1      51.927   9.698  11.023  0.00  0.00    +0.000 OA
ENDBRANCH   2  11
BRANCH   7  16
ATOM     16  C   UNL     1      49.994   7.289  14.512  0.00  0.00    +0.000 C 
ATOM     17  N   UNL     1      50.944   7.533  15.141  0.00  0.00    +0.000 NA
ENDBRANCH   7  16
ENDBRANCH   1   4
BRANCH   1  18
ATOM     18  C   UNL     1      44.224   5.028  12.130  0.00  0.00    +0.000 C 
ATOM     19  C   UNL     1      45.157   4.028  12.846  0.00  0.00    +0.000 C 
ATOM     20  C   UNL     1      42.999   5.347  13.011  0.00  0.00    +0.000 C 
BRANCH  18  21
ATOM     21  C   UNL     1      43.735   4.375  10.793  0.00  0.00    +0.000 C 
BRANCH  21  22
ATOM     22  N   UNL     1      44.525   3.196  10.465  0.00  0.00    +0.000 N 
ATOM     23  C   UNL     1      45.240   3.070   9.300  0.00  0.00    +0.000 A 
ATOM     24  C   UNL     1      45.860   4.115   8.614  0.00  0.00    +0.000 A 
ATOM     25  N   UNL     1      46.623   3.949   7.499  0.00  0.00    +0.000 NA
ATOM     26  CA  UNL     1      46.758   2.649   7.105  0.00  0.00    +0.000 A 
ATOM     27  C   UNL     1      46.165   1.596   7.773  0.00  0.00    +0.000 A 
ATOM     28  N   UNL     1      45.394   1.793   8.873  0.00  0.00    +0.000 NA
ATOM     29  H   UNL     1      44.100   2.290  10.653  0.00  0.00    +0.000 HD
BRANCH  26  30
ATOM     30  C   UNL     1      47.594   2.410   5.906  0.00  0.00    +0.000 C 
ATOM     31  O   UNL     1      48.544   1.650   5.859  0.00  0.00    +0.000 OA
BRANCH  30  32
ATOM     32  OXT UNL     1      47.150   3.156   4.865  0.00  0.00    +0.000 OA
ATOM     33  HXT UNL     1      46.399   2.687   4.428  0.00  0.00    +0.000 HD
ENDBRANCH  30  32
ENDBRANCH  26  30
ENDBRANCH  21  22
ENDBRANCH  18  21
ENDBRANCH   1  18
TORSDOF 8
ENDMDL
MODEL 6
REMARK VINA RESULT:    -6.681      2.739      4.537
REMARK INTER + INTRA:         -10.354
REMARK INTER:                  -9.420
REMARK INTRA:                  -0.933
REMARK UNBOUND:                -0.743
REMARK  Name = 
REMARK  12 active torsions:
REMARK  status: ('A' for Active; 'I' for Inactive)
REMARK    1  A    between atoms: C_1  and  C_2
REMARK    2  A    between atoms: N_4  and  C_5
REMARK    3  A    between atoms: C_7  and  C_8
REMARK    4  A    between atoms: C_8  and  C_9
REMARK    5  A    between atoms: C_9  and  C_10
REMARK    6  A    between atoms: C_9  and  C_11
REMARK    7  A    between atoms: C_9  and  C_12
REMARK    8  A    between atoms: C_12  and  N_13
REMARK    9  A    between atoms: CA_17  and  C_18
REMARK   10  A    between atoms: C_18  and  OXT_20
REMARK   11  A    between atoms: C_25  and  C_26
REMARK   12  A    between atoms: C_29  and  C_30
REMARK                            x       y       z     vdW  Elec       q    Type
REMARK                         _______ _______ _______ _____ _____    ______ ____
ROOT
ATOM      1  C   UNL     1      49.291   9.013  14.366  0.00  0.00    +0.000 C 
ENDROOT
BRANCH   1   4
ATOM      2  C   UNL     1      48.648   6.766  17.455  0.00  0.00    +0.000 A 
ATOM      3  C   UNL     1      49.015   7.225  16.168  0.00  0.00    +0.000 A 
ATOM      4  C   UNL     1      48.874   8.566  15.758  0.00  0.00    +0.000 A 
ATOM      5  C   UNL     1      48.330   9.482  16.662  0.00  0.00    +0.000 A 
ATOM      6  C   UNL     1      47.967   9.071  17.944  0.00  0.00    +0.000 A 
ATOM      7  C   UNL     1      48.131   7.736  18.349  0.00  0.00    +0.000 A 
BRANCH   2  11
ATOM      8  C   UNL     1      47.788   3.247  15.900  0.00  0.00    +0.000 C 
ATOM      9  C   UNL     1      47.999   3.160  17.412  0.00  0.00    +0.000 C 
ATOM     10  C   UNL     1      47.732   4.519  18.106  0.00  0.00    +0.000 C 
ATOM     11  N   UNL     1      48.838   5.440  17.801  0.00  0.00    +0.000 N 
ATOM     12  C   UNL     1      50.147   4.895  18.203  0.00  0.00    +0.000 C 
ATOM     13  C   UNL     1      50.375   3.558  17.465  0.00  0.00    +0.000 C 
ATOM     14  C   UNL     1      51.681   2.912  17.907  0.00  0.00    +0.000 C 
ATOM     15  O   UNL     1      49.302   2.630  17.738  0.00  0.00    +0.000 OA
ENDBRANCH   2  11
BRANCH   7  16
ATOM     16  C   UNL     1      47.821   7.437  19.722  0.00  0.00    +0.000 C 
ATOM     17  N   UNL     1      47.577   7.168  20.829  0.00  0.00    +0.000 NA
ENDBRANCH   7  16
ENDBRANCH   1   4
BRANCH   1  18
ATOM     18  C   UNL     1      48.487   8.433  13.155  0.00  0.00    +0.000 C 
ATOM     19  C   UNL     1      48.506   9.421  11.970  0.00  0.00    +0.000 C 
ATOM     20  C   UNL     1      49.079   7.073  12.731  0.00  0.00    +0.000 C 
BRANCH  18  21
ATOM     21  C   UNL     1      47.000   8.227  13.600  0.00  0.00    +0.000 C 
BRANCH  21  22
ATOM     22  N   UNL     1      46.157   7.872  12.467  0.00  0.00    +0.000 N 
ATOM     23  C   UNL     1      45.682   6.603  12.251  0.00  0.00    +0.000 A 
ATOM     24  C   UNL     1      45.341   5.686  13.247  0.00  0.00    +0.000 A 
ATOM     25  N   UNL     1      44.804   4.459  13.004  0.00  0.00    +0.000 NA
ATOM     26  CA  UNL     1      44.596   4.195  11.681  0.00  0.00    +0.000 A 
ATOM     27  C   UNL     1      44.913   5.088  10.677  0.00  0.00    +0.000 A 
ATOM     28  N   UNL     1      45.465   6.299  10.949  0.00  0.00    +0.000 NA
ATOM     29  H   UNL     1      46.424   8.248  11.559  0.00  0.00    +0.000 HD
BRANCH  26  30
ATOM     30  C   UNL     1      43.996   2.879  11.361  0.00  0.00    +0.000 C 
ATOM     31  O   UNL     1      43.793   2.462  10.236  0.00  0.00    +0.000 OA
BRANCH  30  32
ATOM     32  OXT UNL     1      43.707   2.203  12.500  0.00  0.00    +0.000 OA
ATOM     33  HXT UNL     1      43.284   1.342  12.266  0.00  0.00    +0.000 HD
ENDBRANCH  30  32
ENDBRANCH  26  30
ENDBRANCH  21  22
ENDBRANCH  18  21
ENDBRANCH   1  18
TORSDOF 8
ENDMDL
MODEL 7
REMARK VINA RESULT:    -6.562      3.620      5.374
REMARK INTER + INTRA:         -10.182
REMARK INTER:                  -8.849
REMARK INTRA:                  -1.333
REMARK UNBOUND:                -0.743
REMARK  Name = 
REMARK  12 active torsions:
REMARK  status: ('A' for Active; 'I' for Inactive)
REMARK    1  A    between atoms: C_1  and  C_2
REMARK    2  A    between atoms: N_4  and  C_5
REMARK    3  A    between atoms: C_7  and  C_8
REMARK    4  A    between atoms: C_8  and  C_9
REMARK    5  A    between atoms: C_9  and  C_10
REMARK    6  A    between atoms: C_9  and  C_11
REMARK    7  A    between atoms: C_9  and  C_12
REMARK    8  A    between atoms: C_12  and  N_13
REMARK    9  A    between atoms: CA_17  and  C_18
REMARK   10  A    between atoms: C_18  and  OXT_20
REMARK   11  A    between atoms: C_25  and  C_26
REMARK   12  A    between atoms: C_29  and  C_30
REMARK                            x       y       z     vdW  Elec       q    Type
REMARK                         _______ _______ _______ _____ _____    ______ ____
ROOT
ATOM      1  C   UNL     1      50.629   9.597  13.390  0.00  0.00    +0.000 C 
ENDROOT
BRANCH   1   4
ATOM      2  C   UNL     1      49.352   7.403  16.315  0.00  0.00    +0.000 A 
ATOM      3  C   UNL     1      49.994   7.844  15.134  0.00  0.00    +0.000 A 
ATOM      4  C   UNL     1      49.914   9.169  14.661  0.00  0.00    +0.000 A 
ATOM      5  C   UNL     1      49.149  10.086  15.386  0.00  0.00    +0.000 A 
ATOM      6  C   UNL     1      48.511   9.694  16.561  0.00  0.00    +0.000 A 
ATOM      7  C   UNL     1      48.615   8.375  17.035  0.00  0.00    +0.000 A 
BRANCH   2  11
ATOM      8  C   UNL     1      50.251   5.554  19.679  0.00  0.00    +0.000 C 
ATOM      9  C   UNL     1      50.531   4.676  18.459  0.00  0.00    +0.000 C 
ATOM     10  C   UNL     1      50.775   5.525  17.187  0.00  0.00    +0.000 C 
ATOM     11  N   UNL     1      49.494   6.093  16.736  0.00  0.00    +0.000 N 
ATOM     12  C   UNL     1      48.478   5.054  16.487  0.00  0.00    +0.000 C 
ATOM     13  C   UNL     1      48.255   4.257  17.790  0.00  0.00    +0.000 C 
ATOM     14  C   UNL     1      47.270   3.118  17.564  0.00  0.00    +0.000 C 
ATOM     15  O   UNL     1      49.495   3.689  18.265  0.00  0.00    +0.000 OA
ENDBRANCH   2  11
BRANCH   7  16
ATOM     16  C   UNL     1      48.003   8.098  18.307  0.00  0.00    +0.000 C 
ATOM     17  N   UNL     1      47.513   7.900  19.346  0.00  0.00    +0.000 NA
ENDBRANCH   7  16
ENDBRANCH   1   4
BRANCH   1  18
ATOM     18  C   UNL     1      49.986   9.176  12.027  0.00  0.00    +0.000 C 
ATOM     19  C   UNL     1      50.019  10.350  11.026  0.00  0.00    +0.000 C 
ATOM     20  C   UNL     1      50.729   7.954  11.448  0.00  0.00    +0.000 C 
BRANCH  18  21
ATOM     21  C   UNL     1      48.490   8.790  12.283  0.00  0.00    +0.000 C 
BRANCH  21  22
ATOM     22  N   UNL     1      48.296   7.350  12.186  0.00  0.00    +0.000 N 
ATOM     23  C   UNL     1      47.103   6.731  12.465  0.00  0.00    +0.000 A 
ATOM     24  C   UNL     1      45.837   7.275  12.240  0.00  0.00    +0.000 A 
ATOM     25  N   UNL     1      44.671   6.610  12.460  0.00  0.00    +0.000 NA
ATOM     26  CA  UNL     1      44.835   5.330  12.904  0.00  0.00    +0.000 A 
ATOM     27  C   UNL     1      46.075   4.763  13.123  0.00  0.00    +0.000 A 
ATOM     28  N   UNL     1      47.223   5.458  12.912  0.00  0.00    +0.000 NA
ATOM     29  H   UNL     1      49.033   6.759  12.566  0.00  0.00    +0.000 HD
BRANCH  26  30
ATOM     30  C   UNL     1      43.596   4.553  13.142  0.00  0.00    +0.000 C 
ATOM     31  O   UNL     1      43.509   3.342  13.066  0.00  0.00    +0.000 OA
BRANCH  30  32
ATOM     32  OXT UNL     1      42.572   5.383  13.459  0.00  0.00    +0.000 OA
ATOM     33  HXT UNL     1      41.869   4.867  13.920  0.00  0.00    +0.000 HD
ENDBRANCH  30  32
ENDBRANCH  26  30
ENDBRANCH  21  22
ENDBRANCH  18  21
ENDBRANCH   1  18
TORSDOF 8
ENDMDL
MODEL 8
REMARK VINA RESULT:    -6.313      3.937      7.248
REMARK INTER + INTRA:          -9.825
REMARK INTER:                  -8.458
REMARK INTRA:                  -1.366
REMARK UNBOUND:                -0.743
REMARK  Name = 
REMARK  12 active torsions:
REMARK  status: ('A' for Active; 'I' for Inactive)
REMARK    1  A    between atoms: C_1  and  C_2
REMARK    2  A    between atoms: N_4  and  C_5
REMARK    3  A    between atoms: C_7  and  C_8
REMARK    4  A    between atoms: C_8  and  C_9
REMARK    5  A    between atoms: C_9  and  C_10
REMARK    6  A    between atoms: C_9  and  C_11
REMARK    7  A    between atoms: C_9  and  C_12
REMARK    8  A    between atoms: C_12  and  N_13
REMARK    9  A    between atoms: CA_17  and  C_18
REMARK   10  A    between atoms: C_18  and  OXT_20
REMARK   11  A    between atoms: C_25  and  C_26
REMARK   12  A    between atoms: C_29  and  C_30
REMARK                            x       y       z     vdW  Elec       q    Type
REMARK                         _______ _______ _______ _____ _____    ______ ____
ROOT
ATOM      1  C   UNL     1      45.449   5.608  11.027  0.00  0.00    +0.000 C 
ENDROOT
BRANCH   1   4
ATOM      2  C   UNL     1      48.218   8.055  12.188  0.00  0.00    +0.000 A 
ATOM      3  C   UNL     1      47.532   6.902  11.739  0.00  0.00    +0.000 A 
ATOM      4  C   UNL     1      46.141   6.870  11.519  0.00  0.00    +0.000 A 
ATOM      5  C   UNL     1      45.402   8.028  11.772  0.00  0.00    +0.000 A 
ATOM      6  C   UNL     1      46.044   9.188  12.204  0.00  0.00    +0.000 A 
ATOM      7  C   UNL     1      47.434   9.215  12.401  0.00  0.00    +0.000 A 
BRANCH   2  11
ATOM      8  C   UNL     1      51.309  10.165  10.949  0.00  0.00    +0.000 C 
ATOM      9  C   UNL     1      51.720   8.751  11.363  0.00  0.00    +0.000 C 
ATOM     10  C   UNL     1      50.535   7.759  11.261  0.00  0.00    +0.000 C 
ATOM     11  N   UNL     1      49.591   8.024  12.358  0.00  0.00    +0.000 N 
ATOM     12  C   UNL     1      50.234   7.940  13.683  0.00  0.00    +0.000 C 
ATOM     13  C   UNL     1      51.387   8.965  13.739  0.00  0.00    +0.000 C 
ATOM     14  C   UNL     1      52.137   8.862  15.060  0.00  0.00    +0.000 C 
ATOM     15  O   UNL     1      52.332   8.737  12.670  0.00  0.00    +0.000 OA
ENDBRANCH   2  11
BRANCH   7  16
ATOM     16  C   UNL     1      48.011  10.486  12.750  0.00  0.00    +0.000 C 
ATOM     17  N   UNL     1      48.492  11.516  13.008  0.00  0.00    +0.000 NA
ENDBRANCH   7  16
ENDBRANCH   1   4
BRANCH   1  18
ATOM     18  C   UNL     1      45.033   4.552  12.104  0.00  0.00    +0.000 C 
ATOM     19  C   UNL     1      44.013   5.157  13.091  0.00  0.00    +0.000 C 
ATOM     20  C   UNL     1      44.441   3.303  11.416  0.00  0.00    +0.000 C 
BRANCH  18  21
ATOM     21  C   UNL     1      46.309   4.134  12.909  0.00  0.00    +0.000 C 
BRANCH  21  22
ATOM     22  N   UNL     1      46.031   4.069  14.337  0.00  0.00    +0.000 N 
ATOM     23  C   UNL     1      46.971   4.340  15.300  0.00  0.00    +0.000 A 
ATOM     24  C   UNL     1      48.005   5.270  15.182  0.00  0.00    +0.000 A 
ATOM     25  N   UNL     1      48.880   5.569  16.181  0.00  0.00    +0.000 NA
ATOM     26  CA  UNL     1      48.650   4.892  17.343  0.00  0.00    +0.000 A 
ATOM     27  C   UNL     1      47.627   3.976  17.490  0.00  0.00    +0.000 A 
ATOM     28  N   UNL     1      46.780   3.684  16.469  0.00  0.00    +0.000 NA
ATOM     29  H   UNL     1      45.491   3.270  14.664  0.00  0.00    +0.000 HD
BRANCH  26  30
ATOM     30  C   UNL     1      49.562   5.193  18.470  0.00  0.00    +0.000 C 
ATOM     31  O   UNL     1      50.028   6.291  18.715  0.00  0.00    +0.000 OA
BRANCH  30  32
ATOM     32  OXT UNL     1      49.805   4.073  19.194  0.00  0.00    +0.000 OA
ATOM     33  HXT UNL     1      49.594   3.281  18.644  0.00  0.00    +0.000 HD
ENDBRANCH  30  32
ENDBRANCH  26  30
ENDBRANCH  21  22
ENDBRANCH  18  21
ENDBRANCH   1  18
TORSDOF 8
ENDMDL
MODEL 9
REMARK VINA RESULT:    -5.962      3.711      5.780
REMARK INTER + INTRA:          -9.319
REMARK INTER:                  -8.391
REMARK INTRA:                  -0.928
REMARK UNBOUND:                -0.743
REMARK  Name = 
REMARK  12 active torsions:
REMARK  status: ('A' for Active; 'I' for Inactive)
REMARK    1  A    between atoms: C_1  and  C_2
REMARK    2  A    between atoms: N_4  and  C_5
REMARK    3  A    between atoms: C_7  and  C_8
REMARK    4  A    between atoms: C_8  and  C_9
REMARK    5  A    between atoms: C_9  and  C_10
REMARK    6  A    between atoms: C_9  and  C_11
REMARK    7  A    between atoms: C_9  and  C_12
REMARK    8  A    between atoms: C_12  and  N_13
REMARK    9  A    between atoms: CA_17  and  C_18
REMARK   10  A    between atoms: C_18  and  OXT_20
REMARK   11  A    between atoms: C_25  and  C_26
REMARK   12  A    between atoms: C_29  and  C_30
REMARK                            x       y       z     vdW  Elec       q    Type
REMARK                         _______ _______ _______ _____ _____    ______ ____
ROOT
ATOM      1  C   UNL     1      51.541   8.119  14.257  0.00  0.00    +0.000 C 
ENDROOT
BRANCH   1   4
ATOM      2  C   UNL     1      50.402   6.440  17.557  0.00  0.00    +0.000 A 
ATOM      3  C   UNL     1      50.747   6.670  16.204  0.00  0.00    +0.000 A 
ATOM      4  C   UNL     1      51.173   7.923  15.719  0.00  0.00    +0.000 A 
ATOM      5  C   UNL     1      51.241   8.992  16.615  0.00  0.00    +0.000 A 
ATOM      6  C   UNL     1      50.921   8.803  17.959  0.00  0.00    +0.000 A 
ATOM      7  C   UNL     1      50.517   7.544  18.436  0.00  0.00    +0.000 A 
BRANCH   2  11
ATOM      8  C   UNL     1      47.473   3.928  16.749  0.00  0.00    +0.000 C 
ATOM      9  C   UNL     1      48.093   3.651  18.119  0.00  0.00    +0.000 C 
ATOM     10  C   UNL     1      48.770   4.914  18.706  0.00  0.00    +0.000 C 
ATOM     11  N   UNL     1      50.017   5.177  17.970  0.00  0.00    +0.000 N 
ATOM     12  C   UNL     1      50.938   4.026  18.000  0.00  0.00    +0.000 C 
ATOM     13  C   UNL     1      50.225   2.805  17.381  0.00  0.00    +0.000 C 
ATOM     14  C   UNL     1      51.107   1.567  17.461  0.00  0.00    +0.000 C 
ATOM     15  O   UNL     1      48.992   2.521  18.077  0.00  0.00    +0.000 OA
ENDBRANCH   2  11
BRANCH   7  16
ATOM     16  C   UNL     1      50.307   7.430  19.854  0.00  0.00    +0.000 C 
ATOM     17  N   UNL     1      50.163   7.349  21.008  0.00  0.00    +0.000 NA
ENDBRANCH   7  16
ENDBRANCH   1   4
BRANCH   1  18
ATOM     18  C   UNL     1      50.477   8.799  13.333  0.00  0.00    +0.000 C 
ATOM     19  C   UNL     1      50.553  10.335  13.458  0.00  0.00    +0.000 C 
ATOM     20  C   UNL     1      50.696   8.367  11.869  0.00  0.00    +0.000 C 
BRANCH  18  21
ATOM     21  C   UNL     1      49.053   8.338  13.794  0.00  0.00    +0.000 C 
BRANCH  21  22
ATOM     22  N   UNL     1      48.755   6.996  13.314  0.00  0.00    +0.000 N 
ATOM     23  C   UNL     1      47.492   6.459  13.316  0.00  0.00    +0.000 A 
ATOM     24  C   UNL     1      46.308   7.175  13.127  0.00  0.00    +0.000 A 
ATOM     25  N   UNL     1      45.074   6.605  13.063  0.00  0.00    +0.000 NA
ATOM     26  CA  UNL     1      45.082   5.245  13.177  0.00  0.00    +0.000 A 
ATOM     27  C   UNL     1      46.240   4.512  13.353  0.00  0.00    +0.000 A 
ATOM     28  N   UNL     1      47.456   5.110  13.431  0.00  0.00    +0.000 NA
ATOM     29  H   UNL     1      49.394   6.255  13.595  0.00  0.00    +0.000 HD
BRANCH  26  30
ATOM     30  C   UNL     1      43.766   4.571  13.095  0.00  0.00    +0.000 C 
ATOM     31  O   UNL     1      43.601   3.365  13.072  0.00  0.00    +0.000 OA
BRANCH  30  32
ATOM     32  OXT UNL     1      42.768   5.488  13.053  0.00  0.00    +0.000 OA
ATOM     33  HXT UNL     1      41.930   5.041  12.783  0.00  0.00    +0.000 HD
ENDBRANCH  30  32
ENDBRANCH  26  30
ENDBRANCH  21  22
ENDBRANCH  18  21
ENDBRANCH   1  18
TORSDOF 8
ENDMDL
