MODEL 1
REMARK VINA RESULT:    -7.898      0.000      0.000
REMARK INTER + INTRA:         -10.333
REMARK INTER:                  -9.745
REMARK INTRA:                  -0.588
REMARK UNBOUND:                -0.588
REMARK  Name = 
REMARK  5 active torsions:
REMARK  status: ('A' for Active; 'I' for Inactive)
REMARK    1  A    between atoms: C_1  and  C_2
REMARK    2  A    between atoms: C_2  and  N_3
REMARK    3  A    between atoms: C_2  and  C_13
REMARK    4  A    between atoms: N_3  and  C_4
REMARK    5  A    between atoms: C_7  and  C_8
REMARK                            x       y       z     vdW  Elec       q    Type
REMARK                         _______ _______ _______ _____ _____    ______ ____
ROOT
ATOM      1  C   UNL     1      44.656   3.901   9.295  0.00  0.00    +0.000 A 
ATOM      2  C   UNL     1      45.603   4.316   8.354  0.00  0.00    +0.000 A 
ATOM      3  C   UNL     1      46.403   3.386   7.694  0.00  0.00    +0.000 A 
ATOM      4  C   UNL     1      46.256   2.048   8.026  0.00  0.00    +0.000 A 
ATOM      5  N   UNL     1      45.397   1.593   8.978  0.00  0.00    +0.000 NA
ATOM      6  C   UNL     1      44.632   2.535   9.587  0.00  0.00    +0.000 A 
ENDROOT
BRANCH   4   7
ATOM      7  C   UNL     1      47.064   1.012   7.305  0.00  0.00    +0.000 C 
ATOM      8  N   UNL     1      46.786  -0.284   7.647  0.00  0.00    +0.000 N 
ATOM      9  O   UNL     1      47.905   1.292   6.463  0.00  0.00    +0.000 OA
ATOM     10  H   UNL     1      46.067  -0.474   8.336  0.00  0.00    +0.000 HD
ATOM     11  H   UNL     1      47.271  -1.038   7.185  0.00  0.00    +0.000 HD
ENDBRANCH   4   7
BRANCH   1  12
ATOM     12  N   UNL     1      43.880   4.883   9.919  0.00  0.00    +0.000 N 
ATOM     13  H   UNL     1      44.212   5.796   9.610  0.00  0.00    +0.000 HD
BRANCH  12  15
ATOM     14  C   UNL     1      42.279   5.479  11.690  0.00  0.00    +0.000 C 
ATOM     15  C   UNL     1      43.637   4.835  11.370  0.00  0.00    +0.000 C 
BRANCH  15  16
ATOM     16  C   UNL     1      44.781   5.561  12.145  0.00  0.00    +0.000 C 
ATOM     17  C   UNL     1      45.511   6.628  11.304  0.00  0.00    +0.000 C 
ATOM     18  C   UNL     1      46.646   7.297  12.076  0.00  0.00    +0.000 C 
ATOM     19  C   UNL     1      47.624   6.272  12.636  0.00  0.00    +0.000 C 
ATOM     20  C   UNL     1      46.905   5.263  13.524  0.00  0.00    +0.000 C 
ATOM     21  C   UNL     1      45.778   4.564  12.769  0.00  0.00    +0.000 C 
ENDBRANCH  15  16
ENDBRANCH  12  15
ENDBRANCH   1  12
TORSDOF 4
ENDMDL
MODEL 2
REMARK VINA RESULT:    -7.741      1.455      2.088
REMARK INTER + INTRA:         -10.140
REMARK INTER:                  -9.522
REMARK INTRA:                  -0.618
REMARK UNBOUND:                -0.588
REMARK  Name = 
REMARK  5 active torsions:
REMARK  status: ('A' for Active; 'I' for Inactive)
REMARK    1  A    between atoms: C_1  and  C_2
REMARK    2  A    between atoms: C_2  and  N_3
REMARK    3  A    between atoms: C_2  and  C_13
REMARK    4  A    between atoms: N_3  and  C_4
REMARK    5  A    between atoms: C_7  and  C_8
REMARK                            x       y       z     vdW  Elec       q    Type
REMARK                         _______ _______ _______ _____ _____    ______ ____
ROOT
ATOM      1  C   UNL     1      44.743   4.026   9.036  0.00  0.00    +0.000 A 
ATOM      2  C   UNL     1      44.757   2.629   9.068  0.00  0.00    +0.000 A 
ATOM      3  C   UNL     1      45.732   1.912   8.377  0.00  0.00    +0.000 A 
ATOM      4  C   UNL     1      46.660   2.626   7.633  0.00  0.00    +0.000 A 
ATOM      5  N   UNL     1      46.656   3.981   7.515  0.00  0.00    +0.000 NA
ATOM      6  C   UNL     1      45.693   4.636   8.213  0.00  0.00    +0.000 A 
ENDROOT
BRANCH   4   7
ATOM      7  C   UNL     1      47.753   1.895   6.915  0.00  0.00    +0.000 C 
ATOM      8  N   UNL     1      48.669   2.694   6.283  0.00  0.00    +0.000 N 
ATOM      9  O   UNL     1      47.839   0.676   6.897  0.00  0.00    +0.000 OA
ATOM     10  H   UNL     1      48.573   3.701   6.340  0.00  0.00    +0.000 HD
ATOM     11  H   UNL     1      49.450   2.275   5.801  0.00  0.00    +0.000 HD
ENDBRANCH   4   7
BRANCH   1  12
ATOM     12  N   UNL     1      43.740   4.686   9.754  0.00  0.00    +0.000 N 
ATOM     13  H   UNL     1      43.737   5.665   9.469  0.00  0.00    +0.000 HD
BRANCH  12  15
ATOM     14  C   UNL     1      42.665   5.574  11.782  0.00  0.00    +0.000 C 
ATOM     15  C   UNL     1      43.634   4.525  11.214  0.00  0.00    +0.000 C 
BRANCH  15  16
ATOM     16  C   UNL     1      45.036   4.656  11.886  0.00  0.00    +0.000 C 
ATOM     17  C   UNL     1      45.448   3.409  12.694  0.00  0.00    +0.000 C 
ATOM     18  C   UNL     1      46.808   3.580  13.368  0.00  0.00    +0.000 C 
ATOM     19  C   UNL     1      46.853   4.835  14.230  0.00  0.00    +0.000 C 
ATOM     20  C   UNL     1      46.514   6.072  13.407  0.00  0.00    +0.000 C 
ATOM     21  C   UNL     1      45.149   5.936  12.739  0.00  0.00    +0.000 C 
ENDBRANCH  15  16
ENDBRANCH  12  15
ENDBRANCH   1  12
TORSDOF 4
ENDMDL
MODEL 3
REMARK VINA RESULT:    -6.779      3.085      5.835
REMARK INTER + INTRA:          -8.953
REMARK INTER:                  -8.762
REMARK INTRA:                  -0.190
REMARK UNBOUND:                -0.588
REMARK  Name = 
REMARK  5 active torsions:
REMARK  status: ('A' for Active; 'I' for Inactive)
REMARK    1  A    between atoms: C_1  and  C_2
REMARK    2  A    between atoms: C_2  and  N_3
REMARK    3  A    between atoms: C_2  and  C_13
REMARK    4  A    between atoms: N_3  and  C_4
REMARK    5  A    between atoms: C_7  and  C_8
REMARK                            x       y       z     vdW  Elec       q    Type
REMARK                         _______ _______ _______ _____ _____    ______ ____
ROOT
ATOM      1  C   UNL     1      45.104   5.353  11.457  0.00  0.00    +0.000 A 
ATOM      2  C   UNL     1      46.117   6.251  11.112  0.00  0.00    +0.000 A 
ATOM      3  C   UNL     1      47.125   6.567  12.020  0.00  0.00    +0.000 A 
ATOM      4  C   UNL     1      47.070   5.991  13.281  0.00  0.00    +0.000 A 
ATOM      5  N   UNL     1      46.074   5.160  13.692  0.00  0.00    +0.000 NA
ATOM      6  C   UNL     1      45.120   4.876  12.770  0.00  0.00    +0.000 A 
ENDROOT
BRANCH   4   7
ATOM      7  C   UNL     1      48.162   6.268  14.270  0.00  0.00    +0.000 C 
ATOM      8  N   UNL     1      47.863   5.952  15.569  0.00  0.00    +0.000 N 
ATOM      9  O   UNL     1      49.247   6.730  13.951  0.00  0.00    +0.000 OA
ATOM     10  H   UNL     1      46.957   5.552  15.787  0.00  0.00    +0.000 HD
ATOM     11  H   UNL     1      48.557   6.085  16.288  0.00  0.00    +0.000 HD
ENDBRANCH   4   7
BRANCH   1  12
ATOM     12  N   UNL     1      44.123   5.074  10.498  0.00  0.00    +0.000 N 
ATOM     13  H   UNL     1      43.242   5.474  10.820  0.00  0.00    +0.000 HD
BRANCH  12  15
ATOM     14  C   UNL     1      43.655   2.739  11.116  0.00  0.00    +0.000 C 
ATOM     15  C   UNL     1      43.962   3.711   9.966  0.00  0.00    +0.000 C 
BRANCH  15  16
ATOM     16  C   UNL     1      45.245   3.264   9.200  0.00  0.00    +0.000 C 
ATOM     17  C   UNL     1      45.567   4.144   7.975  0.00  0.00    +0.000 C 
ATOM     18  C   UNL     1      46.807   3.662   7.226  0.00  0.00    +0.000 C 
ATOM     19  C   UNL     1      46.692   2.195   6.835  0.00  0.00    +0.000 C 
ATOM     20  C   UNL     1      46.444   1.323   8.060  0.00  0.00    +0.000 C 
ATOM     21  C   UNL     1      45.196   1.771   8.816  0.00  0.00    +0.000 C 
ENDBRANCH  15  16
ENDBRANCH  12  15
ENDBRANCH   1  12
TORSDOF 4
ENDMDL
MODEL 4
REMARK VINA RESULT:    -6.541      3.575      6.080
REMARK INTER + INTRA:          -8.658
REMARK INTER:                  -8.052
REMARK INTRA:                  -0.606
REMARK UNBOUND:                -0.588
REMARK  Name = 
REMARK  5 active torsions:
REMARK  status: ('A' for Active; 'I' for Inactive)
REMARK    1  A    between atoms: C_1  and  C_2
REMARK    2  A    between atoms: C_2  and  N_3
REMARK    3  A    between atoms: C_2  and  C_13
REMARK    4  A    between atoms: N_3  and  C_4
REMARK    5  A    between atoms: C_7  and  C_8
REMARK                            x       y       z     vdW  Elec       q    Type
REMARK                         _______ _______ _______ _____ _____    ______ ____
ROOT
ATOM      1  C   UNL     1      46.210   5.532  12.467  0.00  0.00    +0.000 A 
ATOM      2  C   UNL     1      46.601   6.624  11.686  0.00  0.00    +0.000 A 
ATOM      3  C   UNL     1      47.787   7.302  11.957  0.00  0.00    +0.000 A 
ATOM      4  C   UNL     1      48.544   6.884  13.042  0.00  0.00    +0.000 A 
ATOM      5  N   UNL     1      48.181   5.870  13.873  0.00  0.00    +0.000 NA
ATOM      6  C   UNL     1      47.023   5.234  13.564  0.00  0.00    +0.000 A 
ENDROOT
BRANCH   4   7
ATOM      7  C   UNL     1      49.850   7.557  13.338  0.00  0.00    +0.000 C 
ATOM      8  N   UNL     1      50.689   7.696  12.264  0.00  0.00    +0.000 N 
ATOM      9  O   UNL     1      50.151   7.966  14.449  0.00  0.00    +0.000 OA
ATOM     10  H   UNL     1      50.392   7.360  11.354  0.00  0.00    +0.000 HD
ATOM     11  H   UNL     1      51.575   8.163  12.379  0.00  0.00    +0.000 HD
ENDBRANCH   4   7
BRANCH   1  12
ATOM     12  N   UNL     1      45.011   4.891  12.140  0.00  0.00    +0.000 N 
ATOM     13  H   UNL     1      45.172   3.885  12.159  0.00  0.00    +0.000 HD
BRANCH  12  15
ATOM     14  C   UNL     1      42.749   5.447  11.349  0.00  0.00    +0.000 C 
ATOM     15  C   UNL     1      44.231   5.314  10.966  0.00  0.00    +0.000 C 
BRANCH  15  16
ATOM     16  C   UNL     1      44.403   4.297   9.795  0.00  0.00    +0.000 C 
ATOM     17  C   UNL     1      44.524   2.833  10.266  0.00  0.00    +0.000 C 
ATOM     18  C   UNL     1      44.725   1.866   9.102  0.00  0.00    +0.000 C 
ATOM     19  C   UNL     1      45.914   2.266   8.238  0.00  0.00    +0.000 C 
ATOM     20  C   UNL     1      45.753   3.690   7.718  0.00  0.00    +0.000 C 
ATOM     21  C   UNL     1      45.571   4.682   8.864  0.00  0.00    +0.000 C 
ENDBRANCH  15  16
ENDBRANCH  12  15
ENDBRANCH   1  12
TORSDOF 4
ENDMDL
MODEL 5
REMARK VINA RESULT:    -6.234      3.001      6.341
REMARK INTER + INTRA:          -8.280
REMARK INTER:                  -7.770
REMARK INTRA:                  -0.510
REMARK UNBOUND:                -0.588
REMARK  Name = 
REMARK  5 active torsions:
REMARK  status: ('A' for Active; 'I' for Inactive)
REMARK    1  A    between atoms: C_1  and  C_2
REMARK    2  A    between atoms: C_2  and  N_3
REMARK    3  A    between atoms: C_2  and  C_13
REMARK    4  A    between atoms: N_3  and  C_4
REMARK    5  A    between atoms: C_7  and  C_8
REMARK                            x       y       z     vdW  Elec       q    Type
REMARK                         _______ _______ _______ _____ _____    ______ ____
ROOT
ATOM      1  C   UNL     1      45.152   4.234  11.358  0.00  0.00    +0.000 A 
ATOM      2  C   UNL     1      45.935   4.433  12.499  0.00  0.00    +0.000 A 
ATOM      3  C   UNL     1      46.118   5.711  13.021  0.00  0.00    +0.000 A 
ATOM      4  C   UNL     1      45.532   6.777  12.355  0.00  0.00    +0.000 A 
ATOM      5  N   UNL     1      44.813   6.650  11.207  0.00  0.00    +0.000 NA
ATOM      6  C   UNL     1      44.655   5.385  10.741  0.00  0.00    +0.000 A 
ENDROOT
BRANCH   4   7
ATOM      7  C   UNL     1      45.665   8.162  12.911  0.00  0.00    +0.000 C 
ATOM      8  N   UNL     1      44.684   9.038  12.532  0.00  0.00    +0.000 N 
ATOM      9  O   UNL     1      46.574   8.494  13.658  0.00  0.00    +0.000 OA
ATOM     10  H   UNL     1      43.937   8.716  11.926  0.00  0.00    +0.000 HD
ATOM     11  H   UNL     1      44.691   9.982  12.888  0.00  0.00    +0.000 HD
ENDBRANCH   4   7
BRANCH   1  12
ATOM     12  N   UNL     1      45.003   2.926  10.886  0.00  0.00    +0.000 N 
ATOM     13  H   UNL     1      45.821   2.389  11.174  0.00  0.00    +0.000 HD
BRANCH  12  15
ATOM     14  C   UNL     1      43.927   1.309   9.376  0.00  0.00    +0.000 C 
ATOM     15  C   UNL     1      44.627   2.673   9.486  0.00  0.00    +0.000 C 
BRANCH  15  16
ATOM     16  C   UNL     1      45.884   2.718   8.561  0.00  0.00    +0.000 C 
ATOM     17  C   UNL     1      45.730   3.677   7.363  0.00  0.00    +0.000 C 
ATOM     18  C   UNL     1      46.960   3.674   6.459  0.00  0.00    +0.000 C 
ATOM     19  C   UNL     1      47.313   2.266   5.996  0.00  0.00    +0.000 C 
ATOM     20  C   UNL     1      47.533   1.341   7.187  0.00  0.00    +0.000 C 
ATOM     21  C   UNL     1      46.309   1.309   8.098  0.00  0.00    +0.000 C 
ENDBRANCH  15  16
ENDBRANCH  12  15
ENDBRANCH   1  12
TORSDOF 4
ENDMDL
MODEL 6
REMARK VINA RESULT:    -5.843      3.630      6.655
REMARK INTER + INTRA:          -7.797
REMARK INTER:                  -7.299
REMARK INTRA:                  -0.498
REMARK UNBOUND:                -0.588
REMARK  Name = 
REMARK  5 active torsions:
REMARK  status: ('A' for Active; 'I' for Inactive)
REMARK    1  A    between atoms: C_1  and  C_2
REMARK    2  A    between atoms: C_2  and  N_3
REMARK    3  A    between atoms: C_2  and  C_13
REMARK    4  A    between atoms: N_3  and  C_4
REMARK    5  A    between atoms: C_7  and  C_8
REMARK                            x       y       z     vdW  Elec       q    Type
REMARK                         _______ _______ _______ _____ _____    ______ ____
ROOT
ATOM      1  C   UNL     1      45.896   6.578  11.982  0.00  0.00    +0.000 A 
ATOM      2  C   UNL     1      45.230   7.750  12.353  0.00  0.00    +0.000 A 
ATOM      3  C   UNL     1      45.925   8.948  12.498  0.00  0.00    +0.000 A 
ATOM      4  C   UNL     1      47.298   8.932  12.297  0.00  0.00    +0.000 A 
ATOM      5  N   UNL     1      48.007   7.811  11.996  0.00  0.00    +0.000 NA
ATOM      6  C   UNL     1      47.285   6.670  11.858  0.00  0.00    +0.000 A 
ENDROOT
BRANCH   4   7
ATOM      7  C   UNL     1      48.076  10.209  12.396  0.00  0.00    +0.000 C 
ATOM      8  N   UNL     1      47.362  11.291  12.838  0.00  0.00    +0.000 N 
ATOM      9  O   UNL     1      49.262  10.289  12.115  0.00  0.00    +0.000 OA
ATOM     10  H   UNL     1      46.384  11.178  13.079  0.00  0.00    +0.000 HD
ATOM     11  H   UNL     1      47.825  12.180  12.956  0.00  0.00    +0.000 HD
ENDBRANCH   4   7
BRANCH   1  12
ATOM     12  N   UNL     1      45.140   5.409  11.849  0.00  0.00    +0.000 N 
ATOM     13  H   UNL     1      45.781   4.629  11.710  0.00  0.00    +0.000 HD
BRANCH  12  15
ATOM     14  C   UNL     1      42.718   4.996  11.717  0.00  0.00    +0.000 C 
ATOM     15  C   UNL     1      43.988   5.362  10.934  0.00  0.00    +0.000 C 
BRANCH  15  16
ATOM     16  C   UNL     1      44.238   4.334   9.787  0.00  0.00    +0.000 C 
ATOM     17  C   UNL     1      44.318   2.874  10.278  0.00  0.00    +0.000 C 
ATOM     18  C   UNL     1      44.596   1.895   9.140  0.00  0.00    +0.000 C 
ATOM     19  C   UNL     1      45.846   2.282   8.360  0.00  0.00    +0.000 C 
ATOM     20  C   UNL     1      45.728   3.702   7.817  0.00  0.00    +0.000 C 
ATOM     21  C   UNL     1      45.471   4.705   8.938  0.00  0.00    +0.000 C 
ENDBRANCH  15  16
ENDBRANCH  12  15
ENDBRANCH   1  12
TORSDOF 4
ENDMDL
MODEL 7
REMARK VINA RESULT:    -5.632      3.281      5.216
REMARK INTER + INTRA:          -7.538
REMARK INTER:                  -7.000
REMARK INTRA:                  -0.537
REMARK UNBOUND:                -0.588
REMARK  Name = 
REMARK  5 active torsions:
REMARK  status: ('A' for Active; 'I' for Inactive)
REMARK    1  A    between atoms: C_1  and  C_2
REMARK    2  A    between atoms: C_2  and  N_3
REMARK    3  A    between atoms: C_2  and  C_13
REMARK    4  A    between atoms: N_3  and  C_4
REMARK    5  A    between atoms: C_7  and  C_8
REMARK                            x       y       z     vdW  Elec       q    Type
REMARK                         _______ _______ _______ _____ _____    ______ ____
ROOT
ATOM      1  C   UNL     1      46.362   5.873  13.013  0.00  0.00    +0.000 A 
ATOM      2  C   UNL     1      45.903   6.088  11.711  0.00  0.00    +0.000 A 
ATOM      3  C   UNL     1      45.148   5.118  11.055  0.00  0.00    +0.000 A 
ATOM      4  C   UNL     1      44.900   3.926  11.720  0.00  0.00    +0.000 A 
ATOM      5  N   UNL     1      45.375   3.638  12.962  0.00  0.00    +0.000 NA
ATOM      6  C   UNL     1      46.098   4.617  13.563  0.00  0.00    +0.000 A 
ENDROOT
BRANCH   4   7
ATOM      7  C   UNL     1      44.052   2.876  11.068  0.00  0.00    +0.000 C 
ATOM      8  N   UNL     1      44.600   2.294   9.956  0.00  0.00    +0.000 N 
ATOM      9  O   UNL     1      42.955   2.548  11.494  0.00  0.00    +0.000 OA
ATOM     10  H   UNL     1      45.522   2.581   9.648  0.00  0.00    +0.000 HD
ATOM     11  H   UNL     1      44.100   1.560   9.479  0.00  0.00    +0.000 HD
ENDBRANCH   4   7
BRANCH   1  12
ATOM     12  N   UNL     1      47.111   6.889  13.618  0.00  0.00    +0.000 N 
ATOM     13  H   UNL     1      46.680   7.783  13.387  0.00  0.00    +0.000 HD
BRANCH  12  15
ATOM     14  C   UNL     1      49.210   7.353  14.815  0.00  0.00    +0.000 C 
ATOM     15  C   UNL     1      48.577   6.919  13.484  0.00  0.00    +0.000 C 
BRANCH  15  16
ATOM     16  C   UNL     1      49.005   7.884  12.335  0.00  0.00    +0.000 C 
ATOM     17  C   UNL     1      50.531   8.083  12.238  0.00  0.00    +0.000 C 
ATOM     18  C   UNL     1      50.918   9.058  11.128  0.00  0.00    +0.000 C 
ATOM     19  C   UNL     1      50.197  10.392  11.277  0.00  0.00    +0.000 C 
ATOM     20  C   UNL     1      48.686  10.193  11.301  0.00  0.00    +0.000 C 
ATOM     21  C   UNL     1      48.270   9.238  12.416  0.00  0.00    +0.000 C 
ENDBRANCH  15  16
ENDBRANCH  12  15
ENDBRANCH   1  12
TORSDOF 4
ENDMDL
MODEL 8
REMARK VINA RESULT:    -4.974      3.806      5.922
REMARK INTER + INTRA:          -6.726
REMARK INTER:                  -6.280
REMARK INTRA:                  -0.446
REMARK UNBOUND:                -0.588
REMARK  Name = 
REMARK  5 active torsions:
REMARK  status: ('A' for Active; 'I' for Inactive)
REMARK    1  A    between atoms: C_1  and  C_2
REMARK    2  A    between atoms: C_2  and  N_3
REMARK    3  A    between atoms: C_2  and  C_13
REMARK    4  A    between atoms: N_3  and  C_4
REMARK    5  A    between atoms: C_7  and  C_8
REMARK                            x       y       z     vdW  Elec       q    Type
REMARK                         _______ _______ _______ _____ _____    ______ ____
ROOT
ATOM      1  C   UNL     1      46.941   5.704  13.048  0.00  0.00    +0.000 A 
ATOM      2  C   UNL     1      46.397   6.122  11.830  0.00  0.00    +0.000 A 
ATOM      3  C   UNL     1      45.182   5.608  11.381  0.00  0.00    +0.000 A 
ATOM      4  C   UNL     1      44.554   4.648  12.159  0.00  0.00    +0.000 A 
ATOM      5  N   UNL     1      45.067   4.158  13.320  0.00  0.00    +0.000 NA
ATOM      6  C   UNL     1      46.247   4.695  13.721  0.00  0.00    +0.000 A 
ENDROOT
BRANCH   4   7
ATOM      7  C   UNL     1      43.223   4.105  11.735  0.00  0.00    +0.000 C 
ATOM      8  N   UNL     1      42.198   5.013  11.734  0.00  0.00    +0.000 N 
ATOM      9  O   UNL     1      43.054   2.941  11.403  0.00  0.00    +0.000 OA
ATOM     10  H   UNL     1      42.385   5.974  11.997  0.00  0.00    +0.000 HD
ATOM     11  H   UNL     1      41.278   4.729  11.434  0.00  0.00    +0.000 HD
ENDBRANCH   4   7
BRANCH   1  12
ATOM     12  N   UNL     1      48.161   6.262  13.445  0.00  0.00    +0.000 N 
ATOM     13  H   UNL     1      48.639   5.589  14.043  0.00  0.00    +0.000 HD
BRANCH  12  15
ATOM     14  C   UNL     1      49.008   8.532  13.017  0.00  0.00    +0.000 C 
ATOM     15  C   UNL     1      48.219   7.632  13.981  0.00  0.00    +0.000 C 
BRANCH  15  16
ATOM     16  C   UNL     1      48.874   7.642  15.397  0.00  0.00    +0.000 C 
ATOM     17  C   UNL     1      48.702   6.314  16.163  0.00  0.00    +0.000 C 
ATOM     18  C   UNL     1      49.323   6.366  17.557  0.00  0.00    +0.000 C 
ATOM     19  C   UNL     1      48.789   7.541  18.365  0.00  0.00    +0.000 C 
ATOM     20  C   UNL     1      49.028   8.857  17.634  0.00  0.00    +0.000 C 
ATOM     21  C   UNL     1      48.398   8.840  16.244  0.00  0.00    +0.000 C 
ENDBRANCH  15  16
ENDBRANCH  12  15
ENDBRANCH   1  12
TORSDOF 4
ENDMDL
