MODEL 1
REMARK VINA RESULT:    -8.236      0.000      0.000
REMARK INTER + INTRA:         -11.552
REMARK INTER:                 -10.643
REMARK INTRA:                  -0.909
REMARK UNBOUND:                -0.909
REMARK  Name = 
REMARK  5 active torsions:
REMARK  status: ('A' for Active; 'I' for Inactive)
REMARK    1  A    between atoms: C_2  and  C_3
REMARK    2  A    between atoms: C_6  and  C_7
REMARK    3  A    between atoms: C_7  and  C_8
REMARK    4  A    between atoms: C_12  and  C_13
REMARK    5  A    between atoms: C_17  and  C_18
REMARK                            x       y       z     vdW  Elec       q    Type
REMARK                         _______ _______ _______ _____ _____    ______ ____
ROOT
ATOM      1  C   UNL     1      45.391   5.037  11.986  0.00  0.00    +0.000 A 
ATOM      2  C   UNL     1      45.605   4.383  13.207  0.00  0.00    +0.000 A 
ATOM      3  C   UNL     1      46.635   4.775  14.059  0.00  0.00    +0.000 A 
ATOM      4  C   UNL     1      47.459   5.846  13.711  0.00  0.00    +0.000 A 
ATOM      5  C   UNL     1      47.235   6.584  12.538  0.00  0.00    +0.000 A 
ATOM      6  C   UNL     1      46.166   6.182  11.716  0.00  0.00    +0.000 A 
ENDROOT
BRANCH   5   7
ATOM      7  C   UNL     1      48.129   7.689  12.132  0.00  0.00    +0.000 A 
ATOM      8  C   UNL     1      47.690   9.022  12.131  0.00  0.00    +0.000 A 
ATOM      9  C   UNL     1      48.562  10.036  11.759  0.00  0.00    +0.000 A 
ATOM     10  N   UNL     1      49.842   9.828  11.395  0.00  0.00    +0.000 NA
ATOM     11  C   UNL     1      50.263   8.534  11.412  0.00  0.00    +0.000 A 
ATOM     12  C   UNL     1      49.459   7.457  11.764  0.00  0.00    +0.000 A 
BRANCH  11  13
ATOM     13  C   UNL     1      51.686   8.288  11.016  0.00  0.00    +0.000 C 
ATOM     14  N   UNL     1      51.980   7.000  10.662  0.00  0.00    +0.000 N 
ATOM     15  O   UNL     1      52.533   9.172  11.006  0.00  0.00    +0.000 OA
ATOM     16  H   UNL     1      51.251   6.296  10.690  0.00  0.00    +0.000 HD
ATOM     17  H   UNL     1      52.924   6.756  10.403  0.00  0.00    +0.000 HD
ENDBRANCH  11  13
ENDBRANCH   5   7
BRANCH   1  18
ATOM     18  C   UNL     1      44.519   4.407  10.896  0.00  0.00    +0.000 C 
ATOM     19  C   UNL     1      43.202   3.767  11.352  0.00  0.00    +0.000 C 
ATOM     20  C   UNL     1      43.166   5.104  10.693  0.00  0.00    +0.000 C 
BRANCH  18  24
ATOM     21  C   UNL     1      46.604   2.698   7.462  0.00  0.00    +0.000 A 
ATOM     22  C   UNL     1      46.512   4.086   7.609  0.00  0.00    +0.000 A 
ATOM     23  C   UNL     1      45.811   4.634   8.692  0.00  0.00    +0.000 A 
ATOM     24  C   UNL     1      45.195   3.819   9.658  0.00  0.00    +0.000 A 
ATOM     25  C   UNL     1      45.280   2.424   9.467  0.00  0.00    +0.000 A 
ATOM     26  C   UNL     1      45.978   1.871   8.390  0.00  0.00    +0.000 A 
BRANCH  21  28
ATOM     27  N   UNL     1      47.977   1.678   5.510  0.00  0.00    +0.000 NA
ATOM     28  C   UNL     1      47.357   2.130   6.379  0.00  0.00    +0.000 C 
ENDBRANCH  21  28
ENDBRANCH  18  24
ENDBRANCH   1  18
TORSDOF 5
ENDMDL
MODEL 2
REMARK VINA RESULT:    -8.173      3.381      4.299
REMARK INTER + INTRA:         -11.470
REMARK INTER:                 -10.742
REMARK INTRA:                  -0.728
REMARK UNBOUND:                -0.909
REMARK  Name = 
REMARK  5 active torsions:
REMARK  status: ('A' for Active; 'I' for Inactive)
REMARK    1  A    between atoms: C_2  and  C_3
REMARK    2  A    between atoms: C_6  and  C_7
REMARK    3  A    between atoms: C_7  and  C_8
REMARK    4  A    between atoms: C_12  and  C_13
REMARK    5  A    between atoms: C_17  and  C_18
REMARK                            x       y       z     vdW  Elec       q    Type
REMARK                         _______ _______ _______ _____ _____    ______ ____
ROOT
ATOM      1  C   UNL     1      45.326   5.716  11.490  0.00  0.00    +0.000 A 
ATOM      2  C   UNL     1      44.940   7.054  11.326  0.00  0.00    +0.000 A 
ATOM      3  C   UNL     1      45.380   8.039  12.207  0.00  0.00    +0.000 A 
ATOM      4  C   UNL     1      46.232   7.704  13.259  0.00  0.00    +0.000 A 
ATOM      5  C   UNL     1      46.710   6.395  13.419  0.00  0.00    +0.000 A 
ATOM      6  C   UNL     1      46.274   5.430  12.492  0.00  0.00    +0.000 A 
ENDROOT
BRANCH   5   7
ATOM      7  C   UNL     1      47.574   6.015  14.557  0.00  0.00    +0.000 A 
ATOM      8  C   UNL     1      48.705   6.772  14.902  0.00  0.00    +0.000 A 
ATOM      9  C   UNL     1      49.483   6.394  15.987  0.00  0.00    +0.000 A 
ATOM     10  N   UNL     1      49.221   5.324  16.763  0.00  0.00    +0.000 NA
ATOM     11  C   UNL     1      48.116   4.604  16.428  0.00  0.00    +0.000 A 
ATOM     12  C   UNL     1      47.283   4.904  15.358  0.00  0.00    +0.000 A 
BRANCH  11  13
ATOM     13  C   UNL     1      47.808   3.416  17.285  0.00  0.00    +0.000 C 
ATOM     14  N   UNL     1      48.881   2.871  17.936  0.00  0.00    +0.000 N 
ATOM     15  O   UNL     1      46.679   2.956  17.402  0.00  0.00    +0.000 OA
ATOM     16  H   UNL     1      49.801   3.278  17.809  0.00  0.00    +0.000 HD
ATOM     17  H   UNL     1      48.752   2.056  18.517  0.00  0.00    +0.000 HD
ENDBRANCH  11  13
ENDBRANCH   5   7
BRANCH   1  18
ATOM     18  C   UNL     1      44.583   4.587  10.769  0.00  0.00    +0.000 C 
ATOM     19  C   UNL     1      43.652   3.719  11.624  0.00  0.00    +0.000 C 
ATOM     20  C   UNL     1      43.057   4.760  10.736  0.00  0.00    +0.000 C 
BRANCH  18  24
ATOM     21  C   UNL     1      46.609   2.685   7.402  0.00  0.00    +0.000 A 
ATOM     22  C   UNL     1      46.549   4.079   7.489  0.00  0.00    +0.000 A 
ATOM     23  C   UNL     1      45.867   4.690   8.551  0.00  0.00    +0.000 A 
ATOM     24  C   UNL     1      45.238   3.931   9.554  0.00  0.00    +0.000 A 
ATOM     25  C   UNL     1      45.291   2.528   9.423  0.00  0.00    +0.000 A 
ATOM     26  C   UNL     1      45.969   1.913   8.368  0.00  0.00    +0.000 A 
BRANCH  21  28
ATOM     27  N   UNL     1      47.946   1.550   5.489  0.00  0.00    +0.000 NA
ATOM     28  C   UNL     1      47.342   2.054   6.340  0.00  0.00    +0.000 C 
ENDBRANCH  21  28
ENDBRANCH  18  24
ENDBRANCH   1  18
TORSDOF 5
ENDMDL
MODEL 3
REMARK VINA RESULT:    -7.057      2.046      2.672
REMARK INTER + INTRA:         -10.029
REMARK INTER:                  -9.464
REMARK INTRA:                  -0.565
REMARK UNBOUND:                -0.909
REMARK  Name = 
REMARK  5 active torsions:
REMARK  status: ('A' for Active; 'I' for Inactive)
REMARK    1  A    between atoms: C_2  and  C_3
REMARK    2  A    between atoms: C_6  and  C_7
REMARK    3  A    between atoms: C_7  and  C_8
REMARK    4  A    between atoms: C_12  and  C_13
REMARK    5  A    between atoms: C_17  and  C_18
REMARK                            x       y       z     vdW  Elec       q    Type
REMARK                         _______ _______ _______ _____ _____    ______ ____
ROOT
ATOM      1  C   UNL     1      45.142   6.460  11.552  0.00  0.00    +0.000 A 
ATOM      2  C   UNL     1      44.585   7.738  11.401  0.00  0.00    +0.000 A 
ATOM      3  C   UNL     1      45.134   8.839  12.055  0.00  0.00    +0.000 A 
ATOM      4  C   UNL     1      46.265   8.683  12.857  0.00  0.00    +0.000 A 
ATOM      5  C   UNL     1      46.906   7.440  12.975  0.00  0.00    +0.000 A 
ATOM      6  C   UNL     1      46.346   6.355  12.275  0.00  0.00    +0.000 A 
ENDROOT
BRANCH   5   7
ATOM      7  C   UNL     1      48.075   7.249  13.859  0.00  0.00    +0.000 A 
ATOM      8  C   UNL     1      48.049   6.327  14.917  0.00  0.00    +0.000 A 
ATOM      9  C   UNL     1      49.172   6.162  15.717  0.00  0.00    +0.000 A 
ATOM     10  N   UNL     1      50.323   6.838  15.542  0.00  0.00    +0.000 NA
ATOM     11  C   UNL     1      50.343   7.721  14.505  0.00  0.00    +0.000 A 
ATOM     12  C   UNL     1      49.267   7.954  13.659  0.00  0.00    +0.000 A 
BRANCH  11  13
ATOM     13  C   UNL     1      51.619   8.475  14.295  0.00  0.00    +0.000 C 
ATOM     14  N   UNL     1      52.653   7.742  13.780  0.00  0.00    +0.000 N 
ATOM     15  O   UNL     1      51.738   9.664  14.561  0.00  0.00    +0.000 OA
ATOM     16  H   UNL     1      52.515   6.758  13.579  0.00  0.00    +0.000 HD
ATOM     17  H   UNL     1      53.550   8.180  13.630  0.00  0.00    +0.000 HD
ENDBRANCH  11  13
ENDBRANCH   5   7
BRANCH   1  18
ATOM     18  C   UNL     1      44.361   5.207  11.144  0.00  0.00    +0.000 C 
ATOM     19  C   UNL     1      43.526   4.530  12.238  0.00  0.00    +0.000 C 
ATOM     20  C   UNL     1      42.836   5.367  11.215  0.00  0.00    +0.000 C 
BRANCH  18  24
ATOM     21  C   UNL     1      46.105   2.631   8.080  0.00  0.00    +0.000 A 
ATOM     22  C   UNL     1      46.246   4.019   7.995  0.00  0.00    +0.000 A 
ATOM     23  C   UNL     1      45.656   4.849   8.959  0.00  0.00    +0.000 A 
ATOM     24  C   UNL     1      44.920   4.318  10.033  0.00  0.00    +0.000 A 
ATOM     25  C   UNL     1      44.770   2.917  10.077  0.00  0.00    +0.000 A 
ATOM     26  C   UNL     1      45.356   2.085   9.120  0.00  0.00    +0.000 A 
BRANCH  21  28
ATOM     27  N   UNL     1      47.261   1.095   6.338  0.00  0.00    +0.000 NA
ATOM     28  C   UNL     1      46.743   1.774   7.121  0.00  0.00    +0.000 C 
ENDBRANCH  21  28
ENDBRANCH  18  24
ENDBRANCH   1  18
TORSDOF 5
ENDMDL
MODEL 4
REMARK VINA RESULT:    -6.746      5.096      8.180
REMARK INTER + INTRA:          -9.627
REMARK INTER:                  -8.980
REMARK INTRA:                  -0.646
REMARK UNBOUND:                -0.909
REMARK  Name = 
REMARK  5 active torsions:
REMARK  status: ('A' for Active; 'I' for Inactive)
REMARK    1  A    between atoms: C_2  and  C_3
REMARK    2  A    between atoms: C_6  and  C_7
REMARK    3  A    between atoms: C_7  and  C_8
REMARK    4  A    between atoms: C_12  and  C_13
REMARK    5  A    between atoms: C_17  and  C_18
REMARK                            x       y       z     vdW  Elec       q    Type
REMARK                         _______ _______ _______ _____ _____    ______ ____
ROOT
ATOM      1  C   UNL     1      48.664   5.982  16.129  0.00  0.00    +0.000 A 
ATOM      2  C   UNL     1      49.710   6.854  15.797  0.00  0.00    +0.000 A 
ATOM      3  C   UNL     1      49.833   7.367  14.508  0.00  0.00    +0.000 A 
ATOM      4  C   UNL     1      48.895   7.032  13.531  0.00  0.00    +0.000 A 
ATOM      5  C   UNL     1      47.786   6.227  13.834  0.00  0.00    +0.000 A 
ATOM      6  C   UNL     1      47.673   5.752  15.154  0.00  0.00    +0.000 A 
ENDROOT
BRANCH   5   7
ATOM      7  C   UNL     1      46.811   5.823  12.799  0.00  0.00    +0.000 A 
ATOM      8  C   UNL     1      46.741   6.485  11.563  0.00  0.00    +0.000 A 
ATOM      9  C   UNL     1      45.824   6.066  10.608  0.00  0.00    +0.000 A 
ATOM     10  N   UNL     1      44.975   5.036  10.784  0.00  0.00    +0.000 NA
ATOM     11  C   UNL     1      45.059   4.392  11.980  0.00  0.00    +0.000 A 
ATOM     12  C   UNL     1      45.941   4.744  12.994  0.00  0.00    +0.000 A 
BRANCH  11  13
ATOM     13  C   UNL     1      44.126   3.240  12.187  0.00  0.00    +0.000 C 
ATOM     14  N   UNL     1      43.928   2.445  11.091  0.00  0.00    +0.000 N 
ATOM     15  O   UNL     1      43.575   3.017  13.257  0.00  0.00    +0.000 OA
ATOM     16  H   UNL     1      44.398   2.668  10.221  0.00  0.00    +0.000 HD
ATOM     17  H   UNL     1      43.295   1.661  11.151  0.00  0.00    +0.000 HD
ENDBRANCH  11  13
ENDBRANCH   5   7
BRANCH   1  18
ATOM     18  C   UNL     1      48.715   5.140  17.408  0.00  0.00    +0.000 C 
ATOM     19  C   UNL     1      48.289   5.835  18.707  0.00  0.00    +0.000 C 
ATOM     20  C   UNL     1      47.343   4.889  18.050  0.00  0.00    +0.000 C 
BRANCH  18  24
ATOM     21  C   UNL     1      51.757   2.012  17.556  0.00  0.00    +0.000 A 
ATOM     22  C   UNL     1      50.487   1.734  17.040  0.00  0.00    +0.000 A 
ATOM     23  C   UNL     1      49.499   2.728  17.027  0.00  0.00    +0.000 A 
ATOM     24  C   UNL     1      49.752   4.022  17.514  0.00  0.00    +0.000 A 
ATOM     25  C   UNL     1      51.032   4.265  18.054  0.00  0.00    +0.000 A 
ATOM     26  C   UNL     1      52.021   3.279  18.070  0.00  0.00    +0.000 A 
BRANCH  21  28
ATOM     27  N   UNL     1      53.607   0.193  17.517  0.00  0.00    +0.000 NA
ATOM     28  C   UNL     1      52.787   1.011  17.533  0.00  0.00    +0.000 C 
ENDBRANCH  21  28
ENDBRANCH  18  24
ENDBRANCH   1  18
TORSDOF 5
ENDMDL
MODEL 5
REMARK VINA RESULT:    -6.560      4.507      6.496
REMARK INTER + INTRA:          -9.386
REMARK INTER:                  -8.704
REMARK INTRA:                  -0.682
REMARK UNBOUND:                -0.909
REMARK  Name = 
REMARK  5 active torsions:
REMARK  status: ('A' for Active; 'I' for Inactive)
REMARK    1  A    between atoms: C_2  and  C_3
REMARK    2  A    between atoms: C_6  and  C_7
REMARK    3  A    between atoms: C_7  and  C_8
REMARK    4  A    between atoms: C_12  and  C_13
REMARK    5  A    between atoms: C_17  and  C_18
REMARK                            x       y       z     vdW  Elec       q    Type
REMARK                         _______ _______ _______ _____ _____    ______ ____
ROOT
ATOM      1  C   UNL     1      48.414   7.878  14.172  0.00  0.00    +0.000 A 
ATOM      2  C   UNL     1      48.240   9.153  14.730  0.00  0.00    +0.000 A 
ATOM      3  C   UNL     1      48.297   9.345  16.108  0.00  0.00    +0.000 A 
ATOM      4  C   UNL     1      48.550   8.264  16.953  0.00  0.00    +0.000 A 
ATOM      5  C   UNL     1      48.809   6.985  16.440  0.00  0.00    +0.000 A 
ATOM      6  C   UNL     1      48.778   6.831  15.041  0.00  0.00    +0.000 A 
ENDROOT
BRANCH   5   7
ATOM      7  C   UNL     1      49.030   5.821  17.324  0.00  0.00    +0.000 A 
ATOM      8  C   UNL     1      48.772   5.890  18.702  0.00  0.00    +0.000 A 
ATOM      9  C   UNL     1      48.976   4.771  19.499  0.00  0.00    +0.000 A 
ATOM     10  N   UNL     1      49.409   3.585  19.030  0.00  0.00    +0.000 NA
ATOM     11  C   UNL     1      49.644   3.524  17.691  0.00  0.00    +0.000 A 
ATOM     12  C   UNL     1      49.474   4.593  16.820  0.00  0.00    +0.000 A 
BRANCH  11  13
ATOM     13  C   UNL     1      50.120   2.210  17.155  0.00  0.00    +0.000 C 
ATOM     14  N   UNL     1      51.056   1.571  17.921  0.00  0.00    +0.000 N 
ATOM     15  O   UNL     1      49.707   1.732  16.106  0.00  0.00    +0.000 OA
ATOM     16  H   UNL     1      51.377   2.003  18.781  0.00  0.00    +0.000 HD
ATOM     17  H   UNL     1      51.437   0.689  17.612  0.00  0.00    +0.000 HD
ENDBRANCH  11  13
ENDBRANCH   5   7
BRANCH   1  18
ATOM     18  C   UNL     1      48.005   7.589  12.724  0.00  0.00    +0.000 C 
ATOM     19  C   UNL     1      48.171   8.735  11.719  0.00  0.00    +0.000 C 
ATOM     20  C   UNL     1      49.169   7.627  11.724  0.00  0.00    +0.000 C 
BRANCH  18  24
ATOM     21  C   UNL     1      44.943   4.592  11.886  0.00  0.00    +0.000 A 
ATOM     22  C   UNL     1      45.062   5.722  11.071  0.00  0.00    +0.000 A 
ATOM     23  C   UNL     1      46.021   6.702  11.361  0.00  0.00    +0.000 A 
ATOM     24  C   UNL     1      46.889   6.578  12.461  0.00  0.00    +0.000 A 
ATOM     25  C   UNL     1      46.726   5.443  13.281  0.00  0.00    +0.000 A 
ATOM     26  C   UNL     1      45.772   4.462  12.996  0.00  0.00    +0.000 A 
BRANCH  21  28
ATOM     27  N   UNL     1      43.216   2.738  11.325  0.00  0.00    +0.000 NA
ATOM     28  C   UNL     1      43.991   3.564  11.569  0.00  0.00    +0.000 C 
ENDBRANCH  21  28
ENDBRANCH  18  24
ENDBRANCH   1  18
TORSDOF 5
ENDMDL
MODEL 6
REMARK VINA RESULT:    -6.472      3.126      4.007
REMARK INTER + INTRA:          -9.273
REMARK INTER:                  -8.617
REMARK INTRA:                  -0.656
REMARK UNBOUND:                -0.909
REMARK  Name = 
REMARK  5 active torsions:
REMARK  status: ('A' for Active; 'I' for Inactive)
REMARK    1  A    between atoms: C_2  and  C_3
REMARK    2  A    between atoms: C_6  and  C_7
REMARK    3  A    between atoms: C_7  and  C_8
REMARK    4  A    between atoms: C_12  and  C_13
REMARK    5  A    between atoms: C_17  and  C_18
REMARK                            x       y       z     vdW  Elec       q    Type
REMARK                         _______ _______ _______ _____ _____    ______ ____
ROOT
ATOM      1  C   UNL     1      45.494   5.480  11.435  0.00  0.00    +0.000 A 
ATOM      2  C   UNL     1      45.180   6.842  11.334  0.00  0.00    +0.000 A 
ATOM      3  C   UNL     1      45.560   7.740  12.328  0.00  0.00    +0.000 A 
ATOM      4  C   UNL     1      46.282   7.292  13.434  0.00  0.00    +0.000 A 
ATOM      5  C   UNL     1      46.690   5.954  13.542  0.00  0.00    +0.000 A 
ATOM      6  C   UNL     1      46.319   5.079  12.504  0.00  0.00    +0.000 A 
ENDROOT
BRANCH   5   7
ATOM      7  C   UNL     1      47.413   5.454  14.731  0.00  0.00    +0.000 A 
ATOM      8  C   UNL     1      47.112   4.206  15.300  0.00  0.00    +0.000 A 
ATOM      9  C   UNL     1      47.823   3.762  16.406  0.00  0.00    +0.000 A 
ATOM     10  N   UNL     1      48.817   4.460  16.988  0.00  0.00    +0.000 NA
ATOM     11  C   UNL     1      49.111   5.663  16.422  0.00  0.00    +0.000 A 
ATOM     12  C   UNL     1      48.450   6.188  15.319  0.00  0.00    +0.000 A 
BRANCH  11  13
ATOM     13  C   UNL     1      50.219   6.446  17.055  0.00  0.00    +0.000 C 
ATOM     14  N   UNL     1      49.928   6.987  18.277  0.00  0.00    +0.000 N 
ATOM     15  O   UNL     1      51.311   6.598  16.523  0.00  0.00    +0.000 OA
ATOM     16  H   UNL     1      49.008   6.844  18.680  0.00  0.00    +0.000 HD
ATOM     17  H   UNL     1      50.620   7.545  18.754  0.00  0.00    +0.000 HD
ENDBRANCH  11  13
ENDBRANCH   5   7
BRANCH   1  18
ATOM     18  C   UNL     1      44.790   4.441  10.556  0.00  0.00    +0.000 C 
ATOM     19  C   UNL     1      43.751   3.548  11.245  0.00  0.00    +0.000 C 
ATOM     20  C   UNL     1      43.282   4.677  10.391  0.00  0.00    +0.000 C 
BRANCH  18  24
ATOM     21  C   UNL     1      46.783   2.793   7.038  0.00  0.00    +0.000 A 
ATOM     22  C   UNL     1      46.231   1.939   7.998  0.00  0.00    +0.000 A 
ATOM     23  C   UNL     1      45.624   2.467   9.146  0.00  0.00    +0.000 A 
ATOM     24  C   UNL     1      45.541   3.854   9.361  0.00  0.00    +0.000 A 
ATOM     25  C   UNL     1      46.131   4.689   8.390  0.00  0.00    +0.000 A 
ATOM     26  C   UNL     1      46.738   4.169   7.244  0.00  0.00    +0.000 A 
BRANCH  21  28
ATOM     27  N   UNL     1      47.853   1.828   4.880  0.00  0.00    +0.000 NA
ATOM     28  C   UNL     1      47.368   2.259   5.840  0.00  0.00    +0.000 C 
ENDBRANCH  21  28
ENDBRANCH  18  24
ENDBRANCH   1  18
TORSDOF 5
ENDMDL
MODEL 7
REMARK VINA RESULT:    -5.815      4.602      8.369
REMARK INTER + INTRA:          -8.423
REMARK INTER:                  -7.545
REMARK INTRA:                  -0.878
REMARK UNBOUND:                -0.909
REMARK  Name = 
REMARK  5 active torsions:
REMARK  status: ('A' for Active; 'I' for Inactive)
REMARK    1  A    between atoms: C_2  and  C_3
REMARK    2  A    between atoms: C_6  and  C_7
REMARK    3  A    between atoms: C_7  and  C_8
REMARK    4  A    between atoms: C_12  and  C_13
REMARK    5  A    between atoms: C_17  and  C_18
REMARK                            x       y       z     vdW  Elec       q    Type
REMARK                         _______ _______ _______ _____ _____    ______ ____
ROOT
ATOM      1  C   UNL     1      49.091   8.357  14.250  0.00  0.00    +0.000 A 
ATOM      2  C   UNL     1      49.601   9.016  13.123  0.00  0.00    +0.000 A 
ATOM      3  C   UNL     1      49.220   8.637  11.838  0.00  0.00    +0.000 A 
ATOM      4  C   UNL     1      48.302   7.602  11.659  0.00  0.00    +0.000 A 
ATOM      5  C   UNL     1      47.702   6.965  12.756  0.00  0.00    +0.000 A 
ATOM      6  C   UNL     1      48.084   7.394  14.041  0.00  0.00    +0.000 A 
ENDROOT
BRANCH   5   7
ATOM      7  C   UNL     1      46.766   5.834  12.583  0.00  0.00    +0.000 A 
ATOM      8  C   UNL     1      46.895   4.655  13.333  0.00  0.00    +0.000 A 
ATOM      9  C   UNL     1      45.987   3.620  13.155  0.00  0.00    +0.000 A 
ATOM     10  N   UNL     1      44.953   3.670  12.293  0.00  0.00    +0.000 NA
ATOM     11  C   UNL     1      44.828   4.822  11.580  0.00  0.00    +0.000 A 
ATOM     12  C   UNL     1      45.691   5.905  11.688  0.00  0.00    +0.000 A 
BRANCH  11  13
ATOM     13  C   UNL     1      43.679   4.893  10.622  0.00  0.00    +0.000 C 
ATOM     14  N   UNL     1      43.966   4.525   9.337  0.00  0.00    +0.000 N 
ATOM     15  O   UNL     1      42.558   5.255  10.957  0.00  0.00    +0.000 OA
ATOM     16  H   UNL     1      44.909   4.237   9.099  0.00  0.00    +0.000 HD
ATOM     17  H   UNL     1      43.245   4.567   8.632  0.00  0.00    +0.000 HD
ENDBRANCH  11  13
ENDBRANCH   5   7
BRANCH   1  18
ATOM     18  C   UNL     1      49.755   8.511  15.622  0.00  0.00    +0.000 C 
ATOM     19  C   UNL     1      50.406   9.866  15.924  0.00  0.00    +0.000 C 
ATOM     20  C   UNL     1      49.082   9.548  16.533  0.00  0.00    +0.000 C 
BRANCH  18  24
ATOM     21  C   UNL     1      51.489   4.905  17.370  0.00  0.00    +0.000 A 
ATOM     22  C   UNL     1      50.104   5.094  17.378  0.00  0.00    +0.000 A 
ATOM     23  C   UNL     1      49.549   6.268  16.849  0.00  0.00    +0.000 A 
ATOM     24  C   UNL     1      50.356   7.276  16.293  0.00  0.00    +0.000 A 
ATOM     25  C   UNL     1      51.751   7.071  16.325  0.00  0.00    +0.000 A 
ATOM     26  C   UNL     1      52.310   5.902  16.850  0.00  0.00    +0.000 A 
BRANCH  21  28
ATOM     27  N   UNL     1      52.514   2.695  18.264  0.00  0.00    +0.000 NA
ATOM     28  C   UNL     1      52.060   3.686  17.870  0.00  0.00    +0.000 C 
ENDBRANCH  21  28
ENDBRANCH  18  24
ENDBRANCH   1  18
TORSDOF 5
ENDMDL
MODEL 8
REMARK VINA RESULT:    -5.658      4.677      6.964
REMARK INTER + INTRA:          -8.220
REMARK INTER:                  -7.270
REMARK INTRA:                  -0.950
REMARK UNBOUND:                -0.909
REMARK  Name = 
REMARK  5 active torsions:
REMARK  status: ('A' for Active; 'I' for Inactive)
REMARK    1  A    between atoms: C_2  and  C_3
REMARK    2  A    between atoms: C_6  and  C_7
REMARK    3  A    between atoms: C_7  and  C_8
REMARK    4  A    between atoms: C_12  and  C_13
REMARK    5  A    between atoms: C_17  and  C_18
REMARK                            x       y       z     vdW  Elec       q    Type
REMARK                         _______ _______ _______ _____ _____    ______ ____
ROOT
ATOM      1  C   UNL     1      48.898   9.250  14.066  0.00  0.00    +0.000 A 
ATOM      2  C   UNL     1      49.119  10.582  14.445  0.00  0.00    +0.000 A 
ATOM      3  C   UNL     1      49.116  10.954  15.787  0.00  0.00    +0.000 A 
ATOM      4  C   UNL     1      48.910   9.993  16.777  0.00  0.00    +0.000 A 
ATOM      5  C   UNL     1      48.763   8.635  16.454  0.00  0.00    +0.000 A 
ATOM      6  C   UNL     1      48.805   8.288  15.090  0.00  0.00    +0.000 A 
ENDROOT
BRANCH   5   7
ATOM      7  C   UNL     1      48.495   7.613  17.487  0.00  0.00    +0.000 A 
ATOM      8  C   UNL     1      47.933   7.956  18.727  0.00  0.00    +0.000 A 
ATOM      9  C   UNL     1      47.680   6.966  19.667  0.00  0.00    +0.000 A 
ATOM     10  N   UNL     1      47.936   5.659  19.468  0.00  0.00    +0.000 NA
ATOM     11  C   UNL     1      48.468   5.335  18.258  0.00  0.00    +0.000 A 
ATOM     12  C   UNL     1      48.759   6.257  17.261  0.00  0.00    +0.000 A 
BRANCH  11  13
ATOM     13  C   UNL     1      48.751   3.884  18.020  0.00  0.00    +0.000 C 
ATOM     14  N   UNL     1      48.474   3.054  19.072  0.00  0.00    +0.000 N 
ATOM     15  O   UNL     1      49.200   3.461  16.963  0.00  0.00    +0.000 OA
ATOM     16  H   UNL     1      48.108   3.445  19.933  0.00  0.00    +0.000 HD
ATOM     17  H   UNL     1      48.658   2.065  18.990  0.00  0.00    +0.000 HD
ENDBRANCH  11  13
ENDBRANCH   5   7
BRANCH   1  18
ATOM     18  C   UNL     1      48.544   8.891  12.619  0.00  0.00    +0.000 C 
ATOM     19  C   UNL     1      49.006   9.871  11.534  0.00  0.00    +0.000 C 
ATOM     20  C   UNL     1      49.761   8.600  11.729  0.00  0.00    +0.000 C 
BRANCH  18  24
ATOM     21  C   UNL     1      44.960   6.590  11.664  0.00  0.00    +0.000 A 
ATOM     22  C   UNL     1      44.890   7.980  11.787  0.00  0.00    +0.000 A 
ATOM     23  C   UNL     1      46.033   8.716  12.129  0.00  0.00    +0.000 A 
ATOM     24  C   UNL     1      47.272   8.088  12.348  0.00  0.00    +0.000 A 
ATOM     25  C   UNL     1      47.305   6.683  12.245  0.00  0.00    +0.000 A 
ATOM     26  C   UNL     1      46.170   5.944  11.904  0.00  0.00    +0.000 A 
BRANCH  21  28
ATOM     27  N   UNL     1      42.861   5.238  10.953  0.00  0.00    +0.000 NA
ATOM     28  C   UNL     1      43.803   5.835  11.271  0.00  0.00    +0.000 C 
ENDBRANCH  21  28
ENDBRANCH  18  24
ENDBRANCH   1  18
TORSDOF 5
ENDMDL
MODEL 9
REMARK VINA RESULT:    -5.644      4.470      8.156
REMARK INTER + INTRA:          -8.202
REMARK INTER:                  -7.203
REMARK INTRA:                  -0.999
REMARK UNBOUND:                -0.909
REMARK  Name = 
REMARK  5 active torsions:
REMARK  status: ('A' for Active; 'I' for Inactive)
REMARK    1  A    between atoms: C_2  and  C_3
REMARK    2  A    between atoms: C_6  and  C_7
REMARK    3  A    between atoms: C_7  and  C_8
REMARK    4  A    between atoms: C_12  and  C_13
REMARK    5  A    between atoms: C_17  and  C_18
REMARK                            x       y       z     vdW  Elec       q    Type
REMARK                         _______ _______ _______ _____ _____    ______ ____
ROOT
ATOM      1  C   UNL     1      48.601   9.430  15.013  0.00  0.00    +0.000 A 
ATOM      2  C   UNL     1      49.051  10.407  14.113  0.00  0.00    +0.000 A 
ATOM      3  C   UNL     1      48.661  10.382  12.776  0.00  0.00    +0.000 A 
ATOM      4  C   UNL     1      47.796   9.387  12.320  0.00  0.00    +0.000 A 
ATOM      5  C   UNL     1      47.256   8.435  13.197  0.00  0.00    +0.000 A 
ATOM      6  C   UNL     1      47.643   8.508  14.548  0.00  0.00    +0.000 A 
ENDROOT
BRANCH   5   7
ATOM      7  C   UNL     1      46.378   7.346  12.719  0.00  0.00    +0.000 A 
ATOM      8  C   UNL     1      45.305   7.599  11.850  0.00  0.00    +0.000 A 
ATOM      9  C   UNL     1      44.511   6.549  11.409  0.00  0.00    +0.000 A 
ATOM     10  N   UNL     1      44.706   5.263  11.759  0.00  0.00    +0.000 NA
ATOM     11  C   UNL     1      45.756   5.026  12.592  0.00  0.00    +0.000 A 
ATOM     12  C   UNL     1      46.598   6.013  13.087  0.00  0.00    +0.000 A 
BRANCH  11  13
ATOM     13  C   UNL     1      45.988   3.600  12.984  0.00  0.00    +0.000 C 
ATOM     14  N   UNL     1      45.066   2.706  12.512  0.00  0.00    +0.000 N 
ATOM     15  O   UNL     1      46.934   3.249  13.678  0.00  0.00    +0.000 OA
ATOM     16  H   UNL     1      44.294   3.038  11.945  0.00  0.00    +0.000 HD
ATOM     17  H   UNL     1      45.148   1.729  12.753  0.00  0.00    +0.000 HD
ENDBRANCH  11  13
ENDBRANCH   5   7
BRANCH   1  18
ATOM     18  C   UNL     1      49.287   9.232  16.368  0.00  0.00    +0.000 C 
ATOM     19  C   UNL     1      50.074  10.425  16.923  0.00  0.00    +0.000 C 
ATOM     20  C   UNL     1      48.729  10.119  17.490  0.00  0.00    +0.000 C 
BRANCH  18  24
ATOM     21  C   UNL     1      50.637   5.184  17.295  0.00  0.00    +0.000 A 
ATOM     22  C   UNL     1      49.302   5.545  17.503  0.00  0.00    +0.000 A 
ATOM     23  C   UNL     1      48.876   6.854  17.240  0.00  0.00    +0.000 A 
ATOM     24  C   UNL     1      49.764   7.832  16.756  0.00  0.00    +0.000 A 
ATOM     25  C   UNL     1      51.109   7.447  16.584  0.00  0.00    +0.000 A 
ATOM     26  C   UNL     1      51.539   6.144  16.844  0.00  0.00    +0.000 A 
BRANCH  21  28
ATOM     27  N   UNL     1      51.405   2.740  17.708  0.00  0.00    +0.000 NA
ATOM     28  C   UNL     1      51.069   3.834  17.522  0.00  0.00    +0.000 C 
ENDBRANCH  21  28
ENDBRANCH  18  24
ENDBRANCH   1  18
TORSDOF 5
ENDMDL
