MODEL 1
REMARK VINA RESULT:    -9.257      0.000      0.000
REMARK INTER + INTRA:         -12.545
REMARK INTER:                 -11.963
REMARK INTRA:                  -0.582
REMARK UNBOUND:                -0.582
REMARK  Name = 
REMARK  5 active torsions:
REMARK  status: ('A' for Active; 'I' for Inactive)
REMARK    1  A    between atoms: C_2  and  C_4
REMARK    2  A    between atoms: C_7  and  N_8
REMARK    3  A    between atoms: N_8  and  C_9
REMARK    4  A    between atoms: C_9  and  C_10
REMARK    5  A    between atoms: C_14  and  C_15
REMARK                            x       y       z     vdW  Elec       q    Type
REMARK                         _______ _______ _______ _____ _____    ______ ____
ROOT
ATOM      1  C   UNL     1      43.434   4.930  11.071  0.00  0.00    +0.000 C 
ENDROOT
BRANCH   1   2
ATOM      2  C   UNL     1      44.693   5.029  11.890  0.00  0.00    +0.000 A 
ATOM      3  C   UNL     1      44.991   4.113  12.886  0.00  0.00    +0.000 A 
ATOM      4  N   UNL     1      46.084   4.191  13.674  0.00  0.00    +0.000 NA
ATOM      5  C   UNL     1      46.927   5.233  13.452  0.00  0.00    +0.000 A 
ATOM      6  C   UNL     1      46.755   6.219  12.479  0.00  0.00    +0.000 A 
ATOM      7  C   UNL     1      45.592   6.093  11.706  0.00  0.00    +0.000 A 
BRANCH   6   8
ATOM      8  C   UNL     1      47.734   7.305  12.250  0.00  0.00    +0.000 A 
ATOM      9  C   UNL     1      47.334   8.641  12.114  0.00  0.00    +0.000 A 
ATOM     10  C   UNL     1      48.299   9.623  11.954  0.00  0.00    +0.000 A 
ATOM     11  N   UNL     1      49.626   9.383  11.926  0.00  0.00    +0.000 NA
ATOM     12  C   UNL     1      50.013   8.106  12.054  0.00  0.00    +0.000 A 
ATOM     13  N   UNL     1      51.386   7.873  12.093  0.00  0.00    +0.000 N 
ATOM     14  C   UNL     1      49.116   7.057  12.206  0.00  0.00    +0.000 A 
ATOM     15  H   UNL     1      51.841   8.765  11.921  0.00  0.00    +0.000 HD
ATOM     16  H   UNL     1      51.671   7.163  11.432  0.00  0.00    +0.000 HD
ENDBRANCH   6   8
ENDBRANCH   1   2
BRANCH   1  17
ATOM     17  N   UNL     1      43.786   4.950   9.661  0.00  0.00    +0.000 N 
ATOM     18  H   UNL     1      44.035   5.870   9.310  0.00  0.00    +0.000 HD
BRANCH  17  22
ATOM     19  C   UNL     1      46.387   2.332   7.780  0.00  0.00    +0.000 A 
ATOM     20  C   UNL     1      46.373   3.704   7.580  0.00  0.00    +0.000 A 
ATOM     21  N   UNL     1      45.537   4.557   8.230  0.00  0.00    +0.000 NA
ATOM     22  C   UNL     1      44.679   4.038   9.137  0.00  0.00    +0.000 A 
ATOM     23  C   UNL     1      44.664   2.664   9.408  0.00  0.00    +0.000 A 
ATOM     24  F   UNL     1      43.804   2.127  10.284  0.00  0.00    +0.000 F 
ATOM     25  C   UNL     1      45.524   1.804   8.734  0.00  0.00    +0.000 A 
BRANCH  19  27
ATOM     26  N   UNL     1      48.409   2.105   6.459  0.00  0.00    +0.000 N 
ATOM     27  C   UNL     1      47.305   1.493   6.987  0.00  0.00    +0.000 C 
ATOM     28  O   UNL     1      47.105   0.297   6.837  0.00  0.00    +0.000 OA
ATOM     29  H   UNL     1      49.084   1.503   6.004  0.00  0.00    +0.000 HD
ATOM     30  H   UNL     1      48.733   3.013   6.763  0.00  0.00    +0.000 HD
ENDBRANCH  19  27
ENDBRANCH  17  22
ENDBRANCH   1  17
TORSDOF 5
ENDMDL
MODEL 2
REMARK VINA RESULT:    -9.121      1.934      3.297
REMARK INTER + INTRA:         -12.369
REMARK INTER:                 -11.643
REMARK INTRA:                  -0.725
REMARK UNBOUND:                -0.582
REMARK  Name = 
REMARK  5 active torsions:
REMARK  status: ('A' for Active; 'I' for Inactive)
REMARK    1  A    between atoms: C_2  and  C_4
REMARK    2  A    between atoms: C_7  and  N_8
REMARK    3  A    between atoms: N_8  and  C_9
REMARK    4  A    between atoms: C_9  and  C_10
REMARK    5  A    between atoms: C_14  and  C_15
REMARK                            x       y       z     vdW  Elec       q    Type
REMARK                         _______ _______ _______ _____ _____    ______ ____
ROOT
ATOM      1  C   UNL     1      43.666   4.932  11.233  0.00  0.00    +0.000 C 
ENDROOT
BRANCH   1   2
ATOM      2  C   UNL     1      44.766   5.763  11.836  0.00  0.00    +0.000 A 
ATOM      3  C   UNL     1      45.095   7.013  11.335  0.00  0.00    +0.000 A 
ATOM      4  N   UNL     1      46.104   7.771  11.815  0.00  0.00    +0.000 NA
ATOM      5  C   UNL     1      46.816   7.259  12.852  0.00  0.00    +0.000 A 
ATOM      6  C   UNL     1      46.587   6.022  13.458  0.00  0.00    +0.000 A 
ATOM      7  C   UNL     1      45.538   5.274  12.903  0.00  0.00    +0.000 A 
BRANCH   6   8
ATOM      8  C   UNL     1      47.365   5.536  14.620  0.00  0.00    +0.000 A 
ATOM      9  C   UNL     1      48.410   6.287  15.173  0.00  0.00    +0.000 A 
ATOM     10  C   UNL     1      49.069   5.806  16.294  0.00  0.00    +0.000 A 
ATOM     11  N   UNL     1      48.766   4.645  16.909  0.00  0.00    +0.000 NA
ATOM     12  C   UNL     1      47.768   3.922  16.382  0.00  0.00    +0.000 A 
ATOM     13  N   UNL     1      47.415   2.759  17.063  0.00  0.00    +0.000 N 
ATOM     14  C   UNL     1      47.062   4.320  15.255  0.00  0.00    +0.000 A 
ATOM     15  H   UNL     1      48.084   2.646  17.820  0.00  0.00    +0.000 HD
ATOM     16  H   UNL     1      47.386   1.954  16.452  0.00  0.00    +0.000 HD
ENDBRANCH   6   8
ENDBRANCH   1   2
BRANCH   1  17
ATOM     17  N   UNL     1      43.833   4.900   9.790  0.00  0.00    +0.000 N 
ATOM     18  H   UNL     1      43.936   5.816   9.365  0.00  0.00    +0.000 HD
BRANCH  17  22
ATOM     19  C   UNL     1      46.491   2.493   7.717  0.00  0.00    +0.000 A 
ATOM     20  C   UNL     1      46.439   3.875   7.614  0.00  0.00    +0.000 A 
ATOM     21  N   UNL     1      45.585   4.657   8.327  0.00  0.00    +0.000 NA
ATOM     22  C   UNL     1      44.748   4.052   9.198  0.00  0.00    +0.000 A 
ATOM     23  C   UNL     1      44.771   2.663   9.372  0.00  0.00    +0.000 A 
ATOM     24  F   UNL     1      43.931   2.042  10.212  0.00  0.00    +0.000 F 
ATOM     25  C   UNL     1      45.649   1.876   8.635  0.00  0.00    +0.000 A 
BRANCH  19  27
ATOM     26  N   UNL     1      48.533   2.403   6.409  0.00  0.00    +0.000 N 
ATOM     27  C   UNL     1      47.426   1.738   6.862  0.00  0.00    +0.000 C 
ATOM     28  O   UNL     1      47.238   0.560   6.599  0.00  0.00    +0.000 OA
ATOM     29  H   UNL     1      49.218   1.850   5.909  0.00  0.00    +0.000 HD
ATOM     30  H   UNL     1      48.846   3.281   6.801  0.00  0.00    +0.000 HD
ENDBRANCH  19  27
ENDBRANCH  17  22
ENDBRANCH   1  17
TORSDOF 5
ENDMDL
MODEL 3
REMARK VINA RESULT:    -8.779      1.415      1.624
REMARK INTER + INTRA:         -11.926
REMARK INTER:                 -11.236
REMARK INTRA:                  -0.691
REMARK UNBOUND:                -0.582
REMARK  Name = 
REMARK  5 active torsions:
REMARK  status: ('A' for Active; 'I' for Inactive)
REMARK    1  A    between atoms: C_2  and  C_4
REMARK    2  A    between atoms: C_7  and  N_8
REMARK    3  A    between atoms: N_8  and  C_9
REMARK    4  A    between atoms: C_9  and  C_10
REMARK    5  A    between atoms: C_14  and  C_15
REMARK                            x       y       z     vdW  Elec       q    Type
REMARK                         _______ _______ _______ _____ _____    ______ ____
ROOT
ATOM      1  C   UNL     1      44.172   5.958  10.621  0.00  0.00    +0.000 C 
ENDROOT
BRANCH   1   2
ATOM      2  C   UNL     1      45.029   5.533  11.783  0.00  0.00    +0.000 A 
ATOM      3  C   UNL     1      44.677   4.472  12.602  0.00  0.00    +0.000 A 
ATOM      4  N   UNL     1      45.391   4.087  13.680  0.00  0.00    +0.000 NA
ATOM      5  C   UNL     1      46.520   4.792  13.951  0.00  0.00    +0.000 A 
ATOM      6  C   UNL     1      46.997   5.873  13.207  0.00  0.00    +0.000 A 
ATOM      7  C   UNL     1      46.201   6.236  12.111  0.00  0.00    +0.000 A 
BRANCH   6   8
ATOM      8  C   UNL     1      48.262   6.574  13.521  0.00  0.00    +0.000 A 
ATOM      9  C   UNL     1      49.043   7.168  12.522  0.00  0.00    +0.000 A 
ATOM     10  C   UNL     1      50.191   7.858  12.880  0.00  0.00    +0.000 A 
ATOM     11  N   UNL     1      50.617   8.007  14.151  0.00  0.00    +0.000 NA
ATOM     12  C   UNL     1      49.874   7.439  15.111  0.00  0.00    +0.000 A 
ATOM     13  N   UNL     1      50.282   7.656  16.425  0.00  0.00    +0.000 N 
ATOM     14  C   UNL     1      48.717   6.720  14.842  0.00  0.00    +0.000 A 
ATOM     15  H   UNL     1      51.163   8.162  16.380  0.00  0.00    +0.000 HD
ATOM     16  H   UNL     1      50.361   6.793  16.946  0.00  0.00    +0.000 HD
ENDBRANCH   6   8
ENDBRANCH   1   2
BRANCH   1  17
ATOM     17  N   UNL     1      43.771   4.779   9.873  0.00  0.00    +0.000 N 
ATOM     18  H   UNL     1      43.012   4.941   9.220  0.00  0.00    +0.000 HD
BRANCH  17  22
ATOM     19  C   UNL     1      46.486   2.526   7.702  0.00  0.00    +0.000 A 
ATOM     20  C   UNL     1      46.379   3.907   7.633  0.00  0.00    +0.000 A 
ATOM     21  N   UNL     1      45.506   4.639   8.377  0.00  0.00    +0.000 NA
ATOM     22  C   UNL     1      44.708   3.981   9.247  0.00  0.00    +0.000 A 
ATOM     23  C   UNL     1      44.789   2.590   9.388  0.00  0.00    +0.000 A 
ATOM     24  F   UNL     1      43.988   1.918  10.226  0.00  0.00    +0.000 F 
ATOM     25  C   UNL     1      45.684   1.856   8.619  0.00  0.00    +0.000 A 
BRANCH  19  27
ATOM     26  N   UNL     1      48.529   2.535   6.393  0.00  0.00    +0.000 N 
ATOM     27  C   UNL     1      47.436   1.828   6.815  0.00  0.00    +0.000 C 
ATOM     28  O   UNL     1      47.271   0.660   6.500  0.00  0.00    +0.000 OA
ATOM     29  H   UNL     1      49.225   2.018   5.869  0.00  0.00    +0.000 HD
ATOM     30  H   UNL     1      48.825   3.400   6.824  0.00  0.00    +0.000 HD
ENDBRANCH  19  27
ENDBRANCH  17  22
ENDBRANCH   1  17
TORSDOF 5
ENDMDL
MODEL 4
REMARK VINA RESULT:    -8.329      1.764      2.268
REMARK INTER + INTRA:         -11.346
REMARK INTER:                 -10.659
REMARK INTRA:                  -0.687
REMARK UNBOUND:                -0.582
REMARK  Name = 
REMARK  5 active torsions:
REMARK  status: ('A' for Active; 'I' for Inactive)
REMARK    1  A    between atoms: C_2  and  C_4
REMARK    2  A    between atoms: C_7  and  N_8
REMARK    3  A    between atoms: N_8  and  C_9
REMARK    4  A    between atoms: C_9  and  C_10
REMARK    5  A    between atoms: C_14  and  C_15
REMARK                            x       y       z     vdW  Elec       q    Type
REMARK                         _______ _______ _______ _____ _____    ______ ____
ROOT
ATOM      1  C   UNL     1      44.028   5.184  11.358  0.00  0.00    +0.000 C 
ENDROOT
BRANCH   1   2
ATOM      2  C   UNL     1      44.771   6.455  11.673  0.00  0.00    +0.000 A 
ATOM      3  C   UNL     1      44.254   7.701  11.356  0.00  0.00    +0.000 A 
ATOM      4  N   UNL     1      44.907   8.862  11.579  0.00  0.00    +0.000 NA
ATOM      5  C   UNL     1      46.134   8.775  12.155  0.00  0.00    +0.000 A 
ATOM      6  C   UNL     1      46.767   7.590  12.535  0.00  0.00    +0.000 A 
ATOM      7  C   UNL     1      46.047   6.418  12.260  0.00  0.00    +0.000 A 
BRANCH   6   8
ATOM      8  C   UNL     1      48.086   7.559  13.205  0.00  0.00    +0.000 A 
ATOM      9  C   UNL     1      49.209   8.187  12.652  0.00  0.00    +0.000 A 
ATOM     10  C   UNL     1      50.407   8.171  13.350  0.00  0.00    +0.000 A 
ATOM     11  N   UNL     1      50.572   7.586  14.554  0.00  0.00    +0.000 NA
ATOM     12  C   UNL     1      49.500   6.982  15.087  0.00  0.00    +0.000 A 
ATOM     13  N   UNL     1      49.660   6.442  16.361  0.00  0.00    +0.000 N 
ATOM     14  C   UNL     1      48.266   6.939  14.453  0.00  0.00    +0.000 A 
ATOM     15  H   UNL     1      50.641   6.549  16.606  0.00  0.00    +0.000 HD
ATOM     16  H   UNL     1      49.356   5.478  16.407  0.00  0.00    +0.000 HD
ENDBRANCH   6   8
ENDBRANCH   1   2
BRANCH   1  17
ATOM     17  N   UNL     1      43.989   5.006   9.916  0.00  0.00    +0.000 N 
ATOM     18  H   UNL     1      43.981   5.875   9.391  0.00  0.00    +0.000 HD
BRANCH  17  22
ATOM     19  C   UNL     1      46.497   2.543   7.725  0.00  0.00    +0.000 A 
ATOM     20  C   UNL     1      46.514   3.928   7.671  0.00  0.00    +0.000 A 
ATOM     21  N   UNL     1      45.709   4.727   8.422  0.00  0.00    +0.000 NA
ATOM     22  C   UNL     1      44.852   4.134   9.283  0.00  0.00    +0.000 A 
ATOM     23  C   UNL     1      44.807   2.740   9.408  0.00  0.00    +0.000 A 
ATOM     24  F   UNL     1      43.947   2.133  10.237  0.00  0.00    +0.000 F 
ATOM     25  C   UNL     1      45.636   1.937   8.633  0.00  0.00    +0.000 A 
BRANCH  19  27
ATOM     26  N   UNL     1      48.437   2.441   6.271  0.00  0.00    +0.000 N 
ATOM     27  C   UNL     1      47.383   1.772   6.832  0.00  0.00    +0.000 C 
ATOM     28  O   UNL     1      47.203   0.581   6.630  0.00  0.00    +0.000 OA
ATOM     29  H   UNL     1      49.095   1.882   5.742  0.00  0.00    +0.000 HD
ATOM     30  H   UNL     1      48.758   3.340   6.603  0.00  0.00    +0.000 HD
ENDBRANCH  19  27
ENDBRANCH  17  22
ENDBRANCH   1  17
TORSDOF 5
ENDMDL
MODEL 5
REMARK VINA RESULT:    -8.231      1.956      2.365
REMARK INTER + INTRA:         -11.218
REMARK INTER:                 -10.823
REMARK INTRA:                  -0.396
REMARK UNBOUND:                -0.582
REMARK  Name = 
REMARK  5 active torsions:
REMARK  status: ('A' for Active; 'I' for Inactive)
REMARK    1  A    between atoms: C_2  and  C_4
REMARK    2  A    between atoms: C_7  and  N_8
REMARK    3  A    between atoms: N_8  and  C_9
REMARK    4  A    between atoms: C_9  and  C_10
REMARK    5  A    between atoms: C_14  and  C_15
REMARK                            x       y       z     vdW  Elec       q    Type
REMARK                         _______ _______ _______ _____ _____    ______ ____
ROOT
ATOM      1  C   UNL     1      43.499   3.600  10.946  0.00  0.00    +0.000 C 
ENDROOT
BRANCH   1   2
ATOM      2  C   UNL     1      44.525   4.378  11.727  0.00  0.00    +0.000 A 
ATOM      3  C   UNL     1      45.362   3.765  12.645  0.00  0.00    +0.000 A 
ATOM      4  N   UNL     1      46.263   4.430  13.399  0.00  0.00    +0.000 NA
ATOM      5  C   UNL     1      46.338   5.775  13.221  0.00  0.00    +0.000 A 
ATOM      6  C   UNL     1      45.564   6.517  12.326  0.00  0.00    +0.000 A 
ATOM      7  C   UNL     1      44.635   5.771  11.586  0.00  0.00    +0.000 A 
BRANCH   6   8
ATOM      8  C   UNL     1      45.723   7.976  12.139  0.00  0.00    +0.000 A 
ATOM      9  C   UNL     1      44.738   8.751  11.515  0.00  0.00    +0.000 A 
ATOM     10  C   UNL     1      44.917  10.122  11.415  0.00  0.00    +0.000 A 
ATOM     11  N   UNL     1      45.993  10.781  11.891  0.00  0.00    +0.000 NA
ATOM     12  C   UNL     1      46.940  10.043  12.487  0.00  0.00    +0.000 A 
ATOM     13  N   UNL     1      48.015  10.737  13.038  0.00  0.00    +0.000 N 
ATOM     14  C   UNL     1      46.850   8.664  12.621  0.00  0.00    +0.000 A 
ATOM     15  H   UNL     1      47.895  11.715  12.785  0.00  0.00    +0.000 HD
ATOM     16  H   UNL     1      48.905  10.368  12.731  0.00  0.00    +0.000 HD
ENDBRANCH   6   8
ENDBRANCH   1   2
BRANCH   1  17
ATOM     17  N   UNL     1      44.120   2.398  10.417  0.00  0.00    +0.000 N 
ATOM     18  H   UNL     1      43.502   1.593  10.383  0.00  0.00    +0.000 HD
BRANCH  17  22
ATOM     19  C   UNL     1      46.567   2.418   7.075  0.00  0.00    +0.000 A 
ATOM     20  C   UNL     1      46.504   1.383   7.995  0.00  0.00    +0.000 A 
ATOM     21  N   UNL     1      45.670   1.373   9.070  0.00  0.00    +0.000 NA
ATOM     22  C   UNL     1      44.844   2.429   9.242  0.00  0.00    +0.000 A 
ATOM     23  C   UNL     1      44.836   3.492   8.331  0.00  0.00    +0.000 A 
ATOM     24  F   UNL     1      44.044   4.560   8.499  0.00  0.00    +0.000 F 
ATOM     25  C   UNL     1      45.695   3.489   7.239  0.00  0.00    +0.000 A 
BRANCH  19  27
ATOM     26  N   UNL     1      47.429   3.283   4.978  0.00  0.00    +0.000 N 
ATOM     27  C   UNL     1      47.542   2.347   5.970  0.00  0.00    +0.000 C 
ATOM     28  O   UNL     1      48.431   1.509   5.959  0.00  0.00    +0.000 OA
ATOM     29  H   UNL     1      48.161   3.289   4.279  0.00  0.00    +0.000 HD
ATOM     30  H   UNL     1      46.878   4.125   5.077  0.00  0.00    +0.000 HD
ENDBRANCH  19  27
ENDBRANCH  17  22
ENDBRANCH   1  17
TORSDOF 5
ENDMDL
MODEL 6
REMARK VINA RESULT:    -8.204      2.615      6.619
REMARK INTER + INTRA:         -11.184
REMARK INTER:                 -10.164
REMARK INTRA:                  -1.020
REMARK UNBOUND:                -0.582
REMARK  Name = 
REMARK  5 active torsions:
REMARK  status: ('A' for Active; 'I' for Inactive)
REMARK    1  A    between atoms: C_2  and  C_4
REMARK    2  A    between atoms: C_7  and  N_8
REMARK    3  A    between atoms: N_8  and  C_9
REMARK    4  A    between atoms: C_9  and  C_10
REMARK    5  A    between atoms: C_14  and  C_15
REMARK                            x       y       z     vdW  Elec       q    Type
REMARK                         _______ _______ _______ _____ _____    ______ ____
ROOT
ATOM      1  C   UNL     1      43.857   6.831  11.388  0.00  0.00    +0.000 C 
ENDROOT
BRANCH   1   2
ATOM      2  C   UNL     1      43.834   5.357  11.085  0.00  0.00    +0.000 A 
ATOM      3  C   UNL     1      43.038   4.476  11.800  0.00  0.00    +0.000 A 
ATOM      4  N   UNL     1      43.022   3.143  11.593  0.00  0.00    +0.000 NA
ATOM      5  C   UNL     1      43.836   2.664  10.617  0.00  0.00    +0.000 A 
ATOM      6  C   UNL     1      44.680   3.436   9.816  0.00  0.00    +0.000 A 
ATOM      7  C   UNL     1      44.665   4.811  10.092  0.00  0.00    +0.000 A 
BRANCH   6   8
ATOM      8  C   UNL     1      45.509   2.865   8.732  0.00  0.00    +0.000 A 
ATOM      9  C   UNL     1      46.143   3.677   7.783  0.00  0.00    +0.000 A 
ATOM     10  C   UNL     1      46.952   3.090   6.822  0.00  0.00    +0.000 A 
ATOM     11  N   UNL     1      47.184   1.765   6.736  0.00  0.00    +0.000 NA
ATOM     12  C   UNL     1      46.578   0.983   7.641  0.00  0.00    +0.000 A 
ATOM     13  N   UNL     1      46.877  -0.376   7.588  0.00  0.00    +0.000 N 
ATOM     14  C   UNL     1      45.742   1.483   8.630  0.00  0.00    +0.000 A 
ATOM     15  H   UNL     1      47.464  -0.518   6.771  0.00  0.00    +0.000 HD
ATOM     16  H   UNL     1      46.043  -0.949   7.566  0.00  0.00    +0.000 HD
ENDBRANCH   6   8
ENDBRANCH   1   2
BRANCH   1  17
ATOM     17  N   UNL     1      44.577   7.047  12.631  0.00  0.00    +0.000 N 
ATOM     18  H   UNL     1      44.348   6.382  13.364  0.00  0.00    +0.000 HD
BRANCH  17  22
ATOM     19  C   UNL     1      48.649   7.759  12.353  0.00  0.00    +0.000 A 
ATOM     20  C   UNL     1      47.671   8.732  12.218  0.00  0.00    +0.000 A 
ATOM     21  N   UNL     1      46.338   8.492  12.346  0.00  0.00    +0.000 NA
ATOM     22  C   UNL     1      45.945   7.232  12.638  0.00  0.00    +0.000 A 
ATOM     23  C   UNL     1      46.885   6.209  12.818  0.00  0.00    +0.000 A 
ATOM     24  F   UNL     1      46.515   4.949  13.081  0.00  0.00    +0.000 F 
ATOM     25  C   UNL     1      48.244   6.470  12.682  0.00  0.00    +0.000 A 
BRANCH  19  27
ATOM     26  N   UNL     1      50.603   9.039  13.007  0.00  0.00    +0.000 N 
ATOM     27  C   UNL     1      50.064   8.120  12.148  0.00  0.00    +0.000 C 
ATOM     28  O   UNL     1      50.734   7.597  11.271  0.00  0.00    +0.000 OA
ATOM     29  H   UNL     1      51.598   9.205  12.923  0.00  0.00    +0.000 HD
ATOM     30  H   UNL     1      50.164   9.301  13.879  0.00  0.00    +0.000 HD
ENDBRANCH  19  27
ENDBRANCH  17  22
ENDBRANCH   1  17
TORSDOF 5
ENDMDL
MODEL 7
REMARK VINA RESULT:    -8.022      3.345      7.348
REMARK INTER + INTRA:         -10.948
REMARK INTER:                 -10.095
REMARK INTRA:                  -0.853
REMARK UNBOUND:                -0.582
REMARK  Name = 
REMARK  5 active torsions:
REMARK  status: ('A' for Active; 'I' for Inactive)
REMARK    1  A    between atoms: C_2  and  C_4
REMARK    2  A    between atoms: C_7  and  N_8
REMARK    3  A    between atoms: N_8  and  C_9
REMARK    4  A    between atoms: C_9  and  C_10
REMARK    5  A    between atoms: C_14  and  C_15
REMARK                            x       y       z     vdW  Elec       q    Type
REMARK                         _______ _______ _______ _____ _____    ______ ____
ROOT
ATOM      1  C   UNL     1      46.011   6.928  11.714  0.00  0.00    +0.000 C 
ENDROOT
BRANCH   1   2
ATOM      2  C   UNL     1      45.245   5.904  10.920  0.00  0.00    +0.000 A 
ATOM      3  C   UNL     1      43.878   5.733  11.072  0.00  0.00    +0.000 A 
ATOM      4  N   UNL     1      43.162   4.796  10.416  0.00  0.00    +0.000 NA
ATOM      5  C   UNL     1      43.843   3.994   9.557  0.00  0.00    +0.000 A 
ATOM      6  C   UNL     1      45.213   4.063   9.299  0.00  0.00    +0.000 A 
ATOM      7  C   UNL     1      45.905   5.043  10.026  0.00  0.00    +0.000 A 
BRANCH   6   8
ATOM      8  C   UNL     1      45.894   3.193   8.314  0.00  0.00    +0.000 A 
ATOM      9  C   UNL     1      46.582   3.723   7.215  0.00  0.00    +0.000 A 
ATOM     10  C   UNL     1      47.247   2.864   6.354  0.00  0.00    +0.000 A 
ATOM     11  N   UNL     1      47.285   1.524   6.504  0.00  0.00    +0.000 NA
ATOM     12  C   UNL     1      46.627   1.012   7.553  0.00  0.00    +0.000 A 
ATOM     13  N   UNL     1      46.730  -0.364   7.741  0.00  0.00    +0.000 N 
ATOM     14  C   UNL     1      45.925   1.796   8.459  0.00  0.00    +0.000 A 
ATOM     15  H   UNL     1      47.245  -0.733   6.946  0.00  0.00    +0.000 HD
ATOM     16  H   UNL     1      45.824  -0.802   7.848  0.00  0.00    +0.000 HD
ENDBRANCH   6   8
ENDBRANCH   1   2
BRANCH   1  17
ATOM     17  N   UNL     1      47.237   6.325  12.205  0.00  0.00    +0.000 N 
ATOM     18  H   UNL     1      48.076   6.853  11.985  0.00  0.00    +0.000 HD
BRANCH  17  22
ATOM     19  C   UNL     1      47.886   5.049  16.092  0.00  0.00    +0.000 A 
ATOM     20  C   UNL     1      48.365   6.239  15.566  0.00  0.00    +0.000 A 
ATOM     21  N   UNL     1      48.116   6.663  14.298  0.00  0.00    +0.000 NA
ATOM     22  C   UNL     1      47.342   5.885  13.509  0.00  0.00    +0.000 A 
ATOM     23  C   UNL     1      46.800   4.687  13.990  0.00  0.00    +0.000 A 
ATOM     24  F   UNL     1      46.052   3.889  13.215  0.00  0.00    +0.000 F 
ATOM     25  C   UNL     1      47.066   4.265  15.288  0.00  0.00    +0.000 A 
BRANCH  19  27
ATOM     26  N   UNL     1      47.481   3.714  18.078  0.00  0.00    +0.000 N 
ATOM     27  C   UNL     1      48.255   4.663  17.467  0.00  0.00    +0.000 C 
ATOM     28  O   UNL     1      49.230   5.145  18.023  0.00  0.00    +0.000 OA
ATOM     29  H   UNL     1      47.800   3.384  18.980  0.00  0.00    +0.000 HD
ATOM     30  H   UNL     1      46.834   3.124  17.573  0.00  0.00    +0.000 HD
ENDBRANCH  19  27
ENDBRANCH  17  22
ENDBRANCH   1  17
TORSDOF 5
ENDMDL
MODEL 8
REMARK VINA RESULT:    -7.827      3.431      7.346
REMARK INTER + INTRA:         -10.697
REMARK INTER:                 -10.134
REMARK INTRA:                  -0.563
REMARK UNBOUND:                -0.582
REMARK  Name = 
REMARK  5 active torsions:
REMARK  status: ('A' for Active; 'I' for Inactive)
REMARK    1  A    between atoms: C_2  and  C_4
REMARK    2  A    between atoms: C_7  and  N_8
REMARK    3  A    between atoms: N_8  and  C_9
REMARK    4  A    between atoms: C_9  and  C_10
REMARK    5  A    between atoms: C_14  and  C_15
REMARK                            x       y       z     vdW  Elec       q    Type
REMARK                         _______ _______ _______ _____ _____    ______ ____
ROOT
ATOM      1  C   UNL     1      44.837   6.485  11.396  0.00  0.00    +0.000 C 
ENDROOT
BRANCH   1   2
ATOM      2  C   UNL     1      44.528   5.091  10.916  0.00  0.00    +0.000 A 
ATOM      3  C   UNL     1      43.492   4.345  11.456  0.00  0.00    +0.000 A 
ATOM      4  N   UNL     1      43.211   3.078  11.089  0.00  0.00    +0.000 NA
ATOM      5  C   UNL     1      43.997   2.529  10.127  0.00  0.00    +0.000 A 
ATOM      6  C   UNL     1      45.064   3.168   9.492  0.00  0.00    +0.000 A 
ATOM      7  C   UNL     1      45.318   4.476   9.930  0.00  0.00    +0.000 A 
BRANCH   6   8
ATOM      8  C   UNL     1      45.857   2.537   8.413  0.00  0.00    +0.000 A 
ATOM      9  C   UNL     1      46.145   1.167   8.416  0.00  0.00    +0.000 A 
ATOM     10  C   UNL     1      46.847   0.620   7.353  0.00  0.00    +0.000 A 
ATOM     11  N   UNL     1      47.276   1.326   6.287  0.00  0.00    +0.000 NA
ATOM     12  C   UNL     1      47.003   2.639   6.281  0.00  0.00    +0.000 A 
ATOM     13  N   UNL     1      47.388   3.348   5.145  0.00  0.00    +0.000 N 
ATOM     14  C   UNL     1      46.318   3.272   7.309  0.00  0.00    +0.000 A 
ATOM     15  H   UNL     1      47.904   2.702   4.554  0.00  0.00    +0.000 HD
ATOM     16  H   UNL     1      47.928   4.172   5.376  0.00  0.00    +0.000 HD
ENDBRANCH   6   8
ENDBRANCH   1   2
BRANCH   1  17
ATOM     17  N   UNL     1      46.270   6.704  11.317  0.00  0.00    +0.000 N 
ATOM     18  H   UNL     1      46.534   7.537  10.799  0.00  0.00    +0.000 HD
BRANCH  17  22
ATOM     19  C   UNL     1      48.370   6.442  14.878  0.00  0.00    +0.000 A 
ATOM     20  C   UNL     1      47.469   5.490  14.426  0.00  0.00    +0.000 A 
ATOM     21  N   UNL     1      46.812   5.570  13.238  0.00  0.00    +0.000 NA
ATOM     22  C   UNL     1      47.064   6.635  12.444  0.00  0.00    +0.000 A 
ATOM     23  C   UNL     1      47.987   7.616  12.828  0.00  0.00    +0.000 A 
ATOM     24  F   UNL     1      48.231   8.692  12.067  0.00  0.00    +0.000 F 
ATOM     25  C   UNL     1      48.650   7.521  14.046  0.00  0.00    +0.000 A 
BRANCH  19  27
ATOM     26  N   UNL     1      48.213   6.544  17.297  0.00  0.00    +0.000 N 
ATOM     27  C   UNL     1      48.993   6.278  16.204  0.00  0.00    +0.000 C 
ATOM     28  O   UNL     1      50.145   5.889  16.323  0.00  0.00    +0.000 OA
ATOM     29  H   UNL     1      48.616   6.332  18.201  0.00  0.00    +0.000 HD
ATOM     30  H   UNL     1      47.206   6.623  17.248  0.00  0.00    +0.000 HD
ENDBRANCH  19  27
ENDBRANCH  17  22
ENDBRANCH   1  17
TORSDOF 5
ENDMDL
MODEL 9
REMARK VINA RESULT:    -7.735      2.749      6.810
REMARK INTER + INTRA:         -10.578
REMARK INTER:                  -9.752
REMARK INTRA:                  -0.826
REMARK UNBOUND:                -0.582
REMARK  Name = 
REMARK  5 active torsions:
REMARK  status: ('A' for Active; 'I' for Inactive)
REMARK    1  A    between atoms: C_2  and  C_4
REMARK    2  A    between atoms: C_7  and  N_8
REMARK    3  A    between atoms: N_8  and  C_9
REMARK    4  A    between atoms: C_9  and  C_10
REMARK    5  A    between atoms: C_14  and  C_15
REMARK                            x       y       z     vdW  Elec       q    Type
REMARK                         _______ _______ _______ _____ _____    ______ ____
ROOT
ATOM      1  C   UNL     1      44.748   3.990  12.998  0.00  0.00    +0.000 C 
ENDROOT
BRANCH   1   2
ATOM      2  C   UNL     1      44.571   4.078  11.506  0.00  0.00    +0.000 A 
ATOM      3  C   UNL     1      43.627   4.912  10.930  0.00  0.00    +0.000 A 
ATOM      4  N   UNL     1      43.404   4.987   9.601  0.00  0.00    +0.000 NA
ATOM      5  C   UNL     1      44.168   4.194   8.805  0.00  0.00    +0.000 A 
ATOM      6  C   UNL     1      45.159   3.317   9.250  0.00  0.00    +0.000 A 
ATOM      7  C   UNL     1      45.330   3.271  10.641  0.00  0.00    +0.000 A 
BRANCH   6   8
ATOM      8  C   UNL     1      45.995   2.513   8.332  0.00  0.00    +0.000 A 
ATOM      9  C   UNL     1      46.028   1.114   8.399  0.00  0.00    +0.000 A 
ATOM     10  C   UNL     1      46.788   0.409   7.478  0.00  0.00    +0.000 A 
ATOM     11  N   UNL     1      47.511   0.985   6.496  0.00  0.00    +0.000 NA
ATOM     12  C   UNL     1      47.485   2.324   6.429  0.00  0.00    +0.000 A 
ATOM     13  N   UNL     1      48.177   2.907   5.370  0.00  0.00    +0.000 N 
ATOM     14  C   UNL     1      46.761   3.110   7.316  0.00  0.00    +0.000 A 
ATOM     15  H   UNL     1      48.660   2.156   4.884  0.00  0.00    +0.000 HD
ATOM     16  H   UNL     1      48.809   3.632   5.683  0.00  0.00    +0.000 HD
ENDBRANCH   6   8
ENDBRANCH   1   2
BRANCH   1  17
ATOM     17  N   UNL     1      45.092   5.305  13.511  0.00  0.00    +0.000 N 
ATOM     18  H   UNL     1      45.052   5.379  14.523  0.00  0.00    +0.000 HD
BRANCH  17  22
ATOM     19  C   UNL     1      48.603   7.278  12.543  0.00  0.00    +0.000 A 
ATOM     20  C   UNL     1      48.540   6.099  13.270  0.00  0.00    +0.000 A 
ATOM     21  N   UNL     1      47.383   5.442  13.551  0.00  0.00    +0.000 NA
ATOM     22  C   UNL     1      46.228   5.962  13.081  0.00  0.00    +0.000 A 
ATOM     23  C   UNL     1      46.226   7.134  12.314  0.00  0.00    +0.000 A 
ATOM     24  F   UNL     1      45.088   7.680  11.862  0.00  0.00    +0.000 F 
ATOM     25  C   UNL     1      47.416   7.795  12.036  0.00  0.00    +0.000 A 
BRANCH  19  27
ATOM     26  N   UNL     1      50.814   7.279  11.543  0.00  0.00    +0.000 N 
ATOM     27  C   UNL     1      49.909   7.932  12.335  0.00  0.00    +0.000 C 
ATOM     28  O   UNL     1      50.159   9.025  12.820  0.00  0.00    +0.000 OA
ATOM     29  H   UNL     1      51.666   7.780  11.324  0.00  0.00    +0.000 HD
ATOM     30  H   UNL     1      50.560   6.513  10.934  0.00  0.00    +0.000 HD
ENDBRANCH  19  27
ENDBRANCH  17  22
ENDBRANCH   1  17
TORSDOF 5
ENDMDL
