MODEL 1
REMARK VINA RESULT:    -8.676      0.000      0.000
REMARK INTER + INTRA:         -12.863
REMARK INTER:                 -12.226
REMARK INTRA:                  -0.636
REMARK UNBOUND:                -0.636
REMARK  Name = 
REMARK  7 active torsions:
REMARK  status: ('A' for Active; 'I' for Inactive)
REMARK    1  A    between atoms: C_2  and  C_3
REMARK    2  A    between atoms: C_3  and  N_4
REMARK    3  A    between atoms: C_3  and  C_17
REMARK    4  A    between atoms: C_5  and  C_7
REMARK    5  A    between atoms: C_20  and  O_21
REMARK    6  A    between atoms: O_21  and  C_22
REMARK    7  A    between atoms: C_22  and  C_23
REMARK                            x       y       z     vdW  Elec       q    Type
REMARK                         _______ _______ _______ _____ _____    ______ ____
ROOT
ATOM      1  C   UNL     1      46.587   7.933  12.977  0.00  0.00    +0.000 C 
ENDROOT
BRANCH   1   2
ATOM      2  C   UNL     1      45.988   6.758  12.213  0.00  0.00    +0.000 A 
ATOM      3  C   UNL     1      46.286   6.593  10.851  0.00  0.00    +0.000 A 
ATOM      4  C   UNL     1      45.759   5.523  10.124  0.00  0.00    +0.000 A 
ATOM      5  C   UNL     1      44.928   4.592  10.745  0.00  0.00    +0.000 A 
ATOM      6  C   UNL     1      44.575   4.777  12.083  0.00  0.00    +0.000 A 
ATOM      7  C   UNL     1      45.097   5.850  12.811  0.00  0.00    +0.000 A 
BRANCH   5   8
ATOM      8  O   UNL     1      44.516   3.548   9.960  0.00  0.00    +0.000 OA
BRANCH   8   9
ATOM      9  C   UNL     1      44.715   3.739   8.558  0.00  0.00    +0.000 C 
BRANCH   9  10
ATOM     10  C   UNL     1      45.828   2.869   8.029  0.00  0.00    +0.000 A 
ATOM     11  C   UNL     1      45.889   1.497   8.287  0.00  0.00    +0.000 A 
ATOM     12  C   UNL     1      46.891   0.752   7.688  0.00  0.00    +0.000 A 
ATOM     13  N   UNL     1      47.818   1.269   6.854  0.00  0.00    +0.000 NA
ATOM     14  C   UNL     1      47.741   2.593   6.611  0.00  0.00    +0.000 A 
ATOM     15  C   UNL     1      46.779   3.422   7.164  0.00  0.00    +0.000 A 
ENDBRANCH   9  10
ENDBRANCH   8   9
ENDBRANCH   5   8
ENDBRANCH   1   2
BRANCH   1  16
ATOM     16  N   UNL     1      47.144   7.464  14.232  0.00  0.00    +0.000 N 
ATOM     17  C   UNL     1      48.220   6.624  14.291  0.00  0.00    +0.000 C 
ATOM     18  O   UNL     1      48.807   6.242  13.282  0.00  0.00    +0.000 OA
ATOM     19  H   UNL     1      46.638   7.700  15.080  0.00  0.00    +0.000 HD
BRANCH  17  20
ATOM     20  C   UNL     1      48.660   6.228  15.631  0.00  0.00    +0.000 A 
ATOM     21  C   UNL     1      49.586   7.000  16.318  0.00  0.00    +0.000 A 
ATOM     22  S   UNL     1      49.976   6.380  17.860  0.00  0.00    +0.000 S 
ATOM     23  C   UNL     1      48.955   5.038  17.643  0.00  0.00    +0.000 A 
ATOM     24  N   UNL     1      48.845   4.075  18.598  0.00  0.00    +0.000 NA
ATOM     25  C   UNL     1      48.064   3.095  18.281  0.00  0.00    +0.000 A 
ATOM     26  N   UNL     1      47.378   2.993  17.099  0.00  0.00    +0.000 N 
ATOM     27  C   UNL     1      47.409   3.971  16.134  0.00  0.00    +0.000 A 
ATOM     28  O   UNL     1      46.696   3.913  15.139  0.00  0.00    +0.000 OA
ATOM     29  C   UNL     1      48.303   5.076  16.423  0.00  0.00    +0.000 A 
ATOM     30  H   UNL     1      46.761   2.213  16.924  0.00  0.00    +0.000 HD
ENDBRANCH  17  20
ENDBRANCH   1  16
BRANCH   1  32
ATOM     31  N   UNL     1      48.416   9.278  11.610  0.00  0.00    +0.000 NA
ATOM     32  C   UNL     1      47.613   8.675  12.195  0.00  0.00    +0.000 C 
ENDBRANCH   1  32
TORSDOF 7
ENDMDL
MODEL 2
REMARK VINA RESULT:    -8.101      1.802      2.380
REMARK INTER + INTRA:         -12.052
REMARK INTER:                 -11.124
REMARK INTRA:                  -0.928
REMARK UNBOUND:                -0.636
REMARK  Name = 
REMARK  7 active torsions:
REMARK  status: ('A' for Active; 'I' for Inactive)
REMARK    1  A    between atoms: C_2  and  C_3
REMARK    2  A    between atoms: C_3  and  N_4
REMARK    3  A    between atoms: C_3  and  C_17
REMARK    4  A    between atoms: C_5  and  C_7
REMARK    5  A    between atoms: C_20  and  O_21
REMARK    6  A    between atoms: O_21  and  C_22
REMARK    7  A    between atoms: C_22  and  C_23
REMARK                            x       y       z     vdW  Elec       q    Type
REMARK                         _______ _______ _______ _____ _____    ______ ____
ROOT
ATOM      1  C   UNL     1      47.397   6.683  13.436  0.00  0.00    +0.000 C 
ENDROOT
BRANCH   1   2
ATOM      2  C   UNL     1      46.551   5.776  12.549  0.00  0.00    +0.000 A 
ATOM      3  C   UNL     1      46.151   6.225  11.280  0.00  0.00    +0.000 A 
ATOM      4  C   UNL     1      45.381   5.416  10.442  0.00  0.00    +0.000 A 
ATOM      5  C   UNL     1      45.001   4.138  10.851  0.00  0.00    +0.000 A 
ATOM      6  C   UNL     1      45.341   3.702  12.133  0.00  0.00    +0.000 A 
ATOM      7  C   UNL     1      46.106   4.513  12.976  0.00  0.00    +0.000 A 
BRANCH   5   8
ATOM      8  O   UNL     1      44.302   3.404   9.930  0.00  0.00    +0.000 OA
BRANCH   8   9
ATOM      9  C   UNL     1      44.611   3.704   8.568  0.00  0.00    +0.000 C 
BRANCH   9  10
ATOM     10  C   UNL     1      45.758   2.867   8.058  0.00  0.00    +0.000 A 
ATOM     11  C   UNL     1      45.842   1.492   8.297  0.00  0.00    +0.000 A 
ATOM     12  C   UNL     1      46.876   0.778   7.716  0.00  0.00    +0.000 A 
ATOM     13  N   UNL     1      47.815   1.328   6.917  0.00  0.00    +0.000 NA
ATOM     14  C   UNL     1      47.716   2.654   6.691  0.00  0.00    +0.000 A 
ATOM     15  C   UNL     1      46.720   3.453   7.229  0.00  0.00    +0.000 A 
ENDBRANCH   9  10
ENDBRANCH   8   9
ENDBRANCH   5   8
ENDBRANCH   1   2
BRANCH   1  16
ATOM     16  N   UNL     1      47.866   5.937  14.588  0.00  0.00    +0.000 N 
ATOM     17  C   UNL     1      48.468   6.538  15.658  0.00  0.00    +0.000 C 
ATOM     18  O   UNL     1      48.615   7.755  15.726  0.00  0.00    +0.000 OA
ATOM     19  H   UNL     1      47.827   4.925  14.531  0.00  0.00    +0.000 HD
BRANCH  17  20
ATOM     20  C   UNL     1      48.899   5.651  16.741  0.00  0.00    +0.000 A 
ATOM     21  C   UNL     1      47.963   4.913  17.453  0.00  0.00    +0.000 A 
ATOM     22  S   UNL     1      48.652   3.940  18.674  0.00  0.00    +0.000 S 
ATOM     23  C   UNL     1      50.217   4.505  18.322  0.00  0.00    +0.000 A 
ATOM     24  N   UNL     1      51.295   4.084  19.039  0.00  0.00    +0.000 NA
ATOM     25  C   UNL     1      52.415   4.627  18.687  0.00  0.00    +0.000 A 
ATOM     26  N   UNL     1      52.555   5.546  17.679  0.00  0.00    +0.000 N 
ATOM     27  C   UNL     1      51.506   5.951  16.890  0.00  0.00    +0.000 A 
ATOM     28  O   UNL     1      51.677   6.683  15.922  0.00  0.00    +0.000 OA
ATOM     29  C   UNL     1      50.218   5.402  17.269  0.00  0.00    +0.000 A 
ATOM     30  H   UNL     1      53.464   5.912  17.436  0.00  0.00    +0.000 HD
ENDBRANCH  17  20
ENDBRANCH   1  16
BRANCH   1  32
ATOM     31  N   UNL     1      49.424   7.770  12.121  0.00  0.00    +0.000 NA
ATOM     32  C   UNL     1      48.540   7.303  12.714  0.00  0.00    +0.000 C 
ENDBRANCH   1  32
TORSDOF 7
ENDMDL
MODEL 3
REMARK VINA RESULT:    -7.951      2.634      3.941
REMARK INTER + INTRA:         -11.841
REMARK INTER:                 -10.495
REMARK INTRA:                  -1.346
REMARK UNBOUND:                -0.636
REMARK  Name = 
REMARK  7 active torsions:
REMARK  status: ('A' for Active; 'I' for Inactive)
REMARK    1  A    between atoms: C_2  and  C_3
REMARK    2  A    between atoms: C_3  and  N_4
REMARK    3  A    between atoms: C_3  and  C_17
REMARK    4  A    between atoms: C_5  and  C_7
REMARK    5  A    between atoms: C_20  and  O_21
REMARK    6  A    between atoms: O_21  and  C_22
REMARK    7  A    between atoms: C_22  and  C_23
REMARK                            x       y       z     vdW  Elec       q    Type
REMARK                         _______ _______ _______ _____ _____    ______ ____
ROOT
ATOM      1  C   UNL     1      47.699   4.911  15.118  0.00  0.00    +0.000 C 
ENDROOT
BRANCH   1   2
ATOM      2  C   UNL     1      46.858   4.909  13.846  0.00  0.00    +0.000 A 
ATOM      3  C   UNL     1      46.203   3.731  13.451  0.00  0.00    +0.000 A 
ATOM      4  C   UNL     1      45.420   3.697  12.295  0.00  0.00    +0.000 A 
ATOM      5  C   UNL     1      45.270   4.842  11.513  0.00  0.00    +0.000 A 
ATOM      6  C   UNL     1      45.963   6.002  11.862  0.00  0.00    +0.000 A 
ATOM      7  C   UNL     1      46.752   6.037  13.014  0.00  0.00    +0.000 A 
BRANCH   5   8
ATOM      8  O   UNL     1      44.431   4.719  10.437  0.00  0.00    +0.000 OA
BRANCH   8   9
ATOM      9  C   UNL     1      44.245   3.380   9.974  0.00  0.00    +0.000 C 
BRANCH   9  10
ATOM     10  C   UNL     1      45.199   3.038   8.857  0.00  0.00    +0.000 A 
ATOM     11  C   UNL     1      45.725   4.011   8.002  0.00  0.00    +0.000 A 
ATOM     12  C   UNL     1      46.668   3.630   7.062  0.00  0.00    +0.000 A 
ATOM     13  N   UNL     1      47.124   2.366   6.921  0.00  0.00    +0.000 NA
ATOM     14  C   UNL     1      46.611   1.442   7.758  0.00  0.00    +0.000 A 
ATOM     15  C   UNL     1      45.663   1.725   8.729  0.00  0.00    +0.000 A 
ENDBRANCH   9  10
ENDBRANCH   8   9
ENDBRANCH   5   8
ENDBRANCH   1   2
BRANCH   1  16
ATOM     16  N   UNL     1      47.818   6.268  15.619  0.00  0.00    +0.000 N 
ATOM     17  C   UNL     1      49.015   6.808  16.000  0.00  0.00    +0.000 C 
ATOM     18  O   UNL     1      50.071   6.188  15.908  0.00  0.00    +0.000 OA
ATOM     19  H   UNL     1      46.957   6.780  15.777  0.00  0.00    +0.000 HD
BRANCH  17  20
ATOM     20  C   UNL     1      48.974   8.186  16.497  0.00  0.00    +0.000 A 
ATOM     21  C   UNL     1      49.572   9.206  15.771  0.00  0.00    +0.000 A 
ATOM     22  S   UNL     1      49.423  10.740  16.507  0.00  0.00    +0.000 S 
ATOM     23  C   UNL     1      48.593  10.083  17.839  0.00  0.00    +0.000 A 
ATOM     24  N   UNL     1      48.194  10.870  18.876  0.00  0.00    +0.000 NA
ATOM     25  C   UNL     1      47.611  10.230  19.837  0.00  0.00    +0.000 A 
ATOM     26  N   UNL     1      47.384   8.878  19.851  0.00  0.00    +0.000 N 
ATOM     27  C   UNL     1      47.714   8.057  18.800  0.00  0.00    +0.000 A 
ATOM     28  O   UNL     1      47.395   6.873  18.786  0.00  0.00    +0.000 OA
ATOM     29  C   UNL     1      48.407   8.718  17.712  0.00  0.00    +0.000 A 
ATOM     30  H   UNL     1      46.898   8.443  20.622  0.00  0.00    +0.000 HD
ENDBRANCH  17  20
ENDBRANCH   1  16
BRANCH   1  32
ATOM     31  N   UNL     1      46.767   3.320  17.020  0.00  0.00    +0.000 NA
ATOM     32  C   UNL     1      47.164   4.009  16.173  0.00  0.00    +0.000 C 
ENDBRANCH   1  32
TORSDOF 7
ENDMDL
MODEL 4
REMARK VINA RESULT:    -7.630      2.265      4.342
REMARK INTER + INTRA:         -11.389
REMARK INTER:                 -10.178
REMARK INTRA:                  -1.211
REMARK UNBOUND:                -0.636
REMARK  Name = 
REMARK  7 active torsions:
REMARK  status: ('A' for Active; 'I' for Inactive)
REMARK    1  A    between atoms: C_2  and  C_3
REMARK    2  A    between atoms: C_3  and  N_4
REMARK    3  A    between atoms: C_3  and  C_17
REMARK    4  A    between atoms: C_5  and  C_7
REMARK    5  A    between atoms: C_20  and  O_21
REMARK    6  A    between atoms: O_21  and  C_22
REMARK    7  A    between atoms: C_22  and  C_23
REMARK                            x       y       z     vdW  Elec       q    Type
REMARK                         _______ _______ _______ _____ _____    ______ ____
ROOT
ATOM      1  C   UNL     1      47.725   4.713  15.171  0.00  0.00    +0.000 C 
ENDROOT
BRANCH   1   2
ATOM      2  C   UNL     1      46.876   4.723  13.905  0.00  0.00    +0.000 A 
ATOM      3  C   UNL     1      46.747   5.911  13.167  0.00  0.00    +0.000 A 
ATOM      4  C   UNL     1      45.982   5.952  12.000  0.00  0.00    +0.000 A 
ATOM      5  C   UNL     1      45.335   4.805  11.541  0.00  0.00    +0.000 A 
ATOM      6  C   UNL     1      45.406   3.633  12.296  0.00  0.00    +0.000 A 
ATOM      7  C   UNL     1      46.166   3.591  13.468  0.00  0.00    +0.000 A 
BRANCH   5   8
ATOM      8  O   UNL     1      44.664   4.937  10.354  0.00  0.00    +0.000 OA
BRANCH   8   9
ATOM      9  C   UNL     1      44.220   3.706   9.779  0.00  0.00    +0.000 C 
BRANCH   9  10
ATOM     10  C   UNL     1      45.209   3.171   8.774  0.00  0.00    +0.000 A 
ATOM     11  C   UNL     1      45.914   4.008   7.903  0.00  0.00    +0.000 A 
ATOM     12  C   UNL     1      46.873   3.449   7.076  0.00  0.00    +0.000 A 
ATOM     13  N   UNL     1      47.182   2.134   7.061  0.00  0.00    +0.000 NA
ATOM     14  C   UNL     1      46.498   1.343   7.912  0.00  0.00    +0.000 A 
ATOM     15  C   UNL     1      45.520   1.807   8.776  0.00  0.00    +0.000 A 
ENDBRANCH   9  10
ENDBRANCH   8   9
ENDBRANCH   5   8
ENDBRANCH   1   2
BRANCH   1  16
ATOM     16  N   UNL     1      47.981   6.076  15.596  0.00  0.00    +0.000 N 
ATOM     17  C   UNL     1      49.146   6.450  16.205  0.00  0.00    +0.000 C 
ATOM     18  O   UNL     1      50.066   5.660  16.397  0.00  0.00    +0.000 OA
ATOM     19  H   UNL     1      47.214   6.736  15.519  0.00  0.00    +0.000 HD
BRANCH  17  20
ATOM     20  C   UNL     1      49.253   7.860  16.587  0.00  0.00    +0.000 A 
ATOM     21  C   UNL     1      48.819   8.279  17.837  0.00  0.00    +0.000 A 
ATOM     22  S   UNL     1      49.022   9.954  18.101  0.00  0.00    +0.000 S 
ATOM     23  C   UNL     1      49.655  10.181  16.539  0.00  0.00    +0.000 A 
ATOM     24  N   UNL     1      50.012  11.418  16.098  0.00  0.00    +0.000 NA
ATOM     25  C   UNL     1      50.440  11.447  14.878  0.00  0.00    +0.000 A 
ATOM     26  N   UNL     1      50.549  10.351  14.062  0.00  0.00    +0.000 N 
ATOM     27  C   UNL     1      50.260   9.076  14.485  0.00  0.00    +0.000 A 
ATOM     28  O   UNL     1      50.477   8.100  13.777  0.00  0.00    +0.000 OA
ATOM     29  C   UNL     1      49.738   8.992  15.835  0.00  0.00    +0.000 A 
ATOM     30  H   UNL     1      50.917  10.437  13.126  0.00  0.00    +0.000 HD
ENDBRANCH  17  20
ENDBRANCH   1  16
BRANCH   1  32
ATOM     31  N   UNL     1      46.665   3.318  17.159  0.00  0.00    +0.000 NA
ATOM     32  C   UNL     1      47.114   3.926  16.276  0.00  0.00    +0.000 C 
ENDBRANCH   1  32
TORSDOF 7
ENDMDL
MODEL 5
REMARK VINA RESULT:    -7.511      2.041      2.479
REMARK INTER + INTRA:         -11.220
REMARK INTER:                 -10.307
REMARK INTRA:                  -0.913
REMARK UNBOUND:                -0.636
REMARK  Name = 
REMARK  7 active torsions:
REMARK  status: ('A' for Active; 'I' for Inactive)
REMARK    1  A    between atoms: C_2  and  C_3
REMARK    2  A    between atoms: C_3  and  N_4
REMARK    3  A    between atoms: C_3  and  C_17
REMARK    4  A    between atoms: C_5  and  C_7
REMARK    5  A    between atoms: C_20  and  O_21
REMARK    6  A    between atoms: O_21  and  C_22
REMARK    7  A    between atoms: C_22  and  C_23
REMARK                            x       y       z     vdW  Elec       q    Type
REMARK                         _______ _______ _______ _____ _____    ______ ____
ROOT
ATOM      1  C   UNL     1      46.020   7.948  13.066  0.00  0.00    +0.000 C 
ENDROOT
BRANCH   1   2
ATOM      2  C   UNL     1      45.554   6.743  12.257  0.00  0.00    +0.000 A 
ATOM      3  C   UNL     1      46.034   6.558  10.950  0.00  0.00    +0.000 A 
ATOM      4  C   UNL     1      45.632   5.461  10.185  0.00  0.00    +0.000 A 
ATOM      5  C   UNL     1      44.747   4.522  10.712  0.00  0.00    +0.000 A 
ATOM      6  C   UNL     1      44.215   4.725  11.987  0.00  0.00    +0.000 A 
ATOM      7  C   UNL     1      44.611   5.825  12.752  0.00  0.00    +0.000 A 
BRANCH   5   8
ATOM      8  O   UNL     1      44.466   3.453   9.904  0.00  0.00    +0.000 OA
BRANCH   8   9
ATOM      9  C   UNL     1      44.687   3.682   8.511  0.00  0.00    +0.000 C 
BRANCH   9  10
ATOM     10  C   UNL     1      45.824   2.842   7.981  0.00  0.00    +0.000 A 
ATOM     11  C   UNL     1      45.936   1.478   8.263  0.00  0.00    +0.000 A 
ATOM     12  C   UNL     1      46.956   0.758   7.662  0.00  0.00    +0.000 A 
ATOM     13  N   UNL     1      47.853   1.292   6.806  0.00  0.00    +0.000 NA
ATOM     14  C   UNL     1      47.725   2.608   6.541  0.00  0.00    +0.000 A 
ATOM     15  C   UNL     1      46.741   3.412   7.093  0.00  0.00    +0.000 A 
ENDBRANCH   9  10
ENDBRANCH   8   9
ENDBRANCH   5   8
ENDBRANCH   1   2
BRANCH   1  16
ATOM     16  N   UNL     1      47.428   7.803  13.388  0.00  0.00    +0.000 N 
ATOM     17  C   UNL     1      48.012   8.454  14.438  0.00  0.00    +0.000 C 
ATOM     18  O   UNL     1      47.372   9.175  15.198  0.00  0.00    +0.000 OA
ATOM     19  H   UNL     1      47.999   7.274  12.738  0.00  0.00    +0.000 HD
BRANCH  17  20
ATOM     20  C   UNL     1      49.445   8.216  14.630  0.00  0.00    +0.000 A 
ATOM     21  C   UNL     1      50.374   8.895  13.855  0.00  0.00    +0.000 A 
ATOM     22  S   UNL     1      51.991   8.487  14.220  0.00  0.00    +0.000 S 
ATOM     23  C   UNL     1      51.501   7.359  15.394  0.00  0.00    +0.000 A 
ATOM     24  N   UNL     1      52.413   6.617  16.080  0.00  0.00    +0.000 NA
ATOM     25  C   UNL     1      51.897   5.772  16.912  0.00  0.00    +0.000 A 
ATOM     26  N   UNL     1      50.553   5.607  17.124  0.00  0.00    +0.000 N 
ATOM     27  C   UNL     1      49.601   6.376  16.500  0.00  0.00    +0.000 A 
ATOM     28  O   UNL     1      48.413   6.290  16.794  0.00  0.00    +0.000 OA
ATOM     29  C   UNL     1      50.125   7.314  15.527  0.00  0.00    +0.000 A 
ATOM     30  H   UNL     1      50.215   4.947  17.809  0.00  0.00    +0.000 HD
ENDBRANCH  17  20
ENDBRANCH   1  16
BRANCH   1  32
ATOM     31  N   UNL     1      45.583  10.240  11.811  0.00  0.00    +0.000 NA
ATOM     32  C   UNL     1      45.772   9.243  12.379  0.00  0.00    +0.000 C 
ENDBRANCH   1  32
TORSDOF 7
ENDMDL
MODEL 6
REMARK VINA RESULT:    -7.447      1.435      1.808
REMARK INTER + INTRA:         -11.130
REMARK INTER:                  -9.889
REMARK INTRA:                  -1.241
REMARK UNBOUND:                -0.636
REMARK  Name = 
REMARK  7 active torsions:
REMARK  status: ('A' for Active; 'I' for Inactive)
REMARK    1  A    between atoms: C_2  and  C_3
REMARK    2  A    between atoms: C_3  and  N_4
REMARK    3  A    between atoms: C_3  and  C_17
REMARK    4  A    between atoms: C_5  and  C_7
REMARK    5  A    between atoms: C_20  and  O_21
REMARK    6  A    between atoms: O_21  and  C_22
REMARK    7  A    between atoms: C_22  and  C_23
REMARK                            x       y       z     vdW  Elec       q    Type
REMARK                         _______ _______ _______ _____ _____    ______ ____
ROOT
ATOM      1  C   UNL     1      47.511   7.896  13.575  0.00  0.00    +0.000 C 
ENDROOT
BRANCH   1   2
ATOM      2  C   UNL     1      46.528   7.018  12.808  0.00  0.00    +0.000 A 
ATOM      3  C   UNL     1      45.495   7.617  12.068  0.00  0.00    +0.000 A 
ATOM      4  C   UNL     1      44.582   6.841  11.351  0.00  0.00    +0.000 A 
ATOM      5  C   UNL     1      44.686   5.451  11.352  0.00  0.00    +0.000 A 
ATOM      6  C   UNL     1      45.671   4.840  12.130  0.00  0.00    +0.000 A 
ATOM      7  C   UNL     1      46.581   5.614  12.854  0.00  0.00    +0.000 A 
BRANCH   5   8
ATOM      8  O   UNL     1      43.781   4.788  10.566  0.00  0.00    +0.000 OA
BRANCH   8   9
ATOM      9  C   UNL     1      44.030   3.388  10.418  0.00  0.00    +0.000 C 
BRANCH   9  10
ATOM     10  C   UNL     1      44.910   3.101   9.227  0.00  0.00    +0.000 A 
ATOM     11  C   UNL     1      45.339   4.107   8.357  0.00  0.00    +0.000 A 
ATOM     12  C   UNL     1      46.221   3.777   7.342  0.00  0.00    +0.000 A 
ATOM     13  N   UNL     1      46.707   2.533   7.141  0.00  0.00    +0.000 NA
ATOM     14  C   UNL     1      46.288   1.576   7.993  0.00  0.00    +0.000 A 
ATOM     15  C   UNL     1      45.406   1.807   9.037  0.00  0.00    +0.000 A 
ENDBRANCH   9  10
ENDBRANCH   8   9
ENDBRANCH   5   8
ENDBRANCH   1   2
BRANCH   1  16
ATOM     16  N   UNL     1      48.369   7.062  14.396  0.00  0.00    +0.000 N 
ATOM     17  C   UNL     1      48.792   7.443  15.639  0.00  0.00    +0.000 C 
ATOM     18  O   UNL     1      48.442   8.501  16.153  0.00  0.00    +0.000 OA
ATOM     19  H   UNL     1      48.736   6.217  13.971  0.00  0.00    +0.000 HD
BRANCH  17  20
ATOM     20  C   UNL     1      49.665   6.499  16.342  0.00  0.00    +0.000 A 
ATOM     21  C   UNL     1      50.961   6.864  16.677  0.00  0.00    +0.000 A 
ATOM     22  S   UNL     1      51.825   5.636  17.489  0.00  0.00    +0.000 S 
ATOM     23  C   UNL     1      50.511   4.561  17.380  0.00  0.00    +0.000 A 
ATOM     24  N   UNL     1      50.598   3.293  17.865  0.00  0.00    +0.000 NA
ATOM     25  C   UNL     1      49.538   2.575  17.678  0.00  0.00    +0.000 A 
ATOM     26  N   UNL     1      48.398   3.014  17.056  0.00  0.00    +0.000 N 
ATOM     27  C   UNL     1      48.244   4.304  16.609  0.00  0.00    +0.000 A 
ATOM     28  O   UNL     1      47.174   4.705  16.163  0.00  0.00    +0.000 OA
ATOM     29  C   UNL     1      49.419   5.140  16.758  0.00  0.00    +0.000 A 
ATOM     30  H   UNL     1      47.593   2.411  16.966  0.00  0.00    +0.000 HD
ENDBRANCH  17  20
ENDBRANCH   1  16
BRANCH   1  32
ATOM     31  N   UNL     1      48.989   9.442  12.011  0.00  0.00    +0.000 NA
ATOM     32  C   UNL     1      48.325   8.771  12.689  0.00  0.00    +0.000 C 
ENDBRANCH   1  32
TORSDOF 7
ENDMDL
MODEL 7
REMARK VINA RESULT:    -7.387      2.316      3.352
REMARK INTER + INTRA:         -11.046
REMARK INTER:                  -9.873
REMARK INTRA:                  -1.173
REMARK UNBOUND:                -0.636
REMARK  Name = 
REMARK  7 active torsions:
REMARK  status: ('A' for Active; 'I' for Inactive)
REMARK    1  A    between atoms: C_2  and  C_3
REMARK    2  A    between atoms: C_3  and  N_4
REMARK    3  A    between atoms: C_3  and  C_17
REMARK    4  A    between atoms: C_5  and  C_7
REMARK    5  A    between atoms: C_20  and  O_21
REMARK    6  A    between atoms: O_21  and  C_22
REMARK    7  A    between atoms: C_22  and  C_23
REMARK                            x       y       z     vdW  Elec       q    Type
REMARK                         _______ _______ _______ _____ _____    ______ ____
ROOT
ATOM      1  C   UNL     1      46.506   7.632  13.283  0.00  0.00    +0.000 C 
ENDROOT
BRANCH   1   2
ATOM      2  C   UNL     1      45.995   6.424  12.507  0.00  0.00    +0.000 A 
ATOM      3  C   UNL     1      45.593   6.578  11.171  0.00  0.00    +0.000 A 
ATOM      4  C   UNL     1      45.126   5.490  10.431  0.00  0.00    +0.000 A 
ATOM      5  C   UNL     1      45.057   4.223  11.009  0.00  0.00    +0.000 A 
ATOM      6  C   UNL     1      45.397   4.067  12.354  0.00  0.00    +0.000 A 
ATOM      7  C   UNL     1      45.858   5.155  13.098  0.00  0.00    +0.000 A 
BRANCH   5   8
ATOM      8  O   UNL     1      44.646   3.214  10.179  0.00  0.00    +0.000 OA
BRANCH   8   9
ATOM      9  C   UNL     1      44.754   3.505   8.784  0.00  0.00    +0.000 C 
BRANCH   9  10
ATOM     10  C   UNL     1      45.875   2.730   8.138  0.00  0.00    +0.000 A 
ATOM     11  C   UNL     1      46.014   1.348   8.296  0.00  0.00    +0.000 A 
ATOM     12  C   UNL     1      47.014   0.696   7.594  0.00  0.00    +0.000 A 
ATOM     13  N   UNL     1      47.868   1.313   6.750  0.00  0.00    +0.000 NA
ATOM     14  C   UNL     1      47.715   2.645   6.604  0.00  0.00    +0.000 A 
ATOM     15  C   UNL     1      46.748   3.386   7.263  0.00  0.00    +0.000 A 
ENDBRANCH   9  10
ENDBRANCH   8   9
ENDBRANCH   5   8
ENDBRANCH   1   2
BRANCH   1  16
ATOM     16  N   UNL     1      47.800   7.324  13.866  0.00  0.00    +0.000 N 
ATOM     17  C   UNL     1      48.299   7.999  14.945  0.00  0.00    +0.000 C 
ATOM     18  O   UNL     1      47.666   8.885  15.512  0.00  0.00    +0.000 OA
ATOM     19  H   UNL     1      48.378   6.650  13.377  0.00  0.00    +0.000 HD
BRANCH  17  20
ATOM     20  C   UNL     1      49.623   7.582  15.412  0.00  0.00    +0.000 A 
ATOM     21  C   UNL     1      49.757   6.898  16.612  0.00  0.00    +0.000 A 
ATOM     22  S   UNL     1      51.373   6.498  16.990  0.00  0.00    +0.000 S 
ATOM     23  C   UNL     1      51.951   7.264  15.586  0.00  0.00    +0.000 A 
ATOM     24  N   UNL     1      53.283   7.316  15.311  0.00  0.00    +0.000 NA
ATOM     25  C   UNL     1      53.580   7.963  14.232  0.00  0.00    +0.000 A 
ATOM     26  N   UNL     1      52.667   8.557  13.399  0.00  0.00    +0.000 N 
ATOM     27  C   UNL     1      51.310   8.475  13.604  0.00  0.00    +0.000 A 
ATOM     28  O   UNL     1      50.510   8.911  12.784  0.00  0.00    +0.000 OA
ATOM     29  C   UNL     1      50.924   7.793  14.824  0.00  0.00    +0.000 A 
ATOM     30  H   UNL     1      52.963   9.025  12.555  0.00  0.00    +0.000 HD
ENDBRANCH  17  20
ENDBRANCH   1  16
BRANCH   1  32
ATOM     31  N   UNL     1      46.638   9.848  11.837  0.00  0.00    +0.000 NA
ATOM     32  C   UNL     1      46.586   8.866  12.456  0.00  0.00    +0.000 C 
ENDBRANCH   1  32
TORSDOF 7
ENDMDL
MODEL 8
REMARK VINA RESULT:    -7.362      1.926      2.496
REMARK INTER + INTRA:         -11.011
REMARK INTER:                  -9.797
REMARK INTRA:                  -1.214
REMARK UNBOUND:                -0.636
REMARK  Name = 
REMARK  7 active torsions:
REMARK  status: ('A' for Active; 'I' for Inactive)
REMARK    1  A    between atoms: C_2  and  C_3
REMARK    2  A    between atoms: C_3  and  N_4
REMARK    3  A    between atoms: C_3  and  C_17
REMARK    4  A    between atoms: C_5  and  C_7
REMARK    5  A    between atoms: C_20  and  O_21
REMARK    6  A    between atoms: O_21  and  C_22
REMARK    7  A    between atoms: C_22  and  C_23
REMARK                            x       y       z     vdW  Elec       q    Type
REMARK                         _______ _______ _______ _____ _____    ______ ____
ROOT
ATOM      1  C   UNL     1      47.866   7.920  13.547  0.00  0.00    +0.000 C 
ENDROOT
BRANCH   1   2
ATOM      2  C   UNL     1      46.916   6.930  12.883  0.00  0.00    +0.000 A 
ATOM      3  C   UNL     1      46.843   5.612  13.362  0.00  0.00    +0.000 A 
ATOM      4  C   UNL     1      45.979   4.682  12.780  0.00  0.00    +0.000 A 
ATOM      5  C   UNL     1      45.164   5.052  11.711  0.00  0.00    +0.000 A 
ATOM      6  C   UNL     1      45.270   6.341  11.186  0.00  0.00    +0.000 A 
ATOM      7  C   UNL     1      46.138   7.271  11.762  0.00  0.00    +0.000 A 
BRANCH   5   8
ATOM      8  O   UNL     1      44.308   4.085  11.254  0.00  0.00    +0.000 OA
BRANCH   8   9
ATOM      9  C   UNL     1      43.929   4.220   9.883  0.00  0.00    +0.000 C 
BRANCH   9  10
ATOM     10  C   UNL     1      44.875   3.483   8.968  0.00  0.00    +0.000 A 
ATOM     11  C   UNL     1      45.661   4.144   8.020  0.00  0.00    +0.000 A 
ATOM     12  C   UNL     1      46.573   3.407   7.283  0.00  0.00    +0.000 A 
ATOM     13  N   UNL     1      46.759   2.077   7.427  0.00  0.00    +0.000 NA
ATOM     14  C   UNL     1      45.997   1.457   8.350  0.00  0.00    +0.000 A 
ATOM     15  C   UNL     1      45.057   2.106   9.134  0.00  0.00    +0.000 A 
ENDBRANCH   9  10
ENDBRANCH   8   9
ENDBRANCH   5   8
ENDBRANCH   1   2
BRANCH   1  16
ATOM     16  N   UNL     1      47.904   7.674  14.976  0.00  0.00    +0.000 N 
ATOM     17  C   UNL     1      48.348   8.607  15.871  0.00  0.00    +0.000 C 
ATOM     18  O   UNL     1      48.709   9.727  15.522  0.00  0.00    +0.000 OA
ATOM     19  H   UNL     1      47.683   6.735  15.290  0.00  0.00    +0.000 HD
BRANCH  17  20
ATOM     20  C   UNL     1      48.337   8.208  17.281  0.00  0.00    +0.000 A 
ATOM     21  C   UNL     1      47.905   9.097  18.255  0.00  0.00    +0.000 A 
ATOM     22  S   UNL     1      47.965   8.455  19.835  0.00  0.00    +0.000 S 
ATOM     23  C   UNL     1      48.612   6.985  19.275  0.00  0.00    +0.000 A 
ATOM     24  N   UNL     1      48.934   5.984  20.139  0.00  0.00    +0.000 NA
ATOM     25  C   UNL     1      49.452   4.941  19.578  0.00  0.00    +0.000 A 
ATOM     26  N   UNL     1      49.671   4.805  18.232  0.00  0.00    +0.000 N 
ATOM     27  C   UNL     1      49.304   5.763  17.318  0.00  0.00    +0.000 A 
ATOM     28  O   UNL     1      49.401   5.570  16.111  0.00  0.00    +0.000 OA
ATOM     29  C   UNL     1      48.753   6.972  17.899  0.00  0.00    +0.000 A 
ATOM     30  H   UNL     1      50.055   3.952  17.853  0.00  0.00    +0.000 HD
ENDBRANCH  17  20
ENDBRANCH   1  16
BRANCH   1  32
ATOM     31  N   UNL     1      50.316   7.826  12.541  0.00  0.00    +0.000 NA
ATOM     32  C   UNL     1      49.239   7.885  12.974  0.00  0.00    +0.000 C 
ENDBRANCH   1  32
TORSDOF 7
ENDMDL
MODEL 9
REMARK VINA RESULT:    -6.776      3.299      5.585
REMARK INTER + INTRA:         -10.186
REMARK INTER:                  -9.271
REMARK INTRA:                  -0.914
REMARK UNBOUND:                -0.636
REMARK  Name = 
REMARK  7 active torsions:
REMARK  status: ('A' for Active; 'I' for Inactive)
REMARK    1  A    between atoms: C_2  and  C_3
REMARK    2  A    between atoms: C_3  and  N_4
REMARK    3  A    between atoms: C_3  and  C_17
REMARK    4  A    between atoms: C_5  and  C_7
REMARK    5  A    between atoms: C_20  and  O_21
REMARK    6  A    between atoms: O_21  and  C_22
REMARK    7  A    between atoms: C_22  and  C_23
REMARK                            x       y       z     vdW  Elec       q    Type
REMARK                         _______ _______ _______ _____ _____    ______ ____
ROOT
ATOM      1  C   UNL     1      47.864   4.102  17.389  0.00  0.00    +0.000 C 
ENDROOT
BRANCH   1   2
ATOM      2  C   UNL     1      47.703   4.643  15.973  0.00  0.00    +0.000 A 
ATOM      3  C   UNL     1      48.224   5.907  15.651  0.00  0.00    +0.000 A 
ATOM      4  C   UNL     1      48.098   6.429  14.362  0.00  0.00    +0.000 A 
ATOM      5  C   UNL     1      47.455   5.696  13.366  0.00  0.00    +0.000 A 
ATOM      6  C   UNL     1      46.880   4.465  13.687  0.00  0.00    +0.000 A 
ATOM      7  C   UNL     1      46.999   3.944  14.977  0.00  0.00    +0.000 A 
BRANCH   5   8
ATOM      8  O   UNL     1      47.441   6.270  12.122  0.00  0.00    +0.000 OA
BRANCH   8   9
ATOM      9  C   UNL     1      46.241   6.978  11.803  0.00  0.00    +0.000 C 
BRANCH   9  10
ATOM     10  C   UNL     1      45.126   6.038  11.415  0.00  0.00    +0.000 A 
ATOM     11  C   UNL     1      45.255   5.122  10.367  0.00  0.00    +0.000 A 
ATOM     12  C   UNL     1      44.222   4.230  10.134  0.00  0.00    +0.000 A 
ATOM     13  N   UNL     1      43.088   4.182  10.867  0.00  0.00    +0.000 NA
ATOM     14  C   UNL     1      42.984   5.068  11.877  0.00  0.00    +0.000 A 
ATOM     15  C   UNL     1      43.961   6.000  12.188  0.00  0.00    +0.000 A 
ENDBRANCH   9  10
ENDBRANCH   8   9
ENDBRANCH   5   8
ENDBRANCH   1   2
BRANCH   1  16
ATOM     16  N   UNL     1      49.253   3.746  17.618  0.00  0.00    +0.000 N 
ATOM     17  C   UNL     1      49.834   2.650  17.045  0.00  0.00    +0.000 C 
ATOM     18  O   UNL     1      49.226   1.917  16.271  0.00  0.00    +0.000 OA
ATOM     19  H   UNL     1      49.761   4.287  18.309  0.00  0.00    +0.000 HD
BRANCH  17  20
ATOM     20  C   UNL     1      51.241   2.414  17.381  0.00  0.00    +0.000 A 
ATOM     21  C   UNL     1      51.700   1.123  17.598  0.00  0.00    +0.000 A 
ATOM     22  S   UNL     1      53.362   1.048  17.979  0.00  0.00    +0.000 S 
ATOM     23  C   UNL     1      53.513   2.740  17.909  0.00  0.00    +0.000 A 
ATOM     24  N   UNL     1      54.701   3.352  18.172  0.00  0.00    +0.000 NA
ATOM     25  C   UNL     1      54.659   4.643  18.121  0.00  0.00    +0.000 A 
ATOM     26  N   UNL     1      53.540   5.378  17.825  0.00  0.00    +0.000 N 
ATOM     27  C   UNL     1      52.338   4.801  17.492  0.00  0.00    +0.000 A 
ATOM     28  O   UNL     1      51.385   5.475  17.116  0.00  0.00    +0.000 OA
ATOM     29  C   UNL     1      52.320   3.353  17.573  0.00  0.00    +0.000 A 
ATOM     30  H   UNL     1      53.580   6.385  17.775  0.00  0.00    +0.000 HD
ENDBRANCH  17  20
ENDBRANCH   1  16
BRANCH   1  32
ATOM     31  N   UNL     1      47.008   5.760  19.269  0.00  0.00    +0.000 NA
ATOM     32  C   UNL     1      47.388   5.048  18.433  0.00  0.00    +0.000 C 
ENDBRANCH   1  32
TORSDOF 7
ENDMDL
