MODEL 1
REMARK VINA RESULT:    -7.340      0.000      0.000
REMARK INTER + INTRA:          -9.646
REMARK INTER:                  -9.271
REMARK INTRA:                  -0.375
REMARK UNBOUND:                -0.375
REMARK  Name = 
REMARK  5 active torsions:
REMARK  status: ('A' for Active; 'I' for Inactive)
REMARK    1  A    between atoms: N_1  and  C_2
REMARK    2  A    between atoms: C_2  and  C_3
REMARK    3  A    between atoms: C_6  and  C_7
REMARK    4  A    between atoms: C_7  and  O_8
REMARK    5  A    between atoms: O_8  and  C_9
REMARK                            x       y       z     vdW  Elec       q    Type
REMARK                         _______ _______ _______ _____ _____    ______ ____
ROOT
ATOM      1  C   UNL     1      46.364   4.587  13.338  0.00  0.00    +0.000 A 
ATOM      2  C   UNL     1      46.365   5.704  12.501  0.00  0.00    +0.000 A 
ATOM      3  C   UNL     1      45.686   5.662  11.285  0.00  0.00    +0.000 A 
ATOM      4  C   UNL     1      45.004   4.499  10.934  0.00  0.00    +0.000 A 
ATOM      5  N   UNL     1      44.991   3.399  11.729  0.00  0.00    +0.000 NA
ATOM      6  C   UNL     1      45.672   3.466  12.897  0.00  0.00    +0.000 A 
ENDROOT
BRANCH   1   7
ATOM      7  C   UNL     1      47.104   4.575  14.644  0.00  0.00    +0.000 C 
BRANCH   7   8
ATOM      8  N   UNL     1      47.620   3.249  14.968  0.00  0.00    +0.000 NA
ATOM      9  H   UNL     1      48.622   3.232  14.796  0.00  0.00    +0.000 HD
ATOM     10  H   UNL     1      47.210   2.569  14.330  0.00  0.00    +0.000 HD
ENDBRANCH   7   8
ENDBRANCH   1   7
BRANCH   4  11
ATOM     11  C   UNL     1      44.230   4.431   9.639  0.00  0.00    +0.000 C 
BRANCH  11  12
ATOM     12  O   UNL     1      44.222   3.089   9.144  0.00  0.00    +0.000 OA
BRANCH  12  13
ATOM     13  C   UNL     1      45.294   2.715   8.380  0.00  0.00    +0.000 A 
ATOM     14  C   UNL     1      46.078   3.569   7.595  0.00  0.00    +0.000 A 
ATOM     15  C   UNL     1      47.168   3.069   6.876  0.00  0.00    +0.000 A 
ATOM     16  C   UNL     1      47.478   1.714   6.933  0.00  0.00    +0.000 A 
ATOM     17  C   UNL     1      46.690   0.867   7.703  0.00  0.00    +0.000 A 
ATOM     18  F   UNL     1      46.986  -0.438   7.757  0.00  0.00    +0.000 F 
ATOM     19  C   UNL     1      45.604   1.355   8.423  0.00  0.00    +0.000 A 
ENDBRANCH  12  13
ENDBRANCH  11  12
ENDBRANCH   4  11
TORSDOF 5
ENDMDL
MODEL 2
REMARK VINA RESULT:    -7.328      2.845      5.786
REMARK INTER + INTRA:          -9.631
REMARK INTER:                  -9.165
REMARK INTRA:                  -0.466
REMARK UNBOUND:                -0.375
REMARK  Name = 
REMARK  5 active torsions:
REMARK  status: ('A' for Active; 'I' for Inactive)
REMARK    1  A    between atoms: N_1  and  C_2
REMARK    2  A    between atoms: C_2  and  C_3
REMARK    3  A    between atoms: C_6  and  C_7
REMARK    4  A    between atoms: C_7  and  O_8
REMARK    5  A    between atoms: O_8  and  C_9
REMARK                            x       y       z     vdW  Elec       q    Type
REMARK                         _______ _______ _______ _____ _____    ______ ____
ROOT
ATOM      1  C   UNL     1      46.604   2.309   7.473  0.00  0.00    +0.000 A 
ATOM      2  C   UNL     1      45.826   1.614   8.400  0.00  0.00    +0.000 A 
ATOM      3  C   UNL     1      44.939   2.307   9.222  0.00  0.00    +0.000 A 
ATOM      4  C   UNL     1      44.838   3.690   9.089  0.00  0.00    +0.000 A 
ATOM      5  N   UNL     1      45.585   4.388   8.197  0.00  0.00    +0.000 NA
ATOM      6  C   UNL     1      46.449   3.688   7.424  0.00  0.00    +0.000 A 
ENDROOT
BRANCH   1   7
ATOM      7  C   UNL     1      47.594   1.609   6.587  0.00  0.00    +0.000 C 
BRANCH   7   8
ATOM      8  N   UNL     1      48.666   2.499   6.157  0.00  0.00    +0.000 NA
ATOM      9  H   UNL     1      48.259   3.327   5.729  0.00  0.00    +0.000 HD
ATOM     10  H   UNL     1      49.208   2.039   5.427  0.00  0.00    +0.000 HD
ENDBRANCH   7   8
ENDBRANCH   1   7
BRANCH   4  11
ATOM     11  C   UNL     1      43.862   4.469   9.939  0.00  0.00    +0.000 C 
BRANCH  11  12
ATOM     12  O   UNL     1      43.976   4.066  11.306  0.00  0.00    +0.000 OA
BRANCH  12  13
ATOM     13  C   UNL     1      45.042   4.571  12.003  0.00  0.00    +0.000 A 
ATOM     14  C   UNL     1      45.516   5.885  11.935  0.00  0.00    +0.000 A 
ATOM     15  C   UNL     1      46.601   6.290  12.718  0.00  0.00    +0.000 A 
ATOM     16  C   UNL     1      47.221   5.382  13.571  0.00  0.00    +0.000 A 
ATOM     17  C   UNL     1      46.755   4.073  13.628  0.00  0.00    +0.000 A 
ATOM     18  F   UNL     1      47.352   3.198  14.447  0.00  0.00    +0.000 F 
ATOM     19  C   UNL     1      45.676   3.662  12.852  0.00  0.00    +0.000 A 
ENDBRANCH  12  13
ENDBRANCH  11  12
ENDBRANCH   4  11
TORSDOF 5
ENDMDL
MODEL 3
REMARK VINA RESULT:    -7.189      3.216      6.082
REMARK INTER + INTRA:          -9.455
REMARK INTER:                  -9.019
REMARK INTRA:                  -0.436
REMARK UNBOUND:                -0.375
REMARK  Name = 
REMARK  5 active torsions:
REMARK  status: ('A' for Active; 'I' for Inactive)
REMARK    1  A    between atoms: N_1  and  C_2
REMARK    2  A    between atoms: C_2  and  C_3
REMARK    3  A    between atoms: C_6  and  C_7
REMARK    4  A    between atoms: C_7  and  O_8
REMARK    5  A    between atoms: O_8  and  C_9
REMARK                            x       y       z     vdW  Elec       q    Type
REMARK                         _______ _______ _______ _____ _____    ______ ____
ROOT
ATOM      1  C   UNL     1      46.630   2.337   7.524  0.00  0.00    +0.000 A 
ATOM      2  C   UNL     1      45.847   1.640   8.445  0.00  0.00    +0.000 A 
ATOM      3  C   UNL     1      44.939   2.328   9.248  0.00  0.00    +0.000 A 
ATOM      4  C   UNL     1      44.825   3.709   9.103  0.00  0.00    +0.000 A 
ATOM      5  N   UNL     1      45.576   4.409   8.217  0.00  0.00    +0.000 NA
ATOM      6  C   UNL     1      46.459   3.714   7.463  0.00  0.00    +0.000 A 
ENDROOT
BRANCH   1   7
ATOM      7  C   UNL     1      47.641   1.643   6.658  0.00  0.00    +0.000 C 
BRANCH   7   8
ATOM      8  N   UNL     1      48.706   2.544   6.232  0.00  0.00    +0.000 NA
ATOM      9  H   UNL     1      48.411   3.033   5.391  0.00  0.00    +0.000 HD
ATOM     10  H   UNL     1      49.523   1.993   5.971  0.00  0.00    +0.000 HD
ENDBRANCH   7   8
ENDBRANCH   1   7
BRANCH   4  11
ATOM     11  C   UNL     1      43.827   4.482   9.934  0.00  0.00    +0.000 C 
BRANCH  11  12
ATOM     12  O   UNL     1      43.805   3.973  11.270  0.00  0.00    +0.000 OA
BRANCH  12  13
ATOM     13  C   UNL     1      44.825   4.371  12.091  0.00  0.00    +0.000 A 
ATOM     14  C   UNL     1      45.729   3.525  12.743  0.00  0.00    +0.000 A 
ATOM     15  C   UNL     1      46.749   4.055  13.539  0.00  0.00    +0.000 A 
ATOM     16  C   UNL     1      46.869   5.433  13.691  0.00  0.00    +0.000 A 
ATOM     17  C   UNL     1      45.962   6.271  13.052  0.00  0.00    +0.000 A 
ATOM     18  F   UNL     1      46.075   7.596  13.199  0.00  0.00    +0.000 F 
ATOM     19  C   UNL     1      44.944   5.752  12.258  0.00  0.00    +0.000 A 
ENDBRANCH  12  13
ENDBRANCH  11  12
ENDBRANCH   4  11
TORSDOF 5
ENDMDL
MODEL 4
REMARK VINA RESULT:    -7.136      1.188      1.625
REMARK INTER + INTRA:          -9.389
REMARK INTER:                  -9.163
REMARK INTRA:                  -0.225
REMARK UNBOUND:                -0.375
REMARK  Name = 
REMARK  5 active torsions:
REMARK  status: ('A' for Active; 'I' for Inactive)
REMARK    1  A    between atoms: N_1  and  C_2
REMARK    2  A    between atoms: C_2  and  C_3
REMARK    3  A    between atoms: C_6  and  C_7
REMARK    4  A    between atoms: C_7  and  O_8
REMARK    5  A    between atoms: O_8  and  C_9
REMARK                            x       y       z     vdW  Elec       q    Type
REMARK                         _______ _______ _______ _____ _____    ______ ____
ROOT
ATOM      1  C   UNL     1      46.340   4.771  13.136  0.00  0.00    +0.000 A 
ATOM      2  C   UNL     1      46.264   5.816  12.214  0.00  0.00    +0.000 A 
ATOM      3  C   UNL     1      45.567   5.639  11.019  0.00  0.00    +0.000 A 
ATOM      4  C   UNL     1      44.947   4.416  10.776  0.00  0.00    +0.000 A 
ATOM      5  N   UNL     1      45.010   3.384  11.655  0.00  0.00    +0.000 NA
ATOM      6  C   UNL     1      45.706   3.582  12.799  0.00  0.00    +0.000 A 
ENDROOT
BRANCH   1   7
ATOM      7  C   UNL     1      47.103   4.904  14.422  0.00  0.00    +0.000 C 
BRANCH   7   8
ATOM      8  N   UNL     1      47.213   3.631  15.126  0.00  0.00    +0.000 NA
ATOM      9  H   UNL     1      47.469   3.808  16.095  0.00  0.00    +0.000 HD
ATOM     10  H   UNL     1      47.978   3.093  14.722  0.00  0.00    +0.000 HD
ENDBRANCH   7   8
ENDBRANCH   1   7
BRANCH   4  11
ATOM     11  C   UNL     1      44.156   4.202   9.507  0.00  0.00    +0.000 C 
BRANCH  11  12
ATOM     12  O   UNL     1      44.997   4.399   8.368  0.00  0.00    +0.000 OA
BRANCH  12  13
ATOM     13  C   UNL     1      45.705   3.310   7.936  0.00  0.00    +0.000 A 
ATOM     14  C   UNL     1      45.684   2.037   8.519  0.00  0.00    +0.000 A 
ATOM     15  C   UNL     1      46.435   0.993   7.969  0.00  0.00    +0.000 A 
ATOM     16  C   UNL     1      47.213   1.217   6.837  0.00  0.00    +0.000 A 
ATOM     17  C   UNL     1      47.242   2.485   6.269  0.00  0.00    +0.000 A 
ATOM     18  F   UNL     1      47.992   2.702   5.181  0.00  0.00    +0.000 F 
ATOM     19  C   UNL     1      46.497   3.529   6.809  0.00  0.00    +0.000 A 
ENDBRANCH  12  13
ENDBRANCH  11  12
ENDBRANCH   4  11
TORSDOF 5
ENDMDL
MODEL 5
REMARK VINA RESULT:    -6.856      1.677      2.081
REMARK INTER + INTRA:          -9.035
REMARK INTER:                  -8.707
REMARK INTRA:                  -0.328
REMARK UNBOUND:                -0.375
REMARK  Name = 
REMARK  5 active torsions:
REMARK  status: ('A' for Active; 'I' for Inactive)
REMARK    1  A    between atoms: N_1  and  C_2
REMARK    2  A    between atoms: C_2  and  C_3
REMARK    3  A    between atoms: C_6  and  C_7
REMARK    4  A    between atoms: C_7  and  O_8
REMARK    5  A    between atoms: O_8  and  C_9
REMARK                            x       y       z     vdW  Elec       q    Type
REMARK                         _______ _______ _______ _____ _____    ______ ____
ROOT
ATOM      1  C   UNL     1      46.240   6.347  12.632  0.00  0.00    +0.000 A 
ATOM      2  C   UNL     1      45.836   5.154  13.234  0.00  0.00    +0.000 A 
ATOM      3  C   UNL     1      45.232   4.158  12.468  0.00  0.00    +0.000 A 
ATOM      4  C   UNL     1      45.054   4.374  11.104  0.00  0.00    +0.000 A 
ATOM      5  N   UNL     1      45.435   5.525  10.496  0.00  0.00    +0.000 NA
ATOM      6  C   UNL     1      46.004   6.479  11.269  0.00  0.00    +0.000 A 
ENDROOT
BRANCH   1   7
ATOM      7  C   UNL     1      46.868   7.459  13.421  0.00  0.00    +0.000 C 
BRANCH   7   8
ATOM      8  N   UNL     1      46.024   8.648  13.456  0.00  0.00    +0.000 NA
ATOM      9  H   UNL     1      45.563   8.755  12.556  0.00  0.00    +0.000 HD
ATOM     10  H   UNL     1      46.614   9.471  13.574  0.00  0.00    +0.000 HD
ENDBRANCH   7   8
ENDBRANCH   1   7
BRANCH   4  11
ATOM     11  C   UNL     1      44.433   3.302  10.238  0.00  0.00    +0.000 C 
BRANCH  11  12
ATOM     12  O   UNL     1      44.546   3.661   8.859  0.00  0.00    +0.000 OA
BRANCH  12  13
ATOM     13  C   UNL     1      45.536   3.038   8.146  0.00  0.00    +0.000 A 
ATOM     14  C   UNL     1      46.402   3.655   7.237  0.00  0.00    +0.000 A 
ATOM     15  C   UNL     1      47.394   2.914   6.587  0.00  0.00    +0.000 A 
ATOM     16  C   UNL     1      47.521   1.552   6.838  0.00  0.00    +0.000 A 
ATOM     17  C   UNL     1      46.652   0.939   7.733  0.00  0.00    +0.000 A 
ATOM     18  F   UNL     1      46.772  -0.372   7.975  0.00  0.00    +0.000 F 
ATOM     19  C   UNL     1      45.662   1.669   8.385  0.00  0.00    +0.000 A 
ENDBRANCH  12  13
ENDBRANCH  11  12
ENDBRANCH   4  11
TORSDOF 5
ENDMDL
MODEL 6
REMARK VINA RESULT:    -6.323      3.341      6.168
REMARK INTER + INTRA:          -8.362
REMARK INTER:                  -7.989
REMARK INTRA:                  -0.373
REMARK UNBOUND:                -0.375
REMARK  Name = 
REMARK  5 active torsions:
REMARK  status: ('A' for Active; 'I' for Inactive)
REMARK    1  A    between atoms: N_1  and  C_2
REMARK    2  A    between atoms: C_2  and  C_3
REMARK    3  A    between atoms: C_6  and  C_7
REMARK    4  A    between atoms: C_7  and  O_8
REMARK    5  A    between atoms: O_8  and  C_9
REMARK                            x       y       z     vdW  Elec       q    Type
REMARK                         _______ _______ _______ _____ _____    ______ ____
ROOT
ATOM      1  C   UNL     1      46.213   2.228   7.884  0.00  0.00    +0.000 A 
ATOM      2  C   UNL     1      45.339   1.818   8.893  0.00  0.00    +0.000 A 
ATOM      3  C   UNL     1      44.649   2.768   9.644  0.00  0.00    +0.000 A 
ATOM      4  C   UNL     1      44.841   4.119   9.361  0.00  0.00    +0.000 A 
ATOM      5  N   UNL     1      45.688   4.542   8.389  0.00  0.00    +0.000 NA
ATOM      6  C   UNL     1      46.354   3.596   7.687  0.00  0.00    +0.000 A 
ENDROOT
BRANCH   1   7
ATOM      7  C   UNL     1      46.999   1.242   7.068  0.00  0.00    +0.000 C 
BRANCH   7   8
ATOM      8  N   UNL     1      47.015  -0.082   7.679  0.00  0.00    +0.000 NA
ATOM      9  H   UNL     1      46.237  -0.626   7.313  0.00  0.00    +0.000 HD
ATOM     10  H   UNL     1      46.851   0.012   8.681  0.00  0.00    +0.000 HD
ENDBRANCH   7   8
ENDBRANCH   1   7
BRANCH   4  11
ATOM     11  C   UNL     1      44.085   5.174  10.133  0.00  0.00    +0.000 C 
BRANCH  11  12
ATOM     12  O   UNL     1      44.625   5.297  11.451  0.00  0.00    +0.000 OA
BRANCH  12  13
ATOM     13  C   UNL     1      45.324   6.444  11.718  0.00  0.00    +0.000 A 
ATOM     14  C   UNL     1      44.769   7.673  12.090  0.00  0.00    +0.000 A 
ATOM     15  C   UNL     1      45.592   8.770  12.364  0.00  0.00    +0.000 A 
ATOM     16  C   UNL     1      46.974   8.645  12.262  0.00  0.00    +0.000 A 
ATOM     17  C   UNL     1      47.522   7.427  11.880  0.00  0.00    +0.000 A 
ATOM     18  F   UNL     1      48.852   7.306  11.780  0.00  0.00    +0.000 F 
ATOM     19  C   UNL     1      46.711   6.330  11.607  0.00  0.00    +0.000 A 
ENDBRANCH  12  13
ENDBRANCH  11  12
ENDBRANCH   4  11
TORSDOF 5
ENDMDL
MODEL 7
REMARK VINA RESULT:    -5.588      4.225      6.449
REMARK INTER + INTRA:          -7.433
REMARK INTER:                  -7.097
REMARK INTRA:                  -0.337
REMARK UNBOUND:                -0.375
REMARK  Name = 
REMARK  5 active torsions:
REMARK  status: ('A' for Active; 'I' for Inactive)
REMARK    1  A    between atoms: N_1  and  C_2
REMARK    2  A    between atoms: C_2  and  C_3
REMARK    3  A    between atoms: C_6  and  C_7
REMARK    4  A    between atoms: C_7  and  O_8
REMARK    5  A    between atoms: O_8  and  C_9
REMARK                            x       y       z     vdW  Elec       q    Type
REMARK                         _______ _______ _______ _____ _____    ______ ____
ROOT
ATOM      1  C   UNL     1      50.888   2.439  17.392  0.00  0.00    +0.000 A 
ATOM      2  C   UNL     1      50.552   3.722  17.824  0.00  0.00    +0.000 A 
ATOM      3  C   UNL     1      49.347   4.298  17.423  0.00  0.00    +0.000 A 
ATOM      4  C   UNL     1      48.493   3.567  16.602  0.00  0.00    +0.000 A 
ATOM      5  N   UNL     1      48.798   2.319  16.166  0.00  0.00    +0.000 NA
ATOM      6  C   UNL     1      49.982   1.794  16.560  0.00  0.00    +0.000 A 
ENDROOT
BRANCH   1   7
ATOM      7  C   UNL     1      52.186   1.789  17.775  0.00  0.00    +0.000 C 
BRANCH   7   8
ATOM      8  N   UNL     1      52.016   0.377  18.098  0.00  0.00    +0.000 NA
ATOM      9  H   UNL     1      52.922  -0.084  18.063  0.00  0.00    +0.000 HD
ATOM     10  H   UNL     1      51.445  -0.063  17.377  0.00  0.00    +0.000 HD
ENDBRANCH   7   8
ENDBRANCH   1   7
BRANCH   4  11
ATOM     11  C   UNL     1      47.164   4.147  16.175  0.00  0.00    +0.000 C 
BRANCH  11  12
ATOM     12  O   UNL     1      46.783   3.614  14.905  0.00  0.00    +0.000 OA
BRANCH  12  13
ATOM     13  C   UNL     1      46.642   4.515  13.883  0.00  0.00    +0.000 A 
ATOM     14  C   UNL     1      47.392   5.684  13.714  0.00  0.00    +0.000 A 
ATOM     15  C   UNL     1      47.171   6.514  12.610  0.00  0.00    +0.000 A 
ATOM     16  C   UNL     1      46.197   6.182  11.674  0.00  0.00    +0.000 A 
ATOM     17  C   UNL     1      45.446   5.027  11.851  0.00  0.00    +0.000 A 
ATOM     18  F   UNL     1      44.508   4.707  10.951  0.00  0.00    +0.000 F 
ATOM     19  C   UNL     1      45.659   4.194  12.946  0.00  0.00    +0.000 A 
ENDBRANCH  12  13
ENDBRANCH  11  12
ENDBRANCH   4  11
TORSDOF 5
ENDMDL
MODEL 8
REMARK VINA RESULT:    -5.580      3.315      5.153
REMARK INTER + INTRA:          -7.423
REMARK INTER:                  -7.180
REMARK INTRA:                  -0.243
REMARK UNBOUND:                -0.375
REMARK  Name = 
REMARK  5 active torsions:
REMARK  status: ('A' for Active; 'I' for Inactive)
REMARK    1  A    between atoms: N_1  and  C_2
REMARK    2  A    between atoms: C_2  and  C_3
REMARK    3  A    between atoms: C_6  and  C_7
REMARK    4  A    between atoms: C_7  and  O_8
REMARK    5  A    between atoms: O_8  and  C_9
REMARK                            x       y       z     vdW  Elec       q    Type
REMARK                         _______ _______ _______ _____ _____    ______ ____
ROOT
ATOM      1  C   UNL     1      48.254   4.576  18.056  0.00  0.00    +0.000 A 
ATOM      2  C   UNL     1      48.768   5.565  17.216  0.00  0.00    +0.000 A 
ATOM      3  C   UNL     1      48.344   5.642  15.891  0.00  0.00    +0.000 A 
ATOM      4  C   UNL     1      47.398   4.728  15.432  0.00  0.00    +0.000 A 
ATOM      5  N   UNL     1      46.886   3.755  16.228  0.00  0.00    +0.000 NA
ATOM      6  C   UNL     1      47.329   3.698  17.506  0.00  0.00    +0.000 A 
ENDROOT
BRANCH   1   7
ATOM      7  C   UNL     1      48.702   4.436  19.482  0.00  0.00    +0.000 C 
BRANCH   7   8
ATOM      8  N   UNL     1      48.341   3.139  20.043  0.00  0.00    +0.000 NA
ATOM      9  H   UNL     1      47.560   3.259  20.683  0.00  0.00    +0.000 HD
ATOM     10  H   UNL     1      49.118   2.792  20.603  0.00  0.00    +0.000 HD
ENDBRANCH   7   8
ENDBRANCH   1   7
BRANCH   4  11
ATOM     11  C   UNL     1      46.892   4.803  14.011  0.00  0.00    +0.000 C 
BRANCH  11  12
ATOM     12  O   UNL     1      45.681   4.054  13.883  0.00  0.00    +0.000 OA
BRANCH  12  13
ATOM     13  C   UNL     1      44.909   4.327  12.786  0.00  0.00    +0.000 A 
ATOM     14  C   UNL     1      44.094   5.452  12.616  0.00  0.00    +0.000 A 
ATOM     15  C   UNL     1      43.370   5.632  11.434  0.00  0.00    +0.000 A 
ATOM     16  C   UNL     1      43.452   4.686  10.417  0.00  0.00    +0.000 A 
ATOM     17  C   UNL     1      44.252   3.563  10.593  0.00  0.00    +0.000 A 
ATOM     18  F   UNL     1      44.331   2.651   9.615  0.00  0.00    +0.000 F 
ATOM     19  C   UNL     1      44.977   3.376  11.766  0.00  0.00    +0.000 A 
ENDBRANCH  12  13
ENDBRANCH  11  12
ENDBRANCH   4  11
TORSDOF 5
ENDMDL
MODEL 9
REMARK VINA RESULT:    -5.238      4.000      7.406
REMARK INTER + INTRA:          -6.992
REMARK INTER:                  -6.739
REMARK INTRA:                  -0.252
REMARK UNBOUND:                -0.375
REMARK  Name = 
REMARK  5 active torsions:
REMARK  status: ('A' for Active; 'I' for Inactive)
REMARK    1  A    between atoms: N_1  and  C_2
REMARK    2  A    between atoms: C_2  and  C_3
REMARK    3  A    between atoms: C_6  and  C_7
REMARK    4  A    between atoms: C_7  and  O_8
REMARK    5  A    between atoms: O_8  and  C_9
REMARK                            x       y       z     vdW  Elec       q    Type
REMARK                         _______ _______ _______ _____ _____    ______ ____
ROOT
ATOM      1  C   UNL     1      44.932   4.204  10.886  0.00  0.00    +0.000 A 
ATOM      2  C   UNL     1      45.008   3.687  12.180  0.00  0.00    +0.000 A 
ATOM      3  C   UNL     1      45.745   4.358  13.154  0.00  0.00    +0.000 A 
ATOM      4  C   UNL     1      46.386   5.548  12.814  0.00  0.00    +0.000 A 
ATOM      5  N   UNL     1      46.329   6.068  11.562  0.00  0.00    +0.000 NA
ATOM      6  C   UNL     1      45.618   5.385  10.635  0.00  0.00    +0.000 A 
ENDROOT
BRANCH   1   7
ATOM      7  C   UNL     1      44.174   3.502   9.796  0.00  0.00    +0.000 C 
BRANCH   7   8
ATOM      8  N   UNL     1      43.813   4.407   8.711  0.00  0.00    +0.000 NA
ATOM      9  H   UNL     1      44.562   5.082   8.578  0.00  0.00    +0.000 HD
ATOM     10  H   UNL     1      42.991   4.944   8.986  0.00  0.00    +0.000 HD
ENDBRANCH   7   8
ENDBRANCH   1   7
BRANCH   4  11
ATOM     11  C   UNL     1      47.165   6.318  13.853  0.00  0.00    +0.000 C 
BRANCH  11  12
ATOM     12  O   UNL     1      48.203   5.497  14.394  0.00  0.00    +0.000 OA
BRANCH  12  13
ATOM     13  C   UNL     1      48.141   5.244  15.738  0.00  0.00    +0.000 A 
ATOM     14  C   UNL     1      48.613   6.084  16.752  0.00  0.00    +0.000 A 
ATOM     15  C   UNL     1      48.469   5.725  18.096  0.00  0.00    +0.000 A 
ATOM     16  C   UNL     1      47.857   4.522  18.433  0.00  0.00    +0.000 A 
ATOM     17  C   UNL     1      47.399   3.684  17.424  0.00  0.00    +0.000 A 
ATOM     18  F   UNL     1      46.812   2.525  17.747  0.00  0.00    +0.000 F 
ATOM     19  C   UNL     1      47.538   4.033  16.084  0.00  0.00    +0.000 A 
ENDBRANCH  12  13
ENDBRANCH  11  12
ENDBRANCH   4  11
TORSDOF 5
ENDMDL
