MODEL 1
REMARK VINA RESULT:    -8.748      0.000      0.000
REMARK INTER + INTRA:         -12.121
REMARK INTER:                 -11.305
REMARK INTRA:                  -0.816
REMARK UNBOUND:                -0.816
REMARK  Name = 
REMARK  5 active torsions:
REMARK  status: ('A' for Active; 'I' for Inactive)
REMARK    1  A    between atoms: C_2  and  C_4
REMARK    2  A    between atoms: C_7  and  O_8
REMARK    3  A    between atoms: O_8  and  C_9
REMARK    4  A    between atoms: C_9  and  C_10
REMARK    5  A    between atoms: C_14  and  C_15
REMARK                            x       y       z     vdW  Elec       q    Type
REMARK                         _______ _______ _______ _____ _____    ______ ____
ROOT
ATOM      1  C   UNL     1      43.633   4.208  11.231  0.00  0.00    +0.000 C 
ENDROOT
BRANCH   1   2
ATOM      2  C   UNL     1      44.846   4.680  12.003  0.00  0.00    +0.000 A 
ATOM      3  C   UNL     1      45.526   3.793  12.843  0.00  0.00    +0.000 A 
ATOM      4  C   UNL     1      46.671   4.206  13.520  0.00  0.00    +0.000 A 
ATOM      5  C   UNL     1      47.157   5.505  13.347  0.00  0.00    +0.000 A 
ATOM      6  C   UNL     1      46.525   6.414  12.481  0.00  0.00    +0.000 A 
ATOM      7  C   UNL     1      45.365   5.973  11.819  0.00  0.00    +0.000 A 
BRANCH   6   8
ATOM      8  C   UNL     1      47.073   7.768  12.237  0.00  0.00    +0.000 A 
ATOM      9  C   UNL     1      46.278   8.919  12.347  0.00  0.00    +0.000 A 
ATOM     10  C   UNL     1      46.826  10.161  12.059  0.00  0.00    +0.000 A 
ATOM     11  N   UNL     1      48.105  10.348  11.685  0.00  0.00    +0.000 NA
ATOM     12  C   UNL     1      48.863   9.238  11.593  0.00  0.00    +0.000 A 
ATOM     13  F   UNL     1      50.142   9.393  11.221  0.00  0.00    +0.000 F 
ATOM     14  C   UNL     1      48.405   7.958  11.849  0.00  0.00    +0.000 A 
ENDBRANCH   6   8
ENDBRANCH   1   2
BRANCH   1  15
ATOM     15  O   UNL     1      43.697   4.664   9.875  0.00  0.00    +0.000 OA
BRANCH  15  19
ATOM     16  C   UNL     1      46.431   2.502   7.686  0.00  0.00    +0.000 A 
ATOM     17  C   UNL     1      45.576   1.841   8.572  0.00  0.00    +0.000 A 
ATOM     18  C   UNL     1      44.655   2.586   9.311  0.00  0.00    +0.000 A 
ATOM     19  C   UNL     1      44.623   3.962   9.133  0.00  0.00    +0.000 A 
ATOM     20  N   UNL     1      45.441   4.626   8.290  0.00  0.00    +0.000 NA
ATOM     21  C   UNL     1      46.334   3.883   7.593  0.00  0.00    +0.000 A 
BRANCH  16  23
ATOM     22  N   UNL     1      48.515   2.551   6.438  0.00  0.00    +0.000 N 
ATOM     23  C   UNL     1      47.446   1.813   6.863  0.00  0.00    +0.000 C 
ATOM     24  O   UNL     1      47.357   0.621   6.611  0.00  0.00    +0.000 OA
ATOM     25  H   UNL     1      49.254   2.033   5.978  0.00  0.00    +0.000 HD
ATOM     26  H   UNL     1      48.753   3.449   6.833  0.00  0.00    +0.000 HD
ENDBRANCH  16  23
ENDBRANCH  15  19
ENDBRANCH   1  15
TORSDOF 5
ENDMDL
MODEL 2
REMARK VINA RESULT:    -8.608      3.046      4.019
REMARK INTER + INTRA:         -11.940
REMARK INTER:                 -11.368
REMARK INTRA:                  -0.572
REMARK UNBOUND:                -0.816
REMARK  Name = 
REMARK  5 active torsions:
REMARK  status: ('A' for Active; 'I' for Inactive)
REMARK    1  A    between atoms: C_2  and  C_4
REMARK    2  A    between atoms: C_7  and  O_8
REMARK    3  A    between atoms: O_8  and  C_9
REMARK    4  A    between atoms: C_9  and  C_10
REMARK    5  A    between atoms: C_14  and  C_15
REMARK                            x       y       z     vdW  Elec       q    Type
REMARK                         _______ _______ _______ _____ _____    ______ ____
ROOT
ATOM      1  C   UNL     1      44.189   4.589  11.379  0.00  0.00    +0.000 C 
ENDROOT
BRANCH   1   2
ATOM      2  C   UNL     1      45.425   5.249  11.951  0.00  0.00    +0.000 A 
ATOM      3  C   UNL     1      46.027   6.313  11.272  0.00  0.00    +0.000 A 
ATOM      4  C   UNL     1      47.135   6.955  11.816  0.00  0.00    +0.000 A 
ATOM      5  C   UNL     1      47.641   6.552  13.055  0.00  0.00    +0.000 A 
ATOM      6  C   UNL     1      47.041   5.514  13.788  0.00  0.00    +0.000 A 
ATOM      7  C   UNL     1      45.929   4.875  13.209  0.00  0.00    +0.000 A 
BRANCH   6   8
ATOM      8  C   UNL     1      47.527   5.127  15.132  0.00  0.00    +0.000 A 
ATOM      9  C   UNL     1      48.487   5.885  15.818  0.00  0.00    +0.000 A 
ATOM     10  C   UNL     1      48.946   5.452  17.055  0.00  0.00    +0.000 A 
ATOM     11  N   UNL     1      48.514   4.334  17.666  0.00  0.00    +0.000 NA
ATOM     12  C   UNL     1      47.584   3.619  17.005  0.00  0.00    +0.000 A 
ATOM     13  F   UNL     1      47.135   2.499  17.588  0.00  0.00    +0.000 F 
ATOM     14  C   UNL     1      47.073   3.963  15.765  0.00  0.00    +0.000 A 
ENDBRANCH   6   8
ENDBRANCH   1   2
BRANCH   1  15
ATOM     15  O   UNL     1      44.076   4.873   9.980  0.00  0.00    +0.000 OA
BRANCH  15  19
ATOM     16  C   UNL     1      46.408   2.338   7.727  0.00  0.00    +0.000 A 
ATOM     17  C   UNL     1      45.551   1.811   8.697  0.00  0.00    +0.000 A 
ATOM     18  C   UNL     1      44.767   2.681   9.457  0.00  0.00    +0.000 A 
ATOM     19  C   UNL     1      44.869   4.044   9.215  0.00  0.00    +0.000 A 
ATOM     20  N   UNL     1      45.692   4.580   8.290  0.00  0.00    +0.000 NA
ATOM     21  C   UNL     1      46.451   3.716   7.574  0.00  0.00    +0.000 A 
BRANCH  16  23
ATOM     22  N   UNL     1      48.347   2.128   6.278  0.00  0.00    +0.000 N 
ATOM     23  C   UNL     1      47.285   1.509   6.875  0.00  0.00    +0.000 C 
ATOM     24  O   UNL     1      47.097   0.309   6.746  0.00  0.00    +0.000 OA
ATOM     25  H   UNL     1      49.000   1.521   5.797  0.00  0.00    +0.000 HD
ATOM     26  H   UNL     1      48.680   3.038   6.561  0.00  0.00    +0.000 HD
ENDBRANCH  16  23
ENDBRANCH  15  19
ENDBRANCH   1  15
TORSDOF 5
ENDMDL
MODEL 3
REMARK VINA RESULT:    -8.530      1.233      1.743
REMARK INTER + INTRA:         -11.840
REMARK INTER:                 -10.935
REMARK INTRA:                  -0.905
REMARK UNBOUND:                -0.816
REMARK  Name = 
REMARK  5 active torsions:
REMARK  status: ('A' for Active; 'I' for Inactive)
REMARK    1  A    between atoms: C_2  and  C_4
REMARK    2  A    between atoms: C_7  and  O_8
REMARK    3  A    between atoms: O_8  and  C_9
REMARK    4  A    between atoms: C_9  and  C_10
REMARK    5  A    between atoms: C_14  and  C_15
REMARK                            x       y       z     vdW  Elec       q    Type
REMARK                         _______ _______ _______ _____ _____    ______ ____
ROOT
ATOM      1  C   UNL     1      43.635   3.896  11.371  0.00  0.00    +0.000 C 
ENDROOT
BRANCH   1   2
ATOM      2  C   UNL     1      44.841   4.474  12.079  0.00  0.00    +0.000 A 
ATOM      3  C   UNL     1      45.647   3.651  12.872  0.00  0.00    +0.000 A 
ATOM      4  C   UNL     1      46.784   4.165  13.487  0.00  0.00    +0.000 A 
ATOM      5  C   UNL     1      47.139   5.504  13.300  0.00  0.00    +0.000 A 
ATOM      6  C   UNL     1      46.379   6.354  12.479  0.00  0.00    +0.000 A 
ATOM      7  C   UNL     1      45.228   5.810  11.878  0.00  0.00    +0.000 A 
BRANCH   6   8
ATOM      8  C   UNL     1      46.785   7.754  12.217  0.00  0.00    +0.000 A 
ATOM      9  C   UNL     1      48.125   8.107  12.001  0.00  0.00    +0.000 A 
ATOM     10  C   UNL     1      48.460   9.441  11.810  0.00  0.00    +0.000 A 
ATOM     11  N   UNL     1      47.565  10.446  11.804  0.00  0.00    +0.000 NA
ATOM     12  C   UNL     1      46.280  10.095  12.002  0.00  0.00    +0.000 A 
ATOM     13  F   UNL     1      45.366  11.075  12.003  0.00  0.00    +0.000 F 
ATOM     14  C   UNL     1      45.850   8.796  12.211  0.00  0.00    +0.000 A 
ENDBRANCH   6   8
ENDBRANCH   1   2
BRANCH   1  15
ATOM     15  O   UNL     1      43.614   4.314  10.002  0.00  0.00    +0.000 OA
BRANCH  15  19
ATOM     16  C   UNL     1      46.486   2.447   7.720  0.00  0.00    +0.000 A 
ATOM     17  C   UNL     1      46.357   3.838   7.668  0.00  0.00    +0.000 A 
ATOM     18  C   UNL     1      45.377   4.459   8.444  0.00  0.00    +0.000 A 
ATOM     19  C   UNL     1      44.566   3.666   9.245  0.00  0.00    +0.000 A 
ATOM     20  N   UNL     1      44.665   2.322   9.309  0.00  0.00    +0.000 NA
ATOM     21  C   UNL     1      45.615   1.741   8.538  0.00  0.00    +0.000 A 
BRANCH  16  23
ATOM     22  N   UNL     1      48.472   2.402   6.321  0.00  0.00    +0.000 N 
ATOM     23  C   UNL     1      47.482   1.689   6.936  0.00  0.00    +0.000 C 
ATOM     24  O   UNL     1      47.448   0.468   6.876  0.00  0.00    +0.000 OA
ATOM     25  H   UNL     1      49.207   1.855   5.889  0.00  0.00    +0.000 HD
ATOM     26  H   UNL     1      48.682   3.361   6.554  0.00  0.00    +0.000 HD
ENDBRANCH  16  23
ENDBRANCH  15  19
ENDBRANCH   1  15
TORSDOF 5
ENDMDL
MODEL 4
REMARK VINA RESULT:    -8.213      2.345      2.805
REMARK INTER + INTRA:         -11.431
REMARK INTER:                 -10.551
REMARK INTRA:                  -0.880
REMARK UNBOUND:                -0.816
REMARK  Name = 
REMARK  5 active torsions:
REMARK  status: ('A' for Active; 'I' for Inactive)
REMARK    1  A    between atoms: C_2  and  C_4
REMARK    2  A    between atoms: C_7  and  O_8
REMARK    3  A    between atoms: O_8  and  C_9
REMARK    4  A    between atoms: C_9  and  C_10
REMARK    5  A    between atoms: C_14  and  C_15
REMARK                            x       y       z     vdW  Elec       q    Type
REMARK                         _______ _______ _______ _____ _____    ______ ____
ROOT
ATOM      1  C   UNL     1      44.073   3.476  11.503  0.00  0.00    +0.000 C 
ENDROOT
BRANCH   1   2
ATOM      2  C   UNL     1      44.804   4.680  12.057  0.00  0.00    +0.000 A 
ATOM      3  C   UNL     1      45.906   4.502  12.900  0.00  0.00    +0.000 A 
ATOM      4  C   UNL     1      46.612   5.603  13.374  0.00  0.00    +0.000 A 
ATOM      5  C   UNL     1      46.234   6.895  12.996  0.00  0.00    +0.000 A 
ATOM      6  C   UNL     1      45.158   7.115  12.119  0.00  0.00    +0.000 A 
ATOM      7  C   UNL     1      44.456   5.984  11.664  0.00  0.00    +0.000 A 
BRANCH   6   8
ATOM      8  C   UNL     1      44.795   8.474  11.656  0.00  0.00    +0.000 A 
ATOM      9  C   UNL     1      45.580   9.595  11.966  0.00  0.00    +0.000 A 
ATOM     10  C   UNL     1      45.169  10.854  11.551  0.00  0.00    +0.000 A 
ATOM     11  N   UNL     1      44.048  11.082  10.841  0.00  0.00    +0.000 NA
ATOM     12  C   UNL     1      43.308   9.998  10.540  0.00  0.00    +0.000 A 
ATOM     13  F   UNL     1      42.185  10.194   9.835  0.00  0.00    +0.000 F 
ATOM     14  C   UNL     1      43.629   8.706  10.917  0.00  0.00    +0.000 A 
ENDBRANCH   6   8
ENDBRANCH   1   2
BRANCH   1  15
ATOM     15  O   UNL     1      43.683   3.712  10.146  0.00  0.00    +0.000 OA
BRANCH  15  19
ATOM     16  C   UNL     1      46.632   2.693   7.461  0.00  0.00    +0.000 A 
ATOM     17  C   UNL     1      46.270   4.034   7.616  0.00  0.00    +0.000 A 
ATOM     18  C   UNL     1      45.267   4.366   8.528  0.00  0.00    +0.000 A 
ATOM     19  C   UNL     1      44.666   3.346   9.251  0.00  0.00    +0.000 A 
ATOM     20  N   UNL     1      44.990   2.043   9.117  0.00  0.00    +0.000 NA
ATOM     21  C   UNL     1      45.958   1.744   8.217  0.00  0.00    +0.000 A 
BRANCH  16  23
ATOM     22  N   UNL     1      47.834   2.940   5.364  0.00  0.00    +0.000 N 
ATOM     23  C   UNL     1      47.672   2.231   6.520  0.00  0.00    +0.000 C 
ATOM     24  O   UNL     1      48.392   1.279   6.787  0.00  0.00    +0.000 OA
ATOM     25  H   UNL     1      48.628   2.679   4.792  0.00  0.00    +0.000 HD
ATOM     26  H   UNL     1      47.448   3.863   5.229  0.00  0.00    +0.000 HD
ENDBRANCH  16  23
ENDBRANCH  15  19
ENDBRANCH   1  15
TORSDOF 5
ENDMDL
MODEL 5
REMARK VINA RESULT:    -8.030      1.543      2.112
REMARK INTER + INTRA:         -11.194
REMARK INTER:                 -10.422
REMARK INTRA:                  -0.771
REMARK UNBOUND:                -0.816
REMARK  Name = 
REMARK  5 active torsions:
REMARK  status: ('A' for Active; 'I' for Inactive)
REMARK    1  A    between atoms: C_2  and  C_4
REMARK    2  A    between atoms: C_7  and  O_8
REMARK    3  A    between atoms: O_8  and  C_9
REMARK    4  A    between atoms: C_9  and  C_10
REMARK    5  A    between atoms: C_14  and  C_15
REMARK                            x       y       z     vdW  Elec       q    Type
REMARK                         _______ _______ _______ _____ _____    ______ ____
ROOT
ATOM      1  C   UNL     1      44.299   3.248  11.348  0.00  0.00    +0.000 C 
ENDROOT
BRANCH   1   2
ATOM      2  C   UNL     1      44.354   4.759  11.396  0.00  0.00    +0.000 A 
ATOM      3  C   UNL     1      43.197   5.508  11.162  0.00  0.00    +0.000 A 
ATOM      4  C   UNL     1      43.230   6.897  11.252  0.00  0.00    +0.000 A 
ATOM      5  C   UNL     1      44.417   7.550  11.595  0.00  0.00    +0.000 A 
ATOM      6  C   UNL     1      45.592   6.832  11.877  0.00  0.00    +0.000 A 
ATOM      7  C   UNL     1      45.532   5.430  11.768  0.00  0.00    +0.000 A 
BRANCH   6   8
ATOM      8  C   UNL     1      46.835   7.509  12.311  0.00  0.00    +0.000 A 
ATOM      9  C   UNL     1      46.833   8.483  13.320  0.00  0.00    +0.000 A 
ATOM     10  C   UNL     1      48.017   9.125  13.655  0.00  0.00    +0.000 A 
ATOM     11  N   UNL     1      49.203   8.864  13.074  0.00  0.00    +0.000 NA
ATOM     12  C   UNL     1      49.196   7.920  12.114  0.00  0.00    +0.000 A 
ATOM     13  F   UNL     1      50.362   7.639  11.515  0.00  0.00    +0.000 F 
ATOM     14  C   UNL     1      48.066   7.233  11.704  0.00  0.00    +0.000 A 
ENDBRANCH   6   8
ENDBRANCH   1   2
BRANCH   1  15
ATOM     15  O   UNL     1      43.751   2.809  10.100  0.00  0.00    +0.000 OA
BRANCH  15  19
ATOM     16  C   UNL     1      46.628   2.497   7.173  0.00  0.00    +0.000 A 
ATOM     17  C   UNL     1      45.935   3.699   7.336  0.00  0.00    +0.000 A 
ATOM     18  C   UNL     1      44.960   3.792   8.331  0.00  0.00    +0.000 A 
ATOM     19  C   UNL     1      44.717   2.679   9.124  0.00  0.00    +0.000 A 
ATOM     20  N   UNL     1      45.366   1.505   8.984  0.00  0.00    +0.000 NA
ATOM     21  C   UNL     1      46.300   1.436   8.005  0.00  0.00    +0.000 A 
BRANCH  16  23
ATOM     22  N   UNL     1      47.686   3.142   5.083  0.00  0.00    +0.000 N 
ATOM     23  C   UNL     1      47.672   2.287   6.149  0.00  0.00    +0.000 C 
ATOM     24  O   UNL     1      48.518   1.414   6.273  0.00  0.00    +0.000 OA
ATOM     25  H   UNL     1      48.478   3.056   4.457  0.00  0.00    +0.000 HD
ATOM     26  H   UNL     1      47.181   4.016   5.075  0.00  0.00    +0.000 HD
ENDBRANCH  16  23
ENDBRANCH  15  19
ENDBRANCH   1  15
TORSDOF 5
ENDMDL
MODEL 6
REMARK VINA RESULT:    -7.567      1.556      2.448
REMARK INTER + INTRA:         -10.595
REMARK INTER:                  -9.785
REMARK INTRA:                  -0.810
REMARK UNBOUND:                -0.816
REMARK  Name = 
REMARK  5 active torsions:
REMARK  status: ('A' for Active; 'I' for Inactive)
REMARK    1  A    between atoms: C_2  and  C_4
REMARK    2  A    between atoms: C_7  and  O_8
REMARK    3  A    between atoms: O_8  and  C_9
REMARK    4  A    between atoms: C_9  and  C_10
REMARK    5  A    between atoms: C_14  and  C_15
REMARK                            x       y       z     vdW  Elec       q    Type
REMARK                         _______ _______ _______ _____ _____    ______ ____
ROOT
ATOM      1  C   UNL     1      45.249   5.011  11.549  0.00  0.00    +0.000 C 
ENDROOT
BRANCH   1   2
ATOM      2  C   UNL     1      45.792   6.399  11.813  0.00  0.00    +0.000 A 
ATOM      3  C   UNL     1      44.943   7.401  12.292  0.00  0.00    +0.000 A 
ATOM      4  C   UNL     1      45.445   8.666  12.583  0.00  0.00    +0.000 A 
ATOM      5  C   UNL     1      46.806   8.937  12.413  0.00  0.00    +0.000 A 
ATOM      6  C   UNL     1      47.699   7.946  11.972  0.00  0.00    +0.000 A 
ATOM      7  C   UNL     1      47.162   6.679  11.676  0.00  0.00    +0.000 A 
BRANCH   6   8
ATOM      8  C   UNL     1      49.153   8.202  11.857  0.00  0.00    +0.000 A 
ATOM      9  C   UNL     1      49.763   9.297  12.488  0.00  0.00    +0.000 A 
ATOM     10  C   UNL     1      51.121   9.521  12.308  0.00  0.00    +0.000 A 
ATOM     11  N   UNL     1      51.920   8.735  11.563  0.00  0.00    +0.000 NA
ATOM     12  C   UNL     1      51.327   7.680  10.971  0.00  0.00    +0.000 A 
ATOM     13  F   UNL     1      52.097   6.880  10.221  0.00  0.00    +0.000 F 
ATOM     14  C   UNL     1      49.980   7.380  11.082  0.00  0.00    +0.000 A 
ENDBRANCH   6   8
ENDBRANCH   1   2
BRANCH   1  15
ATOM     15  O   UNL     1      44.556   4.977  10.297  0.00  0.00    +0.000 OA
BRANCH  15  19
ATOM     16  C   UNL     1      46.496   2.637   7.521  0.00  0.00    +0.000 A 
ATOM     17  C   UNL     1      45.749   2.032   8.535  0.00  0.00    +0.000 A 
ATOM     18  C   UNL     1      45.099   2.836   9.472  0.00  0.00    +0.000 A 
ATOM     19  C   UNL     1      45.217   4.214   9.357  0.00  0.00    +0.000 A 
ATOM     20  N   UNL     1      45.936   4.824   8.392  0.00  0.00    +0.000 NA
ATOM     21  C   UNL     1      46.568   4.023   7.502  0.00  0.00    +0.000 A 
BRANCH  16  23
ATOM     22  N   UNL     1      47.926   2.604   5.557  0.00  0.00    +0.000 N 
ATOM     23  C   UNL     1      47.230   1.882   6.484  0.00  0.00    +0.000 C 
ATOM     24  O   UNL     1      47.251   0.660   6.484  0.00  0.00    +0.000 OA
ATOM     25  H   UNL     1      48.515   2.068   4.931  0.00  0.00    +0.000 HD
ATOM     26  H   UNL     1      48.143   3.583   5.674  0.00  0.00    +0.000 HD
ENDBRANCH  16  23
ENDBRANCH  15  19
ENDBRANCH   1  15
TORSDOF 5
ENDMDL
MODEL 7
REMARK VINA RESULT:    -7.553      3.203      6.942
REMARK INTER + INTRA:         -10.577
REMARK INTER:                  -9.784
REMARK INTRA:                  -0.794
REMARK UNBOUND:                -0.816
REMARK  Name = 
REMARK  5 active torsions:
REMARK  status: ('A' for Active; 'I' for Inactive)
REMARK    1  A    between atoms: C_2  and  C_4
REMARK    2  A    between atoms: C_7  and  O_8
REMARK    3  A    between atoms: O_8  and  C_9
REMARK    4  A    between atoms: C_9  and  C_10
REMARK    5  A    between atoms: C_14  and  C_15
REMARK                            x       y       z     vdW  Elec       q    Type
REMARK                         _______ _______ _______ _____ _____    ______ ____
ROOT
ATOM      1  C   UNL     1      44.598   6.733  11.328  0.00  0.00    +0.000 C 
ENDROOT
BRANCH   1   2
ATOM      2  C   UNL     1      44.449   5.258  11.026  0.00  0.00    +0.000 A 
ATOM      3  C   UNL     1      43.542   4.484  11.757  0.00  0.00    +0.000 A 
ATOM      4  C   UNL     1      43.364   3.137  11.453  0.00  0.00    +0.000 A 
ATOM      5  C   UNL     1      44.079   2.555  10.402  0.00  0.00    +0.000 A 
ATOM      6  C   UNL     1      44.970   3.308   9.618  0.00  0.00    +0.000 A 
ATOM      7  C   UNL     1      45.137   4.664   9.955  0.00  0.00    +0.000 A 
BRANCH   6   8
ATOM      8  C   UNL     1      45.677   2.718   8.458  0.00  0.00    +0.000 A 
ATOM      9  C   UNL     1      46.119   1.387   8.461  0.00  0.00    +0.000 A 
ATOM     10  C   UNL     1      46.822   0.896   7.368  0.00  0.00    +0.000 A 
ATOM     11  N   UNL     1      47.105   1.622   6.271  0.00  0.00    +0.000 NA
ATOM     12  C   UNL     1      46.666   2.895   6.274  0.00  0.00    +0.000 A 
ATOM     13  F   UNL     1      46.935   3.643   5.195  0.00  0.00    +0.000 F 
ATOM     14  C   UNL     1      45.968   3.477   7.318  0.00  0.00    +0.000 A 
ENDBRANCH   6   8
ENDBRANCH   1   2
BRANCH   1  15
ATOM     15  O   UNL     1      45.188   6.920  12.619  0.00  0.00    +0.000 OA
BRANCH  15  19
ATOM     16  C   UNL     1      49.181   7.885  12.363  0.00  0.00    +0.000 A 
ATOM     17  C   UNL     1      48.217   8.826  11.994  0.00  0.00    +0.000 A 
ATOM     18  C   UNL     1      46.866   8.486  12.083  0.00  0.00    +0.000 A 
ATOM     19  C   UNL     1      46.532   7.218  12.539  0.00  0.00    +0.000 A 
ATOM     20  N   UNL     1      47.442   6.288  12.895  0.00  0.00    +0.000 NA
ATOM     21  C   UNL     1      48.746   6.637  12.789  0.00  0.00    +0.000 A 
BRANCH  16  23
ATOM     22  N   UNL     1      51.349   7.988  13.456  0.00  0.00    +0.000 N 
ATOM     23  C   UNL     1      50.636   8.136  12.300  0.00  0.00    +0.000 C 
ATOM     24  O   UNL     1      51.186   8.421  11.247  0.00  0.00    +0.000 OA
ATOM     25  H   UNL     1      52.356   8.049  13.365  0.00  0.00    +0.000 HD
ATOM     26  H   UNL     1      50.983   7.512  14.268  0.00  0.00    +0.000 HD
ENDBRANCH  16  23
ENDBRANCH  15  19
ENDBRANCH   1  15
TORSDOF 5
ENDMDL
MODEL 8
REMARK VINA RESULT:    -7.305      4.755      8.181
REMARK INTER + INTRA:         -10.257
REMARK INTER:                  -9.663
REMARK INTRA:                  -0.594
REMARK UNBOUND:                -0.816
REMARK  Name = 
REMARK  5 active torsions:
REMARK  status: ('A' for Active; 'I' for Inactive)
REMARK    1  A    between atoms: C_2  and  C_4
REMARK    2  A    between atoms: C_7  and  O_8
REMARK    3  A    between atoms: O_8  and  C_9
REMARK    4  A    between atoms: C_9  and  C_10
REMARK    5  A    between atoms: C_14  and  C_15
REMARK                            x       y       z     vdW  Elec       q    Type
REMARK                         _______ _______ _______ _____ _____    ______ ____
ROOT
ATOM      1  C   UNL     1      46.005   5.211  13.833  0.00  0.00    +0.000 C 
ENDROOT
BRANCH   1   2
ATOM      2  C   UNL     1      45.112   4.920  12.648  0.00  0.00    +0.000 A 
ATOM      3  C   UNL     1      43.803   5.411  12.622  0.00  0.00    +0.000 A 
ATOM      4  C   UNL     1      42.990   5.187  11.514  0.00  0.00    +0.000 A 
ATOM      5  C   UNL     1      43.486   4.486  10.411  0.00  0.00    +0.000 A 
ATOM      6  C   UNL     1      44.808   4.010  10.381  0.00  0.00    +0.000 A 
ATOM      7  C   UNL     1      45.603   4.241  11.519  0.00  0.00    +0.000 A 
BRANCH   6   8
ATOM      8  C   UNL     1      45.364   3.329   9.189  0.00  0.00    +0.000 A 
ATOM      9  C   UNL     1      45.498   1.933   9.131  0.00  0.00    +0.000 A 
ATOM     10  C   UNL     1      46.072   1.347   8.011  0.00  0.00    +0.000 A 
ATOM     11  N   UNL     1      46.508   2.038   6.942  0.00  0.00    +0.000 NA
ATOM     12  C   UNL     1      46.365   3.376   7.004  0.00  0.00    +0.000 A 
ATOM     13  F   UNL     1      46.793   4.092   5.954  0.00  0.00    +0.000 F 
ATOM     14  C   UNL     1      45.816   4.052   8.079  0.00  0.00    +0.000 A 
ENDBRANCH   6   8
ENDBRANCH   1   2
BRANCH   1  15
ATOM     15  O   UNL     1      46.539   3.994  14.365  0.00  0.00    +0.000 OA
BRANCH  15  19
ATOM     16  C   UNL     1      48.313   4.612  18.028  0.00  0.00    +0.000 A 
ATOM     17  C   UNL     1      48.548   5.512  16.984  0.00  0.00    +0.000 A 
ATOM     18  C   UNL     1      47.943   5.290  15.746  0.00  0.00    +0.000 A 
ATOM     19  C   UNL     1      47.124   4.178  15.600  0.00  0.00    +0.000 A 
ATOM     20  N   UNL     1      46.886   3.291  16.588  0.00  0.00    +0.000 NA
ATOM     21  C   UNL     1      47.494   3.521  17.776  0.00  0.00    +0.000 A 
BRANCH  16  23
ATOM     22  N   UNL     1      48.573   3.807  20.305  0.00  0.00    +0.000 N 
ATOM     23  C   UNL     1      48.908   4.747  19.373  0.00  0.00    +0.000 C 
ATOM     24  O   UNL     1      49.705   5.638  19.629  0.00  0.00    +0.000 OA
ATOM     25  H   UNL     1      49.082   3.850  21.180  0.00  0.00    +0.000 HD
ATOM     26  H   UNL     1      48.135   2.929  20.065  0.00  0.00    +0.000 HD
ENDBRANCH  16  23
ENDBRANCH  15  19
ENDBRANCH   1  15
TORSDOF 5
ENDMDL
MODEL 9
REMARK VINA RESULT:    -7.303      4.194      7.596
REMARK INTER + INTRA:         -10.255
REMARK INTER:                  -9.596
REMARK INTRA:                  -0.659
REMARK UNBOUND:                -0.816
REMARK  Name = 
REMARK  5 active torsions:
REMARK  status: ('A' for Active; 'I' for Inactive)
REMARK    1  A    between atoms: C_2  and  C_4
REMARK    2  A    between atoms: C_7  and  O_8
REMARK    3  A    between atoms: O_8  and  C_9
REMARK    4  A    between atoms: C_9  and  C_10
REMARK    5  A    between atoms: C_14  and  C_15
REMARK                            x       y       z     vdW  Elec       q    Type
REMARK                         _______ _______ _______ _____ _____    ______ ____
ROOT
ATOM      1  C   UNL     1      45.978   6.877  12.857  0.00  0.00    +0.000 C 
ENDROOT
BRANCH   1   2
ATOM      2  C   UNL     1      45.134   5.950  12.009  0.00  0.00    +0.000 A 
ATOM      3  C   UNL     1      43.746   5.922  12.174  0.00  0.00    +0.000 A 
ATOM      4  C   UNL     1      42.959   5.107  11.366  0.00  0.00    +0.000 A 
ATOM      5  C   UNL     1      43.551   4.325  10.371  0.00  0.00    +0.000 A 
ATOM      6  C   UNL     1      44.938   4.353  10.146  0.00  0.00    +0.000 A 
ATOM      7  C   UNL     1      45.710   5.178  10.985  0.00  0.00    +0.000 A 
BRANCH   6   8
ATOM      8  C   UNL     1      45.567   3.583   9.049  0.00  0.00    +0.000 A 
ATOM      9  C   UNL     1      46.118   4.213   7.923  0.00  0.00    +0.000 A 
ATOM     10  C   UNL     1      46.650   3.443   6.898  0.00  0.00    +0.000 A 
ATOM     11  N   UNL     1      46.689   2.098   6.913  0.00  0.00    +0.000 NA
ATOM     12  C   UNL     1      46.167   1.503   8.003  0.00  0.00    +0.000 A 
ATOM     13  F   UNL     1      46.189   0.163   8.045  0.00  0.00    +0.000 F 
ATOM     14  C   UNL     1      45.605   2.183   9.069  0.00  0.00    +0.000 A 
ENDBRANCH   6   8
ENDBRANCH   1   2
BRANCH   1  15
ATOM     15  O   UNL     1      47.321   6.388  12.944  0.00  0.00    +0.000 OA
BRANCH  15  19
ATOM     16  C   UNL     1      48.112   4.734  16.629  0.00  0.00    +0.000 A 
ATOM     17  C   UNL     1      47.165   4.138  15.792  0.00  0.00    +0.000 A 
ATOM     18  C   UNL     1      46.903   4.710  14.546  0.00  0.00    +0.000 A 
ATOM     19  C   UNL     1      47.601   5.854  14.184  0.00  0.00    +0.000 A 
ATOM     20  N   UNL     1      48.515   6.453  14.974  0.00  0.00    +0.000 NA
ATOM     21  C   UNL     1      48.743   5.887  16.183  0.00  0.00    +0.000 A 
BRANCH  16  23
ATOM     22  N   UNL     1      47.595   4.491  18.990  0.00  0.00    +0.000 N 
ATOM     23  C   UNL     1      48.459   4.217  17.969  0.00  0.00    +0.000 C 
ATOM     24  O   UNL     1      49.456   3.533  18.147  0.00  0.00    +0.000 OA
ATOM     25  H   UNL     1      47.790   4.029  19.870  0.00  0.00    +0.000 HD
ATOM     26  H   UNL     1      46.653   4.821  18.838  0.00  0.00    +0.000 HD
ENDBRANCH  16  23
ENDBRANCH  15  19
ENDBRANCH   1  15
TORSDOF 5
ENDMDL
