MODEL 1
REMARK VINA RESULT:    -8.653      0.000      0.000
REMARK INTER + INTRA:         -13.330
REMARK INTER:                 -12.194
REMARK INTRA:                  -1.136
REMARK UNBOUND:                -1.136
REMARK  Name = 
REMARK  7 active torsions:
REMARK  status: ('A' for Active; 'I' for Inactive)
REMARK    1  A    between atoms: C_2  and  C_4
REMARK    2  A    between atoms: C_7  and  O_8
REMARK    3  A    between atoms: O_8  and  C_9
REMARK    4  A    between atoms: C_9  and  C_10
REMARK    5  A    between atoms: C_10  and  C_13
REMARK    6  A    between atoms: C_17  and  C_18
REMARK    7  A    between atoms: C_18  and  C_19
REMARK                            x       y       z     vdW  Elec       q    Type
REMARK                         _______ _______ _______ _____ _____    ______ ____
ROOT
ATOM      1  C   UNL     1      43.893   4.389  12.404  0.00  0.00    +0.000 C 
ATOM      2  F   UNL     1      42.904   5.071  13.054  0.00  0.00    +0.000 F 
ATOM      3  F   UNL     1      43.850   3.118  12.902  0.00  0.00    +0.000 F 
ENDROOT
BRANCH   1   4
ATOM      4  C   UNL     1      45.254   5.038  12.599  0.00  0.00    +0.000 A 
ATOM      5  C   UNL     1      45.761   5.929  11.647  0.00  0.00    +0.000 A 
ATOM      6  C   UNL     1      46.986   6.564  11.860  0.00  0.00    +0.000 A 
ATOM      7  C   UNL     1      47.703   6.332  13.038  0.00  0.00    +0.000 A 
ATOM      8  C   UNL     1      47.209   5.453  14.013  0.00  0.00    +0.000 A 
ATOM      9  C   UNL     1      45.991   4.801  13.774  0.00  0.00    +0.000 A 
BRANCH   8  10
ATOM     10  C   UNL     1      47.968   5.195  15.298  0.00  0.00    +0.000 C 
BRANCH  10  11
ATOM     11  C   UNL     1      47.234   4.199  16.195  0.00  0.00    +0.000 C 
ATOM     12  C   UNL     1      47.177   4.596  17.685  0.00  0.00    +0.000 C 
ATOM     13  N   UNL     1      47.665   3.269  18.070  0.00  0.00    +0.000 NA
ATOM     14  C   UNL     1      47.969   2.931  16.675  0.00  0.00    +0.000 C 
ATOM     15  H   UNL     1      46.956   2.674  18.497  0.00  0.00    +0.000 HD
ENDBRANCH  10  11
ENDBRANCH   8  10
ENDBRANCH   1   4
BRANCH   1  16
ATOM     16  C   UNL     1      43.570   4.352  10.907  0.00  0.00    +0.000 C 
BRANCH  16  17
ATOM     17  O   UNL     1      43.576   3.011  10.382  0.00  0.00    +0.000 OA
BRANCH  17  21
ATOM     18  C   UNL     1      46.446   2.624   7.454  0.00  0.00    +0.000 A 
ATOM     19  C   UNL     1      45.848   3.870   7.668  0.00  0.00    +0.000 A 
ATOM     20  C   UNL     1      44.872   3.997   8.659  0.00  0.00    +0.000 A 
ATOM     21  C   UNL     1      44.534   2.872   9.396  0.00  0.00    +0.000 A 
ATOM     22  N   UNL     1      45.093   1.658   9.200  0.00  0.00    +0.000 NA
ATOM     23  C   UNL     1      46.027   1.558   8.228  0.00  0.00    +0.000 A 
BRANCH  18  25
ATOM     24  N   UNL     1      47.504   3.191   5.343  0.00  0.00    +0.000 N 
ATOM     25  C   UNL     1      47.489   2.377   6.440  0.00  0.00    +0.000 C 
ATOM     26  O   UNL     1      48.342   1.507   6.597  0.00  0.00    +0.000 OA
ATOM     27  H   UNL     1      48.303   3.089   4.730  0.00  0.00    +0.000 HD
ATOM     28  H   UNL     1      47.004   4.068   5.317  0.00  0.00    +0.000 HD
ENDBRANCH  18  25
ENDBRANCH  17  21
ENDBRANCH  16  17
ENDBRANCH   1  16
TORSDOF 7
ENDMDL
MODEL 2
REMARK VINA RESULT:    -8.140      2.541      3.598
REMARK INTER + INTRA:         -12.607
REMARK INTER:                 -11.585
REMARK INTRA:                  -1.022
REMARK UNBOUND:                -1.136
REMARK  Name = 
REMARK  7 active torsions:
REMARK  status: ('A' for Active; 'I' for Inactive)
REMARK    1  A    between atoms: C_2  and  C_4
REMARK    2  A    between atoms: C_7  and  O_8
REMARK    3  A    between atoms: O_8  and  C_9
REMARK    4  A    between atoms: C_9  and  C_10
REMARK    5  A    between atoms: C_10  and  C_13
REMARK    6  A    between atoms: C_17  and  C_18
REMARK    7  A    between atoms: C_18  and  C_19
REMARK                            x       y       z     vdW  Elec       q    Type
REMARK                         _______ _______ _______ _____ _____    ______ ____
ROOT
ATOM      1  C   UNL     1      43.350   4.753  12.500  0.00  0.00    +0.000 C 
ATOM      2  F   UNL     1      42.458   5.767  12.293  0.00  0.00    +0.000 F 
ATOM      3  F   UNL     1      42.841   4.024  13.537  0.00  0.00    +0.000 F 
ENDROOT
BRANCH   1   4
ATOM      4  C   UNL     1      44.747   5.275  12.794  0.00  0.00    +0.000 A 
ATOM      5  C   UNL     1      45.752   4.409  13.239  0.00  0.00    +0.000 A 
ATOM      6  C   UNL     1      47.046   4.885  13.452  0.00  0.00    +0.000 A 
ATOM      7  C   UNL     1      47.354   6.225  13.201  0.00  0.00    +0.000 A 
ATOM      8  C   UNL     1      46.367   7.110  12.742  0.00  0.00    +0.000 A 
ATOM      9  C   UNL     1      45.064   6.625  12.558  0.00  0.00    +0.000 A 
BRANCH   8  10
ATOM     10  C   UNL     1      46.683   8.564  12.457  0.00  0.00    +0.000 C 
BRANCH  10  11
ATOM     11  C   UNL     1      48.168   8.865  12.647  0.00  0.00    +0.000 C 
ATOM     12  C   UNL     1      48.467  10.096  13.528  0.00  0.00    +0.000 C 
ATOM     13  N   UNL     1      49.372  10.625  12.504  0.00  0.00    +0.000 NA
ATOM     14  C   UNL     1      48.936   9.612  11.536  0.00  0.00    +0.000 C 
ATOM     15  H   UNL     1      50.359  10.567  12.751  0.00  0.00    +0.000 HD
ENDBRANCH  10  11
ENDBRANCH   8  10
ENDBRANCH   1   4
BRANCH   1  16
ATOM     16  C   UNL     1      43.402   3.873  11.247  0.00  0.00    +0.000 C 
BRANCH  16  17
ATOM     17  O   UNL     1      43.783   4.616  10.075  0.00  0.00    +0.000 OA
BRANCH  17  21
ATOM     18  C   UNL     1      46.417   2.448   7.768  0.00  0.00    +0.000 A 
ATOM     19  C   UNL     1      45.651   1.790   8.738  0.00  0.00    +0.000 A 
ATOM     20  C   UNL     1      44.762   2.530   9.521  0.00  0.00    +0.000 A 
ATOM     21  C   UNL     1      44.674   3.897   9.302  0.00  0.00    +0.000 A 
ATOM     22  N   UNL     1      45.410   4.552   8.378  0.00  0.00    +0.000 NA
ATOM     23  C   UNL     1      46.271   3.816   7.640  0.00  0.00    +0.000 A 
BRANCH  18  25
ATOM     24  N   UNL     1      48.474   2.480   6.480  0.00  0.00    +0.000 N 
ATOM     25  C   UNL     1      47.380   1.767   6.883  0.00  0.00    +0.000 C 
ATOM     26  O   UNL     1      47.234   0.591   6.559  0.00  0.00    +0.000 OA
ATOM     27  H   UNL     1      49.184   1.954   5.984  0.00  0.00    +0.000 HD
ATOM     28  H   UNL     1      48.760   3.332   6.939  0.00  0.00    +0.000 HD
ENDBRANCH  18  25
ENDBRANCH  17  21
ENDBRANCH  16  17
ENDBRANCH   1  16
TORSDOF 7
ENDMDL
MODEL 3
REMARK VINA RESULT:    -7.828      1.387      1.885
REMARK INTER + INTRA:         -12.167
REMARK INTER:                 -11.103
REMARK INTRA:                  -1.064
REMARK UNBOUND:                -1.136
REMARK  Name = 
REMARK  7 active torsions:
REMARK  status: ('A' for Active; 'I' for Inactive)
REMARK    1  A    between atoms: C_2  and  C_4
REMARK    2  A    between atoms: C_7  and  O_8
REMARK    3  A    between atoms: O_8  and  C_9
REMARK    4  A    between atoms: C_9  and  C_10
REMARK    5  A    between atoms: C_10  and  C_13
REMARK    6  A    between atoms: C_17  and  C_18
REMARK    7  A    between atoms: C_18  and  C_19
REMARK                            x       y       z     vdW  Elec       q    Type
REMARK                         _______ _______ _______ _____ _____    ______ ____
ROOT
ATOM      1  C   UNL     1      43.812   4.867  12.221  0.00  0.00    +0.000 C 
ATOM      2  F   UNL     1      42.684   5.216  12.910  0.00  0.00    +0.000 F 
ATOM      3  F   UNL     1      44.320   3.783  12.876  0.00  0.00    +0.000 F 
ENDROOT
BRANCH   1   4
ATOM      4  C   UNL     1      44.808   6.013  12.144  0.00  0.00    +0.000 A 
ATOM      5  C   UNL     1      44.409   7.276  11.692  0.00  0.00    +0.000 A 
ATOM      6  C   UNL     1      45.316   8.336  11.679  0.00  0.00    +0.000 A 
ATOM      7  C   UNL     1      46.623   8.151  12.138  0.00  0.00    +0.000 A 
ATOM      8  C   UNL     1      47.044   6.898  12.608  0.00  0.00    +0.000 A 
ATOM      9  C   UNL     1      46.130   5.834  12.591  0.00  0.00    +0.000 A 
BRANCH   8  10
ATOM     10  C   UNL     1      48.453   6.680  13.117  0.00  0.00    +0.000 C 
BRANCH  10  11
ATOM     11  C   UNL     1      48.569   6.998  14.607  0.00  0.00    +0.000 C 
ATOM     12  C   UNL     1      50.012   7.001  15.153  0.00  0.00    +0.000 C 
ATOM     13  N   UNL     1      49.611   6.118  16.252  0.00  0.00    +0.000 NA
ATOM     14  C   UNL     1      48.297   5.886  15.641  0.00  0.00    +0.000 C 
ATOM     15  H   UNL     1      49.571   6.578  17.161  0.00  0.00    +0.000 HD
ENDBRANCH  10  11
ENDBRANCH   8  10
ENDBRANCH   1   4
BRANCH   1  16
ATOM     16  C   UNL     1      43.418   4.455  10.800  0.00  0.00    +0.000 C 
BRANCH  16  17
ATOM     17  O   UNL     1      43.673   3.061  10.547  0.00  0.00    +0.000 OA
BRANCH  17  21
ATOM     18  C   UNL     1      46.405   2.619   7.498  0.00  0.00    +0.000 A 
ATOM     19  C   UNL     1      45.951   3.899   7.831  0.00  0.00    +0.000 A 
ATOM     20  C   UNL     1      45.021   4.044   8.863  0.00  0.00    +0.000 A 
ATOM     21  C   UNL     1      44.584   2.903   9.520  0.00  0.00    +0.000 A 
ATOM     22  N   UNL     1      45.003   1.659   9.208  0.00  0.00    +0.000 NA
ATOM     23  C   UNL     1      45.895   1.542   8.199  0.00  0.00    +0.000 A 
BRANCH  18  25
ATOM     24  N   UNL     1      47.350   3.149   5.325  0.00  0.00    +0.000 N 
ATOM     25  C   UNL     1      47.389   2.349   6.432  0.00  0.00    +0.000 C 
ATOM     26  O   UNL     1      48.241   1.472   6.553  0.00  0.00    +0.000 OA
ATOM     27  H   UNL     1      48.113   3.031   4.670  0.00  0.00    +0.000 HD
ATOM     28  H   UNL     1      46.859   4.030   5.315  0.00  0.00    +0.000 HD
ENDBRANCH  18  25
ENDBRANCH  17  21
ENDBRANCH  16  17
ENDBRANCH   1  16
TORSDOF 7
ENDMDL
MODEL 4
REMARK VINA RESULT:    -7.764      2.590      7.948
REMARK INTER + INTRA:         -12.076
REMARK INTER:                 -11.375
REMARK INTRA:                  -0.702
REMARK UNBOUND:                -1.136
REMARK  Name = 
REMARK  7 active torsions:
REMARK  status: ('A' for Active; 'I' for Inactive)
REMARK    1  A    between atoms: C_2  and  C_4
REMARK    2  A    between atoms: C_7  and  O_8
REMARK    3  A    between atoms: O_8  and  C_9
REMARK    4  A    between atoms: C_9  and  C_10
REMARK    5  A    between atoms: C_10  and  C_13
REMARK    6  A    between atoms: C_17  and  C_18
REMARK    7  A    between atoms: C_18  and  C_19
REMARK                            x       y       z     vdW  Elec       q    Type
REMARK                         _______ _______ _______ _____ _____    ______ ____
ROOT
ATOM      1  C   UNL     1      44.373   5.931  11.467  0.00  0.00    +0.000 C 
ATOM      2  F   UNL     1      43.038   6.173  11.631  0.00  0.00    +0.000 F 
ATOM      3  F   UNL     1      44.895   7.088  10.963  0.00  0.00    +0.000 F 
ENDROOT
BRANCH   1   4
ATOM      4  C   UNL     1      44.627   4.741  10.557  0.00  0.00    +0.000 A 
ATOM      5  C   UNL     1      44.006   3.511  10.802  0.00  0.00    +0.000 A 
ATOM      6  C   UNL     1      44.201   2.439   9.930  0.00  0.00    +0.000 A 
ATOM      7  C   UNL     1      44.998   2.593   8.792  0.00  0.00    +0.000 A 
ATOM      8  C   UNL     1      45.620   3.820   8.517  0.00  0.00    +0.000 A 
ATOM      9  C   UNL     1      45.439   4.881   9.416  0.00  0.00    +0.000 A 
BRANCH   8  10
ATOM     10  C   UNL     1      46.481   4.008   7.285  0.00  0.00    +0.000 C 
BRANCH  10  11
ATOM     11  C   UNL     1      46.710   2.689   6.550  0.00  0.00    +0.000 C 
ATOM     12  C   UNL     1      47.988   1.933   6.969  0.00  0.00    +0.000 C 
ATOM     13  N   UNL     1      48.380   1.792   5.564  0.00  0.00    +0.000 NA
ATOM     14  C   UNL     1      47.318   2.709   5.133  0.00  0.00    +0.000 C 
ATOM     15  H   UNL     1      48.284   0.844   5.199  0.00  0.00    +0.000 HD
ENDBRANCH  10  11
ENDBRANCH   8  10
ENDBRANCH   1   4
BRANCH   1  16
ATOM     16  C   UNL     1      45.000   5.653  12.836  0.00  0.00    +0.000 C 
BRANCH  16  17
ATOM     17  O   UNL     1      46.406   5.360  12.742  0.00  0.00    +0.000 OA
BRANCH  17  21
ATOM     18  C   UNL     1      48.045   4.845  16.485  0.00  0.00    +0.000 A 
ATOM     19  C   UNL     1      48.398   5.969  15.730  0.00  0.00    +0.000 A 
ATOM     20  C   UNL     1      47.843   6.138  14.459  0.00  0.00    +0.000 A 
ATOM     21  C   UNL     1      46.957   5.176  13.995  0.00  0.00    +0.000 A 
ATOM     22  N   UNL     1      46.610   4.081  14.705  0.00  0.00    +0.000 NA
ATOM     23  C   UNL     1      47.168   3.934  15.927  0.00  0.00    +0.000 A 
BRANCH  18  25
ATOM     24  N   UNL     1      47.754   4.875  18.895  0.00  0.00    +0.000 N 
ATOM     25  C   UNL     1      48.564   4.570  17.838  0.00  0.00    +0.000 C 
ATOM     26  O   UNL     1      49.659   4.041  18.009  0.00  0.00    +0.000 OA
ATOM     27  H   UNL     1      48.075   4.558  19.802  0.00  0.00    +0.000 HD
ATOM     28  H   UNL     1      46.765   5.047  18.784  0.00  0.00    +0.000 HD
ENDBRANCH  18  25
ENDBRANCH  17  21
ENDBRANCH  16  17
ENDBRANCH   1  16
TORSDOF 7
ENDMDL
MODEL 5
REMARK VINA RESULT:    -7.442      2.839      4.470
REMARK INTER + INTRA:         -11.624
REMARK INTER:                 -10.947
REMARK INTRA:                  -0.677
REMARK UNBOUND:                -1.136
REMARK  Name = 
REMARK  7 active torsions:
REMARK  status: ('A' for Active; 'I' for Inactive)
REMARK    1  A    between atoms: C_2  and  C_4
REMARK    2  A    between atoms: C_7  and  O_8
REMARK    3  A    between atoms: O_8  and  C_9
REMARK    4  A    between atoms: C_9  and  C_10
REMARK    5  A    between atoms: C_10  and  C_13
REMARK    6  A    between atoms: C_17  and  C_18
REMARK    7  A    between atoms: C_18  and  C_19
REMARK                            x       y       z     vdW  Elec       q    Type
REMARK                         _______ _______ _______ _____ _____    ______ ____
ROOT
ATOM      1  C   UNL     1      43.951   4.260  12.500  0.00  0.00    +0.000 C 
ATOM      2  F   UNL     1      42.935   4.465  13.391  0.00  0.00    +0.000 F 
ATOM      3  F   UNL     1      44.537   3.086  12.879  0.00  0.00    +0.000 F 
ENDROOT
BRANCH   1   4
ATOM      4  C   UNL     1      44.937   5.417  12.486  0.00  0.00    +0.000 A 
ATOM      5  C   UNL     1      46.315   5.177  12.448  0.00  0.00    +0.000 A 
ATOM      6  C   UNL     1      47.212   6.244  12.377  0.00  0.00    +0.000 A 
ATOM      7  C   UNL     1      46.739   7.559  12.320  0.00  0.00    +0.000 A 
ATOM      8  C   UNL     1      45.362   7.824  12.344  0.00  0.00    +0.000 A 
ATOM      9  C   UNL     1      44.473   6.744  12.442  0.00  0.00    +0.000 A 
BRANCH   8  10
ATOM     10  C   UNL     1      44.831   9.240  12.275  0.00  0.00    +0.000 C 
BRANCH  10  11
ATOM     11  C   UNL     1      44.284   9.570  10.887  0.00  0.00    +0.000 C 
ATOM     12  C   UNL     1      44.346  11.065  10.509  0.00  0.00    +0.000 C 
ATOM     13  N   UNL     1      42.935  11.036  10.116  0.00  0.00    +0.000 NA
ATOM     14  C   UNL     1      42.760   9.695  10.685  0.00  0.00    +0.000 C 
ATOM     15  H   UNL     1      42.784  11.083   9.108  0.00  0.00    +0.000 HD
ENDBRANCH  10  11
ENDBRANCH   8  10
ENDBRANCH   1   4
BRANCH   1  16
ATOM     16  C   UNL     1      43.358   4.094  11.098  0.00  0.00    +0.000 C 
BRANCH  16  17
ATOM     17  O   UNL     1      44.076   4.856  10.110  0.00  0.00    +0.000 OA
BRANCH  17  21
ATOM     18  C   UNL     1      46.450   2.422   7.786  0.00  0.00    +0.000 A 
ATOM     19  C   UNL     1      46.525   3.810   7.625  0.00  0.00    +0.000 A 
ATOM     20  C   UNL     1      45.715   4.632   8.413  0.00  0.00    +0.000 A 
ATOM     21  C   UNL     1      44.863   4.033   9.329  0.00  0.00    +0.000 A 
ATOM     22  N   UNL     1      44.769   2.696   9.493  0.00  0.00    +0.000 NA
ATOM     23  C   UNL     1      45.555   1.921   8.712  0.00  0.00    +0.000 A 
BRANCH  18  25
ATOM     24  N   UNL     1      48.300   1.963   6.282  0.00  0.00    +0.000 N 
ATOM     25  C   UNL     1      47.261   1.462   7.014  0.00  0.00    +0.000 C 
ATOM     26  O   UNL     1      47.044   0.254   7.064  0.00  0.00    +0.000 OA
ATOM     27  H   UNL     1      48.919   1.277   5.868  0.00  0.00    +0.000 HD
ATOM     28  H   UNL     1      48.667   2.891   6.434  0.00  0.00    +0.000 HD
ENDBRANCH  18  25
ENDBRANCH  17  21
ENDBRANCH  16  17
ENDBRANCH   1  16
TORSDOF 7
ENDMDL
MODEL 6
REMARK VINA RESULT:    -7.423      3.208      7.372
REMARK INTER + INTRA:         -11.597
REMARK INTER:                 -10.738
REMARK INTRA:                  -0.859
REMARK UNBOUND:                -1.136
REMARK  Name = 
REMARK  7 active torsions:
REMARK  status: ('A' for Active; 'I' for Inactive)
REMARK    1  A    between atoms: C_2  and  C_4
REMARK    2  A    between atoms: C_7  and  O_8
REMARK    3  A    between atoms: O_8  and  C_9
REMARK    4  A    between atoms: C_9  and  C_10
REMARK    5  A    between atoms: C_10  and  C_13
REMARK    6  A    between atoms: C_17  and  C_18
REMARK    7  A    between atoms: C_18  and  C_19
REMARK                            x       y       z     vdW  Elec       q    Type
REMARK                         _______ _______ _______ _____ _____    ______ ____
ROOT
ATOM      1  C   UNL     1      43.923   5.741  11.462  0.00  0.00    +0.000 C 
ATOM      2  F   UNL     1      43.372   5.332  12.644  0.00  0.00    +0.000 F 
ATOM      3  F   UNL     1      42.972   6.518  10.865  0.00  0.00    +0.000 F 
ENDROOT
BRANCH   1   4
ATOM      4  C   UNL     1      44.336   4.566  10.591  0.00  0.00    +0.000 A 
ATOM      5  C   UNL     1      43.819   3.287  10.828  0.00  0.00    +0.000 A 
ATOM      6  C   UNL     1      44.160   2.225   9.989  0.00  0.00    +0.000 A 
ATOM      7  C   UNL     1      45.000   2.436   8.892  0.00  0.00    +0.000 A 
ATOM      8  C   UNL     1      45.520   3.711   8.625  0.00  0.00    +0.000 A 
ATOM      9  C   UNL     1      45.193   4.764   9.492  0.00  0.00    +0.000 A 
BRANCH   8  10
ATOM     10  C   UNL     1      46.425   3.960   7.437  0.00  0.00    +0.000 C 
BRANCH  10  11
ATOM     11  C   UNL     1      46.668   2.683   6.636  0.00  0.00    +0.000 C 
ATOM     12  C   UNL     1      47.927   1.893   7.051  0.00  0.00    +0.000 C 
ATOM     13  N   UNL     1      48.362   1.828   5.653  0.00  0.00    +0.000 NA
ATOM     14  C   UNL     1      47.321   2.778   5.241  0.00  0.00    +0.000 C 
ATOM     15  H   UNL     1      48.271   0.904   5.232  0.00  0.00    +0.000 HD
ENDBRANCH  10  11
ENDBRANCH   8  10
ENDBRANCH   1   4
BRANCH   1  16
ATOM     16  C   UNL     1      45.157   6.598  11.759  0.00  0.00    +0.000 C 
BRANCH  16  17
ATOM     17  O   UNL     1      45.966   6.042  12.812  0.00  0.00    +0.000 OA
BRANCH  17  21
ATOM     18  C   UNL     1      49.705   7.769  12.822  0.00  0.00    +0.000 A 
ATOM     19  C   UNL     1      48.943   7.788  11.648  0.00  0.00    +0.000 A 
ATOM     20  C   UNL     1      47.677   7.198  11.648  0.00  0.00    +0.000 A 
ATOM     21  C   UNL     1      47.224   6.613  12.821  0.00  0.00    +0.000 A 
ATOM     22  N   UNL     1      47.947   6.576  13.961  0.00  0.00    +0.000 NA
ATOM     23  C   UNL     1      49.173   7.144  13.934  0.00  0.00    +0.000 A 
BRANCH  18  25
ATOM     24  N   UNL     1      51.830   7.955  13.981  0.00  0.00    +0.000 N 
ATOM     25  C   UNL     1      51.049   8.365  12.938  0.00  0.00    +0.000 C 
ATOM     26  O   UNL     1      51.470   9.163  12.104  0.00  0.00    +0.000 OA
ATOM     27  H   UNL     1      52.790   8.277  13.965  0.00  0.00    +0.000 HD
ATOM     28  H   UNL     1      51.627   7.119  14.509  0.00  0.00    +0.000 HD
ENDBRANCH  18  25
ENDBRANCH  17  21
ENDBRANCH  16  17
ENDBRANCH   1  16
TORSDOF 7
ENDMDL
MODEL 7
REMARK VINA RESULT:    -7.393      3.285      4.126
REMARK INTER + INTRA:         -11.554
REMARK INTER:                 -10.728
REMARK INTRA:                  -0.826
REMARK UNBOUND:                -1.136
REMARK  Name = 
REMARK  7 active torsions:
REMARK  status: ('A' for Active; 'I' for Inactive)
REMARK    1  A    between atoms: C_2  and  C_4
REMARK    2  A    between atoms: C_7  and  O_8
REMARK    3  A    between atoms: O_8  and  C_9
REMARK    4  A    between atoms: C_9  and  C_10
REMARK    5  A    between atoms: C_10  and  C_13
REMARK    6  A    between atoms: C_17  and  C_18
REMARK    7  A    between atoms: C_18  and  C_19
REMARK                            x       y       z     vdW  Elec       q    Type
REMARK                         _______ _______ _______ _____ _____    ______ ____
ROOT
ATOM      1  C   UNL     1      44.598   6.382  11.951  0.00  0.00    +0.000 C 
ATOM      2  F   UNL     1      43.542   6.846  11.219  0.00  0.00    +0.000 F 
ATOM      3  F   UNL     1      44.096   6.126  13.196  0.00  0.00    +0.000 F 
ENDROOT
BRANCH   1   4
ATOM      4  C   UNL     1      45.746   7.377  11.987  0.00  0.00    +0.000 A 
ATOM      5  C   UNL     1      45.497   8.748  12.110  0.00  0.00    +0.000 A 
ATOM      6  C   UNL     1      46.558   9.650  12.199  0.00  0.00    +0.000 A 
ATOM      7  C   UNL     1      47.878   9.188  12.189  0.00  0.00    +0.000 A 
ATOM      8  C   UNL     1      48.153   7.817  12.079  0.00  0.00    +0.000 A 
ATOM      9  C   UNL     1      47.078   6.924  11.963  0.00  0.00    +0.000 A 
BRANCH   8  10
ATOM     10  C   UNL     1      49.576   7.297  12.074  0.00  0.00    +0.000 C 
BRANCH  10  11
ATOM     11  C   UNL     1      50.509   8.217  11.290  0.00  0.00    +0.000 C 
ATOM     12  C   UNL     1      51.619   7.488  10.504  0.00  0.00    +0.000 C 
ATOM     13  N   UNL     1      52.630   8.378  11.082  0.00  0.00    +0.000 NA
ATOM     14  C   UNL     1      51.657   8.937  12.028  0.00  0.00    +0.000 C 
ATOM     15  H   UNL     1      53.009   9.059  10.424  0.00  0.00    +0.000 HD
ENDBRANCH  10  11
ENDBRANCH   8  10
ENDBRANCH   1   4
BRANCH   1  16
ATOM     16  C   UNL     1      45.094   5.072  11.333  0.00  0.00    +0.000 C 
BRANCH  16  17
ATOM     17  O   UNL     1      44.326   4.690  10.176  0.00  0.00    +0.000 OA
BRANCH  17  21
ATOM     18  C   UNL     1      46.683   2.804   7.374  0.00  0.00    +0.000 A 
ATOM     19  C   UNL     1      45.927   2.035   8.265  0.00  0.00    +0.000 A 
ATOM     20  C   UNL     1      45.132   2.678   9.216  0.00  0.00    +0.000 A 
ATOM     21  C   UNL     1      45.125   4.065   9.238  0.00  0.00    +0.000 A 
ATOM     22  N   UNL     1      45.853   4.826   8.393  0.00  0.00    +0.000 NA
ATOM     23  C   UNL     1      46.623   4.180   7.488  0.00  0.00    +0.000 A 
BRANCH  18  25
ATOM     24  N   UNL     1      47.800   3.004   5.228  0.00  0.00    +0.000 N 
ATOM     25  C   UNL     1      47.550   2.232   6.327  0.00  0.00    +0.000 C 
ATOM     26  O   UNL     1      48.068   1.126   6.458  0.00  0.00    +0.000 OA
ATOM     27  H   UNL     1      48.499   2.646   4.588  0.00  0.00    +0.000 HD
ATOM     28  H   UNL     1      47.622   3.998   5.216  0.00  0.00    +0.000 HD
ENDBRANCH  18  25
ENDBRANCH  17  21
ENDBRANCH  16  17
ENDBRANCH   1  16
TORSDOF 7
ENDMDL
MODEL 8
REMARK VINA RESULT:    -6.711      3.067      8.121
REMARK INTER + INTRA:         -10.593
REMARK INTER:                  -9.788
REMARK INTRA:                  -0.805
REMARK UNBOUND:                -1.136
REMARK  Name = 
REMARK  7 active torsions:
REMARK  status: ('A' for Active; 'I' for Inactive)
REMARK    1  A    between atoms: C_2  and  C_4
REMARK    2  A    between atoms: C_7  and  O_8
REMARK    3  A    between atoms: O_8  and  C_9
REMARK    4  A    between atoms: C_9  and  C_10
REMARK    5  A    between atoms: C_10  and  C_13
REMARK    6  A    between atoms: C_17  and  C_18
REMARK    7  A    between atoms: C_18  and  C_19
REMARK                            x       y       z     vdW  Elec       q    Type
REMARK                         _______ _______ _______ _____ _____    ______ ____
ROOT
ATOM      1  C   UNL     1      46.652   6.489  12.349  0.00  0.00    +0.000 C 
ATOM      2  F   UNL     1      46.332   7.572  13.118  0.00  0.00    +0.000 F 
ATOM      3  F   UNL     1      47.448   6.971  11.350  0.00  0.00    +0.000 F 
ENDROOT
BRANCH   1   4
ATOM      4  C   UNL     1      45.415   5.788  11.811  0.00  0.00    +0.000 A 
ATOM      5  C   UNL     1      44.170   5.969  12.425  0.00  0.00    +0.000 A 
ATOM      6  C   UNL     1      43.029   5.368  11.891  0.00  0.00    +0.000 A 
ATOM      7  C   UNL     1      43.118   4.601  10.726  0.00  0.00    +0.000 A 
ATOM      8  C   UNL     1      44.351   4.416  10.084  0.00  0.00    +0.000 A 
ATOM      9  C   UNL     1      45.494   5.003  10.646  0.00  0.00    +0.000 A 
BRANCH   8  10
ATOM     10  C   UNL     1      44.465   3.595   8.816  0.00  0.00    +0.000 C 
BRANCH  10  11
ATOM     11  C   UNL     1      45.903   3.147   8.563  0.00  0.00    +0.000 C 
ATOM     12  C   UNL     1      46.473   3.560   7.189  0.00  0.00    +0.000 C 
ATOM     13  N   UNL     1      46.911   2.183   6.944  0.00  0.00    +0.000 NA
ATOM     14  C   UNL     1      46.176   1.696   8.117  0.00  0.00    +0.000 C 
ATOM     15  H   UNL     1      47.921   2.052   7.002  0.00  0.00    +0.000 HD
ENDBRANCH  10  11
ENDBRANCH   8  10
ENDBRANCH   1   4
BRANCH   1  16
ATOM     16  C   UNL     1      47.455   5.497  13.196  0.00  0.00    +0.000 C 
BRANCH  16  17
ATOM     17  O   UNL     1      46.621   4.753  14.102  0.00  0.00    +0.000 OA
BRANCH  17  21
ATOM     18  C   UNL     1      48.426   4.390  17.786  0.00  0.00    +0.000 A 
ATOM     19  C   UNL     1      48.748   5.478  16.968  0.00  0.00    +0.000 A 
ATOM     20  C   UNL     1      48.136   5.596  15.717  0.00  0.00    +0.000 A 
ATOM     21  C   UNL     1      47.227   4.620  15.336  0.00  0.00    +0.000 A 
ATOM     22  N   UNL     1      46.910   3.558  16.106  0.00  0.00    +0.000 NA
ATOM     23  C   UNL     1      47.522   3.460  17.307  0.00  0.00    +0.000 A 
BRANCH  18  25
ATOM     24  N   UNL     1      48.334   3.328  19.967  0.00  0.00    +0.000 N 
ATOM     25  C   UNL     1      49.004   4.169  19.124  0.00  0.00    +0.000 C 
ATOM     26  O   UNL     1      50.072   4.681  19.454  0.00  0.00    +0.000 OA
ATOM     27  H   UNL     1      48.815   3.090  20.826  0.00  0.00    +0.000 HD
ATOM     28  H   UNL     1      47.623   2.691  19.639  0.00  0.00    +0.000 HD
ENDBRANCH  18  25
ENDBRANCH  17  21
ENDBRANCH  16  17
ENDBRANCH   1  16
TORSDOF 7
ENDMDL
MODEL 9
REMARK VINA RESULT:    -6.616      4.040      6.037
REMARK INTER + INTRA:         -10.460
REMARK INTER:                  -9.401
REMARK INTRA:                  -1.059
REMARK UNBOUND:                -1.136
REMARK  Name = 
REMARK  7 active torsions:
REMARK  status: ('A' for Active; 'I' for Inactive)
REMARK    1  A    between atoms: C_2  and  C_4
REMARK    2  A    between atoms: C_7  and  O_8
REMARK    3  A    between atoms: O_8  and  C_9
REMARK    4  A    between atoms: C_9  and  C_10
REMARK    5  A    between atoms: C_10  and  C_13
REMARK    6  A    between atoms: C_17  and  C_18
REMARK    7  A    between atoms: C_18  and  C_19
REMARK                            x       y       z     vdW  Elec       q    Type
REMARK                         _______ _______ _______ _____ _____    ______ ____
ROOT
ATOM      1  C   UNL     1      48.285   2.855  16.837  0.00  0.00    +0.000 C 
ATOM      2  F   UNL     1      47.642   2.472  17.980  0.00  0.00    +0.000 F 
ATOM      3  F   UNL     1      48.696   1.697  16.242  0.00  0.00    +0.000 F 
ENDROOT
BRANCH   1   4
ATOM      4  C   UNL     1      49.443   3.797  17.125  0.00  0.00    +0.000 A 
ATOM      5  C   UNL     1      50.689   3.294  17.517  0.00  0.00    +0.000 A 
ATOM      6  C   UNL     1      51.763   4.161  17.724  0.00  0.00    +0.000 A 
ATOM      7  C   UNL     1      51.608   5.535  17.519  0.00  0.00    +0.000 A 
ATOM      8  C   UNL     1      50.373   6.062  17.113  0.00  0.00    +0.000 A 
ATOM      9  C   UNL     1      49.295   5.183  16.935  0.00  0.00    +0.000 A 
BRANCH   8  10
ATOM     10  C   UNL     1      50.188   7.547  16.878  0.00  0.00    +0.000 C 
BRANCH  10  11
ATOM     11  C   UNL     1      48.724   7.898  16.620  0.00  0.00    +0.000 C 
ATOM     12  C   UNL     1      48.454   8.566  15.256  0.00  0.00    +0.000 C 
ATOM     13  N   UNL     1      47.700   9.636  15.915  0.00  0.00    +0.000 NA
ATOM     14  C   UNL     1      48.134   9.181  17.241  0.00  0.00    +0.000 C 
ATOM     15  H   UNL     1      46.693   9.587  15.768  0.00  0.00    +0.000 HD
ENDBRANCH  10  11
ENDBRANCH   8  10
ENDBRANCH   1   4
BRANCH   1  16
ATOM     16  C   UNL     1      47.285   3.563  15.918  0.00  0.00    +0.000 C 
BRANCH  16  17
ATOM     17  O   UNL     1      47.526   3.276  14.527  0.00  0.00    +0.000 OA
BRANCH  17  21
ATOM     18  C   UNL     1      44.778   5.185  12.126  0.00  0.00    +0.000 A 
ATOM     19  C   UNL     1      45.633   5.946  12.930  0.00  0.00    +0.000 A 
ATOM     20  C   UNL     1      46.561   5.295  13.746  0.00  0.00    +0.000 A 
ATOM     21  C   UNL     1      46.597   3.909  13.725  0.00  0.00    +0.000 A 
ATOM     22  N   UNL     1      45.775   3.155  12.963  0.00  0.00    +0.000 NA
ATOM     23  C   UNL     1      44.879   3.807  12.189  0.00  0.00    +0.000 A 
BRANCH  18  25
ATOM     24  N   UNL     1      43.562   7.114  11.294  0.00  0.00    +0.000 N 
ATOM     25  C   UNL     1      43.767   5.765  11.223  0.00  0.00    +0.000 C 
ATOM     26  O   UNL     1      43.166   5.074  10.404  0.00  0.00    +0.000 OA
ATOM     27  H   UNL     1      42.962   7.507  10.579  0.00  0.00    +0.000 HD
ATOM     28  H   UNL     1      44.217   7.735  11.746  0.00  0.00    +0.000 HD
ENDBRANCH  18  25
ENDBRANCH  17  21
ENDBRANCH  16  17
ENDBRANCH   1  16
TORSDOF 7
ENDMDL
