MODEL 1
REMARK VINA RESULT:    -8.357      0.000      0.000
REMARK INTER + INTRA:         -10.502
REMARK INTER:                  -9.823
REMARK INTRA:                  -0.679
REMARK UNBOUND:                -0.679
REMARK  Name = 
REMARK  4 active torsions:
REMARK  status: ('A' for Active; 'I' for Inactive)
REMARK    1  A    between atoms: C_1  and  C_2
REMARK    2  A    between atoms: N_6  and  C_7
REMARK    3  A    between atoms: C_7  and  C_8
REMARK    4  A    between atoms: C_12  and  C_13
REMARK                            x       y       z     vdW  Elec       q    Type
REMARK                         _______ _______ _______ _____ _____    ______ ____
ROOT
ATOM      1  C   UNL     1      44.913   4.127  11.489  0.00  0.00    +0.000 A 
ATOM      2  C   UNL     1      45.424   3.285  12.480  0.00  0.00    +0.000 A 
ATOM      3  C   UNL     1      46.400   3.752  13.357  0.00  0.00    +0.000 A 
ATOM      4  C   UNL     1      46.872   5.065  13.252  0.00  0.00    +0.000 A 
ATOM      5  C   UNL     1      46.385   5.944  12.269  0.00  0.00    +0.000 A 
ATOM      6  C   UNL     1      45.387   5.450  11.408  0.00  0.00    +0.000 A 
ENDROOT
BRANCH   5   7
ATOM      7  C   UNL     1      46.920   7.319  12.119  0.00  0.00    +0.000 A 
ATOM      8  C   UNL     1      48.294   7.560  11.917  0.00  0.00    +0.000 A 
ATOM      9  C   UNL     1      48.806   8.858  11.801  0.00  0.00    +0.000 A 
ATOM     10  C   UNL     1      47.948   9.951  11.874  0.00  0.00    +0.000 A 
ATOM     11  C   UNL     1      46.593   9.733  12.070  0.00  0.00    +0.000 A 
ATOM     12  F   UNL     1      45.761  10.782  12.143  0.00  0.00    +0.000 F 
ATOM     13  C   UNL     1      46.080   8.445  12.198  0.00  0.00    +0.000 A 
ENDBRANCH   5   7
BRANCH   1  14
ATOM     14  C   UNL     1      43.906   3.629  10.477  0.00  0.00    +0.000 C 
BRANCH  14  20
ATOM     15  C   UNL     1      47.649   2.446   5.549  0.00  0.00    +0.000 C 
ATOM     16  C   UNL     1      46.730   2.380   6.719  0.00  0.00    +0.000 A 
ATOM     17  C   UNL     1      46.772   1.390   7.673  0.00  0.00    +0.000 A 
ATOM     18  N   UNL     1      45.964   1.350   8.755  0.00  0.00    +0.000 NA
ATOM     19  C   UNL     1      45.065   2.335   8.877  0.00  0.00    +0.000 A 
ATOM     20  N   UNL     1      44.251   2.303  10.006  0.00  0.00    +0.000 N 
ATOM     21  N   UNL     1      44.938   3.336   7.995  0.00  0.00    +0.000 NA
ATOM     22  C   UNL     1      45.769   3.336   6.940  0.00  0.00    +0.000 A 
ATOM     23  H   UNL     1      44.708   1.703  10.684  0.00  0.00    +0.000 HD
ENDBRANCH  14  20
ENDBRANCH   1  14
TORSDOF 3
ENDMDL
MODEL 2
REMARK VINA RESULT:    -8.249      4.179      7.565
REMARK INTER + INTRA:         -10.375
REMARK INTER:                  -9.851
REMARK INTRA:                  -0.524
REMARK UNBOUND:                -0.679
REMARK  Name = 
REMARK  4 active torsions:
REMARK  status: ('A' for Active; 'I' for Inactive)
REMARK    1  A    between atoms: C_1  and  C_2
REMARK    2  A    between atoms: N_6  and  C_7
REMARK    3  A    between atoms: C_7  and  C_8
REMARK    4  A    between atoms: C_12  and  C_13
REMARK                            x       y       z     vdW  Elec       q    Type
REMARK                         _______ _______ _______ _____ _____    ______ ____
ROOT
ATOM      1  C   UNL     1      45.000   4.580  12.360  0.00  0.00    +0.000 A 
ATOM      2  C   UNL     1      43.725   5.128  12.201  0.00  0.00    +0.000 A 
ATOM      3  C   UNL     1      43.069   5.026  10.976  0.00  0.00    +0.000 A 
ATOM      4  C   UNL     1      43.683   4.375   9.900  0.00  0.00    +0.000 A 
ATOM      5  C   UNL     1      44.965   3.811  10.018  0.00  0.00    +0.000 A 
ATOM      6  C   UNL     1      45.595   3.913  11.273  0.00  0.00    +0.000 A 
ENDROOT
BRANCH   5   7
ATOM      7  C   UNL     1      45.642   3.167   8.866  0.00  0.00    +0.000 A 
ATOM      8  C   UNL     1      46.105   3.917   7.766  0.00  0.00    +0.000 A 
ATOM      9  C   UNL     1      46.720   3.309   6.665  0.00  0.00    +0.000 A 
ATOM     10  C   UNL     1      46.899   1.930   6.645  0.00  0.00    +0.000 A 
ATOM     11  C   UNL     1      46.453   1.176   7.719  0.00  0.00    +0.000 A 
ATOM     12  F   UNL     1      46.619  -0.154   7.705  0.00  0.00    +0.000 F 
ATOM     13  C   UNL     1      45.828   1.773   8.812  0.00  0.00    +0.000 A 
ENDBRANCH   5   7
BRANCH   1  14
ATOM     14  C   UNL     1      45.767   4.736  13.654  0.00  0.00    +0.000 C 
BRANCH  14  20
ATOM     15  C   UNL     1      49.567   4.088  18.637  0.00  0.00    +0.000 C 
ATOM     16  C   UNL     1      48.850   3.972  17.337  0.00  0.00    +0.000 A 
ATOM     17  C   UNL     1      48.563   2.774  16.724  0.00  0.00    +0.000 A 
ATOM     18  N   UNL     1      47.880   2.665  15.563  0.00  0.00    +0.000 NA
ATOM     19  C   UNL     1      47.482   3.806  14.984  0.00  0.00    +0.000 A 
ATOM     20  N   UNL     1      46.757   3.689  13.802  0.00  0.00    +0.000 N 
ATOM     21  N   UNL     1      47.724   5.021  15.497  0.00  0.00    +0.000 NA
ATOM     22  C   UNL     1      48.400   5.076  16.656  0.00  0.00    +0.000 A 
ATOM     23  H   UNL     1      46.400   2.739  13.766  0.00  0.00    +0.000 HD
ENDBRANCH  14  20
ENDBRANCH   1  14
TORSDOF 3
ENDMDL
MODEL 3
REMARK VINA RESULT:    -8.196      1.441      1.794
REMARK INTER + INTRA:         -10.312
REMARK INTER:                  -9.646
REMARK INTRA:                  -0.667
REMARK UNBOUND:                -0.679
REMARK  Name = 
REMARK  4 active torsions:
REMARK  status: ('A' for Active; 'I' for Inactive)
REMARK    1  A    between atoms: C_1  and  C_2
REMARK    2  A    between atoms: N_6  and  C_7
REMARK    3  A    between atoms: C_7  and  C_8
REMARK    4  A    between atoms: C_12  and  C_13
REMARK                            x       y       z     vdW  Elec       q    Type
REMARK                         _______ _______ _______ _____ _____    ______ ____
ROOT
ATOM      1  C   UNL     1      44.980   4.935  11.322  0.00  0.00    +0.000 A 
ATOM      2  C   UNL     1      45.213   4.047  12.376  0.00  0.00    +0.000 A 
ATOM      3  C   UNL     1      46.212   4.318  13.308  0.00  0.00    +0.000 A 
ATOM      4  C   UNL     1      46.985   5.479  13.196  0.00  0.00    +0.000 A 
ATOM      5  C   UNL     1      46.784   6.397  12.151  0.00  0.00    +0.000 A 
ATOM      6  C   UNL     1      45.756   6.106  11.234  0.00  0.00    +0.000 A 
ENDROOT
BRANCH   5   7
ATOM      7  C   UNL     1      47.636   7.601  11.997  0.00  0.00    +0.000 A 
ATOM      8  C   UNL     1      47.108   8.902  12.121  0.00  0.00    +0.000 A 
ATOM      9  C   UNL     1      47.905  10.041  11.949  0.00  0.00    +0.000 A 
ATOM     10  C   UNL     1      49.258   9.903  11.659  0.00  0.00    +0.000 A 
ATOM     11  C   UNL     1      49.796   8.631  11.536  0.00  0.00    +0.000 A 
ATOM     12  F   UNL     1      51.099   8.491  11.254  0.00  0.00    +0.000 F 
ATOM     13  C   UNL     1      49.006   7.494  11.693  0.00  0.00    +0.000 A 
ENDBRANCH   5   7
BRANCH   1  14
ATOM     14  C   UNL     1      43.953   4.635  10.255  0.00  0.00    +0.000 C 
BRANCH  14  20
ATOM     15  C   UNL     1      47.868   2.184   5.970  0.00  0.00    +0.000 C 
ATOM     16  C   UNL     1      46.816   2.441   6.992  0.00  0.00    +0.000 A 
ATOM     17  C   UNL     1      46.459   1.539   7.969  0.00  0.00    +0.000 A 
ATOM     18  N   UNL     1      45.531   1.785   8.919  0.00  0.00    +0.000 NA
ATOM     19  C   UNL     1      44.924   2.978   8.880  0.00  0.00    +0.000 A 
ATOM     20  N   UNL     1      43.987   3.237   9.876  0.00  0.00    +0.000 N 
ATOM     21  N   UNL     1      45.193   3.917   7.962  0.00  0.00    +0.000 NA
ATOM     22  C   UNL     1      46.129   3.628   7.043  0.00  0.00    +0.000 A 
ATOM     23  H   UNL     1      44.168   2.582  10.631  0.00  0.00    +0.000 HD
ENDBRANCH  14  20
ENDBRANCH   1  14
TORSDOF 3
ENDMDL
MODEL 4
REMARK VINA RESULT:    -8.077      3.716      7.138
REMARK INTER + INTRA:         -10.173
REMARK INTER:                  -9.656
REMARK INTRA:                  -0.517
REMARK UNBOUND:                -0.679
REMARK  Name = 
REMARK  4 active torsions:
REMARK  status: ('A' for Active; 'I' for Inactive)
REMARK    1  A    between atoms: C_1  and  C_2
REMARK    2  A    between atoms: N_6  and  C_7
REMARK    3  A    between atoms: C_7  and  C_8
REMARK    4  A    between atoms: C_12  and  C_13
REMARK                            x       y       z     vdW  Elec       q    Type
REMARK                         _______ _______ _______ _____ _____    ______ ____
ROOT
ATOM      1  C   UNL     1      44.251   5.447  11.098  0.00  0.00    +0.000 A 
ATOM      2  C   UNL     1      43.368   4.652  11.833  0.00  0.00    +0.000 A 
ATOM      3  C   UNL     1      43.243   3.296  11.543  0.00  0.00    +0.000 A 
ATOM      4  C   UNL     1      44.000   2.722  10.515  0.00  0.00    +0.000 A 
ATOM      5  C   UNL     1      44.898   3.486   9.751  0.00  0.00    +0.000 A 
ATOM      6  C   UNL     1      45.017   4.850  10.079  0.00  0.00    +0.000 A 
ENDROOT
BRANCH   5   7
ATOM      7  C   UNL     1      45.663   2.895   8.625  0.00  0.00    +0.000 A 
ATOM      8  C   UNL     1      46.136   3.683   7.558  0.00  0.00    +0.000 A 
ATOM      9  C   UNL     1      46.835   3.124   6.481  0.00  0.00    +0.000 A 
ATOM     10  C   UNL     1      47.088   1.756   6.454  0.00  0.00    +0.000 A 
ATOM     11  C   UNL     1      46.632   0.965   7.497  0.00  0.00    +0.000 A 
ATOM     12  F   UNL     1      46.869  -0.354   7.475  0.00  0.00    +0.000 F 
ATOM     13  C   UNL     1      45.925   1.514   8.564  0.00  0.00    +0.000 A 
ENDBRANCH   5   7
BRANCH   1  14
ATOM     14  C   UNL     1      44.358   6.935  11.340  0.00  0.00    +0.000 C 
BRANCH  14  20
ATOM     15  C   UNL     1      50.107   9.141  12.676  0.00  0.00    +0.000 C 
ATOM     16  C   UNL     1      48.715   8.610  12.705  0.00  0.00    +0.000 A 
ATOM     17  C   UNL     1      47.768   8.993  13.627  0.00  0.00    +0.000 A 
ATOM     18  N   UNL     1      46.495   8.541  13.632  0.00  0.00    +0.000 NA
ATOM     19  C   UNL     1      46.161   7.656  12.684  0.00  0.00    +0.000 A 
ATOM     20  N   UNL     1      44.842   7.212  12.677  0.00  0.00    +0.000 N 
ATOM     21  N   UNL     1      47.016   7.212  11.751  0.00  0.00    +0.000 NA
ATOM     22  C   UNL     1      48.268   7.697  11.783  0.00  0.00    +0.000 A 
ATOM     23  H   UNL     1      44.301   7.885  13.210  0.00  0.00    +0.000 HD
ENDBRANCH  14  20
ENDBRANCH   1  14
TORSDOF 3
ENDMDL
MODEL 5
REMARK VINA RESULT:    -7.480      2.767      3.946
REMARK INTER + INTRA:          -9.471
REMARK INTER:                  -8.978
REMARK INTRA:                  -0.492
REMARK UNBOUND:                -0.679
REMARK  Name = 
REMARK  4 active torsions:
REMARK  status: ('A' for Active; 'I' for Inactive)
REMARK    1  A    between atoms: C_1  and  C_2
REMARK    2  A    between atoms: N_6  and  C_7
REMARK    3  A    between atoms: C_7  and  C_8
REMARK    4  A    between atoms: C_12  and  C_13
REMARK                            x       y       z     vdW  Elec       q    Type
REMARK                         _______ _______ _______ _____ _____    ______ ____
ROOT
ATOM      1  C   UNL     1      45.195   4.928  11.584  0.00  0.00    +0.000 A 
ATOM      2  C   UNL     1      45.769   5.943  10.812  0.00  0.00    +0.000 A 
ATOM      3  C   UNL     1      46.854   6.664  11.305  0.00  0.00    +0.000 A 
ATOM      4  C   UNL     1      47.375   6.377  12.571  0.00  0.00    +0.000 A 
ATOM      5  C   UNL     1      46.827   5.366  13.379  0.00  0.00    +0.000 A 
ATOM      6  C   UNL     1      45.743   4.642  12.848  0.00  0.00    +0.000 A 
ENDROOT
BRANCH   5   7
ATOM      7  C   UNL     1      47.341   5.094  14.744  0.00  0.00    +0.000 A 
ATOM      8  C   UNL     1      48.241   5.970  15.383  0.00  0.00    +0.000 A 
ATOM      9  C   UNL     1      48.749   5.703  16.660  0.00  0.00    +0.000 A 
ATOM     10  C   UNL     1      48.355   4.552  17.336  0.00  0.00    +0.000 A 
ATOM     11  C   UNL     1      47.468   3.681  16.724  0.00  0.00    +0.000 A 
ATOM     12  F   UNL     1      47.086   2.569  17.368  0.00  0.00    +0.000 F 
ATOM     13  C   UNL     1      46.969   3.935  15.448  0.00  0.00    +0.000 A 
ENDBRANCH   5   7
BRANCH   1  14
ATOM     14  C   UNL     1      43.973   4.176  11.109  0.00  0.00    +0.000 C 
BRANCH  14  20
ATOM     15  C   UNL     1      46.867   2.748   5.698  0.00  0.00    +0.000 C 
ATOM     16  C   UNL     1      46.174   2.741   7.016  0.00  0.00    +0.000 A 
ATOM     17  C   UNL     1      46.448   1.844   8.022  0.00  0.00    +0.000 A 
ATOM     18  N   UNL     1      45.846   1.859   9.231  0.00  0.00    +0.000 NA
ATOM     19  C   UNL     1      44.918   2.804   9.435  0.00  0.00    +0.000 A 
ATOM     20  N   UNL     1      44.319   2.832  10.691  0.00  0.00    +0.000 N 
ATOM     21  N   UNL     1      44.572   3.713   8.513  0.00  0.00    +0.000 NA
ATOM     22  C   UNL     1      45.205   3.661   7.330  0.00  0.00    +0.000 A 
ATOM     23  H   UNL     1      44.926   2.319  11.321  0.00  0.00    +0.000 HD
ENDBRANCH  14  20
ENDBRANCH   1  14
TORSDOF 3
ENDMDL
MODEL 6
REMARK VINA RESULT:    -7.153      4.241      7.700
REMARK INTER + INTRA:          -9.087
REMARK INTER:                  -8.571
REMARK INTRA:                  -0.517
REMARK UNBOUND:                -0.679
REMARK  Name = 
REMARK  4 active torsions:
REMARK  status: ('A' for Active; 'I' for Inactive)
REMARK    1  A    between atoms: C_1  and  C_2
REMARK    2  A    between atoms: N_6  and  C_7
REMARK    3  A    between atoms: C_7  and  C_8
REMARK    4  A    between atoms: C_12  and  C_13
REMARK                            x       y       z     vdW  Elec       q    Type
REMARK                         _______ _______ _______ _____ _____    ______ ____
ROOT
ATOM      1  C   UNL     1      45.099   6.150  11.901  0.00  0.00    +0.000 A 
ATOM      2  C   UNL     1      43.729   6.026  12.145  0.00  0.00    +0.000 A 
ATOM      3  C   UNL     1      42.966   5.132  11.398  0.00  0.00    +0.000 A 
ATOM      4  C   UNL     1      43.566   4.353  10.401  0.00  0.00    +0.000 A 
ATOM      5  C   UNL     1      44.940   4.448  10.124  0.00  0.00    +0.000 A 
ATOM      6  C   UNL     1      45.690   5.347  10.907  0.00  0.00    +0.000 A 
ENDROOT
BRANCH   5   7
ATOM      7  C   UNL     1      45.571   3.665   9.033  0.00  0.00    +0.000 A 
ATOM      8  C   UNL     1      46.175   4.293   7.926  0.00  0.00    +0.000 A 
ATOM      9  C   UNL     1      46.748   3.557   6.882  0.00  0.00    +0.000 A 
ATOM     10  C   UNL     1      46.740   2.167   6.928  0.00  0.00    +0.000 A 
ATOM     11  C   UNL     1      46.153   1.531   8.012  0.00  0.00    +0.000 A 
ATOM     12  F   UNL     1      46.139   0.192   8.061  0.00  0.00    +0.000 F 
ATOM     13  C   UNL     1      45.570   2.258   9.047  0.00  0.00    +0.000 A 
ENDBRANCH   5   7
BRANCH   1  14
ATOM     14  C   UNL     1      45.942   7.161  12.644  0.00  0.00    +0.000 C 
BRANCH  14  20
ATOM     15  C   UNL     1      49.730   8.785  17.410  0.00  0.00    +0.000 C 
ATOM     16  C   UNL     1      49.115   8.229  16.172  0.00  0.00    +0.000 A 
ATOM     17  C   UNL     1      49.383   6.973  15.680  0.00  0.00    +0.000 A 
ATOM     18  N   UNL     1      48.798   6.454  14.579  0.00  0.00    +0.000 NA
ATOM     19  C   UNL     1      47.918   7.233  13.934  0.00  0.00    +0.000 A 
ATOM     20  N   UNL     1      47.299   6.685  12.815  0.00  0.00    +0.000 N 
ATOM     21  N   UNL     1      47.601   8.474  14.328  0.00  0.00    +0.000 NA
ATOM     22  C   UNL     1      48.203   8.942  15.433  0.00  0.00    +0.000 A 
ATOM     23  H   UNL     1      47.405   5.678  12.880  0.00  0.00    +0.000 HD
ENDBRANCH  14  20
ENDBRANCH   1  14
TORSDOF 3
ENDMDL
MODEL 7
REMARK VINA RESULT:    -6.916      4.289      7.618
REMARK INTER + INTRA:          -8.808
REMARK INTER:                  -8.298
REMARK INTRA:                  -0.510
REMARK UNBOUND:                -0.679
REMARK  Name = 
REMARK  4 active torsions:
REMARK  status: ('A' for Active; 'I' for Inactive)
REMARK    1  A    between atoms: C_1  and  C_2
REMARK    2  A    between atoms: N_6  and  C_7
REMARK    3  A    between atoms: C_7  and  C_8
REMARK    4  A    between atoms: C_12  and  C_13
REMARK                            x       y       z     vdW  Elec       q    Type
REMARK                         _______ _______ _______ _____ _____    ______ ____
ROOT
ATOM      1  C   UNL     1      47.207   7.127  12.909  0.00  0.00    +0.000 A 
ATOM      2  C   UNL     1      46.443   8.297  12.901  0.00  0.00    +0.000 A 
ATOM      3  C   UNL     1      45.288   8.370  12.126  0.00  0.00    +0.000 A 
ATOM      4  C   UNL     1      44.887   7.275  11.353  0.00  0.00    +0.000 A 
ATOM      5  C   UNL     1      45.628   6.080  11.332  0.00  0.00    +0.000 A 
ATOM      6  C   UNL     1      46.780   6.029  12.139  0.00  0.00    +0.000 A 
ENDROOT
BRANCH   5   7
ATOM      7  C   UNL     1      45.237   4.936  10.473  0.00  0.00    +0.000 A 
ATOM      8  C   UNL     1      44.493   3.852  10.978  0.00  0.00    +0.000 A 
ATOM      9  C   UNL     1      44.146   2.758  10.176  0.00  0.00    +0.000 A 
ATOM     10  C   UNL     1      44.528   2.729   8.839  0.00  0.00    +0.000 A 
ATOM     11  C   UNL     1      45.258   3.789   8.323  0.00  0.00    +0.000 A 
ATOM     12  F   UNL     1      45.631   3.767   7.036  0.00  0.00    +0.000 F 
ATOM     13  C   UNL     1      45.616   4.874   9.119  0.00  0.00    +0.000 A 
ENDBRANCH   5   7
BRANCH   1  14
ATOM     14  C   UNL     1      48.502   7.040  13.684  0.00  0.00    +0.000 C 
BRANCH  14  20
ATOM     15  C   UNL     1      48.481   2.936  18.464  0.00  0.00    +0.000 C 
ATOM     16  C   UNL     1      48.409   4.135  17.583  0.00  0.00    +0.000 A 
ATOM     17  C   UNL     1      48.841   5.387  17.955  0.00  0.00    +0.000 A 
ATOM     18  N   UNL     1      48.810   6.467  17.144  0.00  0.00    +0.000 NA
ATOM     19  C   UNL     1      48.310   6.288  15.914  0.00  0.00    +0.000 A 
ATOM     20  N   UNL     1      48.304   7.398  15.074  0.00  0.00    +0.000 N 
ATOM     21  N   UNL     1      47.853   5.111  15.464  0.00  0.00    +0.000 NA
ATOM     22  C   UNL     1      47.912   4.066  16.305  0.00  0.00    +0.000 A 
ATOM     23  H   UNL     1      48.969   8.062  15.455  0.00  0.00    +0.000 HD
ENDBRANCH  14  20
ENDBRANCH   1  14
TORSDOF 3
ENDMDL
MODEL 8
REMARK VINA RESULT:    -6.785      4.342      7.790
REMARK INTER + INTRA:          -8.654
REMARK INTER:                  -8.007
REMARK INTRA:                  -0.647
REMARK UNBOUND:                -0.679
REMARK  Name = 
REMARK  4 active torsions:
REMARK  status: ('A' for Active; 'I' for Inactive)
REMARK    1  A    between atoms: C_1  and  C_2
REMARK    2  A    between atoms: N_6  and  C_7
REMARK    3  A    between atoms: C_7  and  C_8
REMARK    4  A    between atoms: C_12  and  C_13
REMARK                            x       y       z     vdW  Elec       q    Type
REMARK                         _______ _______ _______ _____ _____    ______ ____
ROOT
ATOM      1  C   UNL     1      47.412   7.839  12.141  0.00  0.00    +0.000 A 
ATOM      2  C   UNL     1      46.462   8.816  12.448  0.00  0.00    +0.000 A 
ATOM      3  C   UNL     1      45.121   8.610  12.131  0.00  0.00    +0.000 A 
ATOM      4  C   UNL     1      44.719   7.424  11.506  0.00  0.00    +0.000 A 
ATOM      5  C   UNL     1      45.643   6.416  11.179  0.00  0.00    +0.000 A 
ATOM      6  C   UNL     1      46.987   6.645  11.528  0.00  0.00    +0.000 A 
ENDROOT
BRANCH   5   7
ATOM      7  C   UNL     1      45.230   5.182  10.468  0.00  0.00    +0.000 A 
ATOM      8  C   UNL     1      44.502   4.164  11.114  0.00  0.00    +0.000 A 
ATOM      9  C   UNL     1      44.134   2.986  10.452  0.00  0.00    +0.000 A 
ATOM     10  C   UNL     1      44.479   2.804   9.117  0.00  0.00    +0.000 A 
ATOM     11  C   UNL     1      45.194   3.796   8.464  0.00  0.00    +0.000 A 
ATOM     12  F   UNL     1      45.532   3.626   7.178  0.00  0.00    +0.000 F 
ATOM     13  C   UNL     1      45.573   4.965   9.120  0.00  0.00    +0.000 A 
ENDBRANCH   5   7
BRANCH   1  14
ATOM     14  C   UNL     1      48.883   8.062  12.407  0.00  0.00    +0.000 C 
BRANCH  14  20
ATOM     15  C   UNL     1      48.417   7.669  18.678  0.00  0.00    +0.000 C 
ATOM     16  C   UNL     1      48.720   7.476  17.233  0.00  0.00    +0.000 A 
ATOM     17  C   UNL     1      48.800   6.244  16.624  0.00  0.00    +0.000 A 
ATOM     18  N   UNL     1      49.037   6.069  15.306  0.00  0.00    +0.000 NA
ATOM     19  C   UNL     1      49.218   7.173  14.569  0.00  0.00    +0.000 A 
ATOM     20  N   UNL     1      49.437   6.989  13.207  0.00  0.00    +0.000 N 
ATOM     21  N   UNL     1      49.172   8.415  15.072  0.00  0.00    +0.000 NA
ATOM     22  C   UNL     1      48.925   8.537  16.387  0.00  0.00    +0.000 A 
ATOM     23  H   UNL     1      49.109   6.056  12.978  0.00  0.00    +0.000 HD
ENDBRANCH  14  20
ENDBRANCH   1  14
TORSDOF 3
ENDMDL
MODEL 9
REMARK VINA RESULT:    -6.486      4.857      8.110
REMARK INTER + INTRA:          -8.302
REMARK INTER:                  -7.801
REMARK INTRA:                  -0.501
REMARK UNBOUND:                -0.679
REMARK  Name = 
REMARK  4 active torsions:
REMARK  status: ('A' for Active; 'I' for Inactive)
REMARK    1  A    between atoms: C_1  and  C_2
REMARK    2  A    between atoms: N_6  and  C_7
REMARK    3  A    between atoms: C_7  and  C_8
REMARK    4  A    between atoms: C_12  and  C_13
REMARK                            x       y       z     vdW  Elec       q    Type
REMARK                         _______ _______ _______ _____ _____    ______ ____
ROOT
ATOM      1  C   UNL     1      47.154   7.176  13.377  0.00  0.00    +0.000 A 
ATOM      2  C   UNL     1      46.578   8.437  13.205  0.00  0.00    +0.000 A 
ATOM      3  C   UNL     1      45.594   8.628  12.237  0.00  0.00    +0.000 A 
ATOM      4  C   UNL     1      45.177   7.560  11.435  0.00  0.00    +0.000 A 
ATOM      5  C   UNL     1      45.732   6.276  11.576  0.00  0.00    +0.000 A 
ATOM      6  C   UNL     1      46.711   6.108  12.573  0.00  0.00    +0.000 A 
ENDROOT
BRANCH   5   7
ATOM      7  C   UNL     1      45.333   5.153  10.692  0.00  0.00    +0.000 A 
ATOM      8  C   UNL     1      45.649   5.144   9.319  0.00  0.00    +0.000 A 
ATOM      9  C   UNL     1      45.251   4.099   8.477  0.00  0.00    +0.000 A 
ATOM     10  C   UNL     1      44.533   3.026   8.995  0.00  0.00    +0.000 A 
ATOM     11  C   UNL     1      44.215   3.016  10.345  0.00  0.00    +0.000 A 
ATOM     12  F   UNL     1      43.520   1.987  10.850  0.00  0.00    +0.000 F 
ATOM     13  C   UNL     1      44.597   4.060  11.184  0.00  0.00    +0.000 A 
ENDBRANCH   5   7
BRANCH   1  14
ATOM     14  C   UNL     1      48.273   6.952  14.369  0.00  0.00    +0.000 C 
BRANCH  14  20
ATOM     15  C   UNL     1      51.531   5.706  19.615  0.00  0.00    +0.000 C 
ATOM     16  C   UNL     1      50.568   5.731  18.479  0.00  0.00    +0.000 A 
ATOM     17  C   UNL     1      49.226   5.456  18.605  0.00  0.00    +0.000 A 
ATOM     18  N   UNL     1      48.345   5.515  17.583  0.00  0.00    +0.000 NA
ATOM     19  C   UNL     1      48.833   5.848  16.380  0.00  0.00    +0.000 A 
ATOM     20  N   UNL     1      47.917   5.932  15.335  0.00  0.00    +0.000 N 
ATOM     21  N   UNL     1      50.125   6.121  16.154  0.00  0.00    +0.000 NA
ATOM     22  C   UNL     1      50.960   6.056  17.204  0.00  0.00    +0.000 A 
ATOM     23  H   UNL     1      46.997   6.026  15.753  0.00  0.00    +0.000 HD
ENDBRANCH  14  20
ENDBRANCH   1  14
TORSDOF 3
ENDMDL
