MODEL 1
REMARK VINA RESULT:    -7.513      0.000      0.000
REMARK INTER + INTRA:          -9.931
REMARK INTER:                  -9.490
REMARK INTRA:                  -0.441
REMARK UNBOUND:                -0.441
REMARK  Name = 
REMARK  8 active torsions:
REMARK  status: ('A' for Active; 'I' for Inactive)
REMARK    1  A    between atoms: C_1  and  C_2
REMARK    2  A    between atoms: C_2  and  C_3
REMARK    3  A    between atoms: C_2  and  C_4
REMARK    4  A    between atoms: C_2  and  C_5
REMARK    5  A    between atoms: N_16  and  C_17
REMARK    6  A    between atoms: C_17  and  C_18
REMARK    7  A    between atoms: C_21  and  C_22
REMARK    8  A    between atoms: C_22  and  N_23
REMARK                            x       y       z     vdW  Elec       q    Type
REMARK                         _______ _______ _______ _____ _____    ______ ____
ROOT
ATOM      1  C   UNL     1      44.831   4.629  12.132  0.00  0.00    +0.000 A 
ATOM      2  N   UNL     1      45.617   4.147  13.080  0.00  0.00    +0.000 NA
ATOM      3  C   UNL     1      46.732   4.877  13.023  0.00  0.00    +0.000 A 
ATOM      4  C   UNL     1      47.662   4.894  14.088  0.00  0.00    +0.000 C 
ATOM      5  C   UNL     1      47.642   6.059  14.780  0.00  0.00    +0.000 C 
ATOM      6  C   UNL     1      48.483   7.158  14.210  0.00  0.00    +0.000 C 
ATOM      7  N   UNL     1      48.179   8.334  14.978  0.00  0.00    +0.000 N 
ATOM      8  O   UNL     1      49.636   6.920  14.447  0.00  0.00    +0.000 OA
ATOM      9  C   UNL     1      48.300   7.410  12.660  0.00  0.00    +0.000 C 
ATOM     10  N   UNL     1      47.538   6.876  11.717  0.00  0.00    +0.000 NA
ATOM     11  C   UNL     1      46.708   5.825  12.018  0.00  0.00    +0.000 A 
ATOM     12  N   UNL     1      45.592   5.428  11.275  0.00  0.00    +0.000 N 
ATOM     13  H   UNL     1      48.899   9.024  14.808  0.00  0.00    +0.000 HD
ATOM     14  H   UNL     1      48.253   8.113  15.967  0.00  0.00    +0.000 HD
ENDROOT
BRANCH   1  16
ATOM     15  C   UNL     1      42.993   4.368  13.747  0.00  0.00    +0.000 C 
ATOM     16  C   UNL     1      43.347   4.331  12.229  0.00  0.00    +0.000 C 
ATOM     17  C   UNL     1      43.137   2.890  11.718  0.00  0.00    +0.000 C 
ATOM     18  C   UNL     1      42.359   5.259  11.524  0.00  0.00    +0.000 C 
ENDBRANCH   1  16
BRANCH  12  19
ATOM     19  C   UNL     1      45.423   5.651   9.832  0.00  0.00    +0.000 C 
BRANCH  19  20
ATOM     20  C   UNL     1      45.725   4.413   8.983  0.00  0.00    +0.000 A 
ATOM     21  C   UNL     1      45.247   3.146   9.359  0.00  0.00    +0.000 A 
ATOM     22  C   UNL     1      45.660   1.985   8.677  0.00  0.00    +0.000 A 
ATOM     23  C   UNL     1      46.545   2.062   7.598  0.00  0.00    +0.000 A 
ATOM     24  C   UNL     1      46.882   3.334   7.119  0.00  0.00    +0.000 A 
ATOM     25  C   UNL     1      46.463   4.490   7.794  0.00  0.00    +0.000 A 
BRANCH  23  26
ATOM     26  C   UNL     1      47.253   0.831   7.077  0.00  0.00    +0.000 C 
BRANCH  26  27
ATOM     27  N   UNL     1      46.814  -0.421   7.684  0.00  0.00    +0.000 NA
ATOM     28  H   UNL     1      46.977  -1.179   7.024  0.00  0.00    +0.000 HD
ATOM     29  H   UNL     1      45.805  -0.381   7.825  0.00  0.00    +0.000 HD
ENDBRANCH  26  27
ENDBRANCH  23  26
ENDBRANCH  19  20
ENDBRANCH  12  19
TORSDOF 5
ENDMDL
MODEL 2
REMARK VINA RESULT:    -7.367      2.590      6.484
REMARK INTER + INTRA:          -9.746
REMARK INTER:                  -8.477
REMARK INTRA:                  -1.269
REMARK UNBOUND:                -0.441
REMARK  Name = 
REMARK  8 active torsions:
REMARK  status: ('A' for Active; 'I' for Inactive)
REMARK    1  A    between atoms: C_1  and  C_2
REMARK    2  A    between atoms: C_2  and  C_3
REMARK    3  A    between atoms: C_2  and  C_4
REMARK    4  A    between atoms: C_2  and  C_5
REMARK    5  A    between atoms: N_16  and  C_17
REMARK    6  A    between atoms: C_17  and  C_18
REMARK    7  A    between atoms: C_21  and  C_22
REMARK    8  A    between atoms: C_22  and  N_23
REMARK                            x       y       z     vdW  Elec       q    Type
REMARK                         _______ _______ _______ _____ _____    ______ ____
ROOT
ATOM      1  C   UNL     1      44.409   4.044  11.012  0.00  0.00    +0.000 A 
ATOM      2  N   UNL     1      44.052   2.975  10.320  0.00  0.00    +0.000 NA
ATOM      3  C   UNL     1      44.611   3.126   9.119  0.00  0.00    +0.000 A 
ATOM      4  C   UNL     1      44.746   2.041   8.222  0.00  0.00    +0.000 C 
ATOM      5  C   UNL     1      46.026   1.615   8.107  0.00  0.00    +0.000 C 
ATOM      6  C   UNL     1      46.864   2.360   7.116  0.00  0.00    +0.000 C 
ATOM      7  N   UNL     1      48.207   1.876   7.283  0.00  0.00    +0.000 N 
ATOM      8  O   UNL     1      46.545   2.016   6.010  0.00  0.00    +0.000 OA
ATOM      9  C   UNL     1      46.794   3.935   7.225  0.00  0.00    +0.000 C 
ATOM     10  N   UNL     1      46.165   4.782   8.025  0.00  0.00    +0.000 NA
ATOM     11  C   UNL     1      45.313   4.310   8.993  0.00  0.00    +0.000 A 
ATOM     12  N   UNL     1      44.903   5.010  10.132  0.00  0.00    +0.000 N 
ATOM     13  H   UNL     1      48.751   2.150   6.475  0.00  0.00    +0.000 HD
ATOM     14  H   UNL     1      48.200   0.861   7.264  0.00  0.00    +0.000 HD
ENDROOT
BRANCH   1  16
ATOM     15  C   UNL     1      43.690   2.579  12.854  0.00  0.00    +0.000 C 
ATOM     16  C   UNL     1      44.322   3.965  12.525  0.00  0.00    +0.000 C 
ATOM     17  C   UNL     1      43.341   5.066  12.983  0.00  0.00    +0.000 C 
ATOM     18  C   UNL     1      45.607   4.069  13.345  0.00  0.00    +0.000 C 
ENDBRANCH   1  16
BRANCH  12  19
ATOM     19  C   UNL     1      44.826   6.474  10.233  0.00  0.00    +0.000 C 
BRANCH  19  20
ATOM     20  C   UNL     1      45.779   7.065  11.277  0.00  0.00    +0.000 A 
ATOM     21  C   UNL     1      47.119   6.649  11.348  0.00  0.00    +0.000 A 
ATOM     22  C   UNL     1      47.950   7.063  12.407  0.00  0.00    +0.000 A 
ATOM     23  C   UNL     1      47.469   7.912  13.408  0.00  0.00    +0.000 A 
ATOM     24  C   UNL     1      46.191   8.460  13.242  0.00  0.00    +0.000 A 
ATOM     25  C   UNL     1      45.368   8.053  12.182  0.00  0.00    +0.000 A 
BRANCH  23  26
ATOM     26  C   UNL     1      48.221   8.093  14.708  0.00  0.00    +0.000 C 
BRANCH  26  27
ATOM     27  N   UNL     1      47.570   8.984  15.663  0.00  0.00    +0.000 NA
ATOM     28  H   UNL     1      47.592   9.932  15.294  0.00  0.00    +0.000 HD
ATOM     29  H   UNL     1      48.120   9.001  16.523  0.00  0.00    +0.000 HD
ENDBRANCH  26  27
ENDBRANCH  23  26
ENDBRANCH  19  20
ENDBRANCH  12  19
TORSDOF 5
ENDMDL
MODEL 3
REMARK VINA RESULT:    -6.624      4.185      7.889
REMARK INTER + INTRA:          -8.808
REMARK INTER:                  -7.997
REMARK INTRA:                  -0.811
REMARK UNBOUND:                -0.441
REMARK  Name = 
REMARK  8 active torsions:
REMARK  status: ('A' for Active; 'I' for Inactive)
REMARK    1  A    between atoms: C_1  and  C_2
REMARK    2  A    between atoms: C_2  and  C_3
REMARK    3  A    between atoms: C_2  and  C_4
REMARK    4  A    between atoms: C_2  and  C_5
REMARK    5  A    between atoms: N_16  and  C_17
REMARK    6  A    between atoms: C_17  and  C_18
REMARK    7  A    between atoms: C_21  and  C_22
REMARK    8  A    between atoms: C_22  and  N_23
REMARK                            x       y       z     vdW  Elec       q    Type
REMARK                         _______ _______ _______ _____ _____    ______ ____
ROOT
ATOM      1  C   UNL     1      48.711   6.481  16.207  0.00  0.00    +0.000 A 
ATOM      2  N   UNL     1      48.935   6.818  14.948  0.00  0.00    +0.000 NA
ATOM      3  C   UNL     1      48.149   6.021  14.222  0.00  0.00    +0.000 A 
ATOM      4  C   UNL     1      47.851   6.307  12.870  0.00  0.00    +0.000 C 
ATOM      5  C   UNL     1      46.577   6.733  12.695  0.00  0.00    +0.000 C 
ATOM      6  C   UNL     1      45.553   5.651  12.549  0.00  0.00    +0.000 C 
ATOM      7  N   UNL     1      44.274   6.306  12.558  0.00  0.00    +0.000 N 
ATOM      8  O   UNL     1      45.652   5.177  11.449  0.00  0.00    +0.000 OA
ATOM      9  C   UNL     1      45.628   4.502  13.633  0.00  0.00    +0.000 C 
ATOM     10  N   UNL     1      46.394   4.272  14.688  0.00  0.00    +0.000 NA
ATOM     11  C   UNL     1      47.424   5.129  14.990  0.00  0.00    +0.000 A 
ATOM     12  N   UNL     1      48.043   5.253  16.237  0.00  0.00    +0.000 N 
ATOM     13  H   UNL     1      43.579   5.661  12.204  0.00  0.00    +0.000 HD
ATOM     14  H   UNL     1      44.288   7.071  11.890  0.00  0.00    +0.000 HD
ENDROOT
BRANCH   1  16
ATOM     15  C   UNL     1      48.387   8.818  16.906  0.00  0.00    +0.000 C 
ATOM     16  C   UNL     1      49.094   7.480  17.283  0.00  0.00    +0.000 C 
ATOM     17  C   UNL     1      50.619   7.694  17.184  0.00  0.00    +0.000 C 
ATOM     18  C   UNL     1      48.725   7.181  18.735  0.00  0.00    +0.000 C 
ENDBRANCH   1  16
BRANCH  12  19
ATOM     19  C   UNL     1      48.125   4.184  17.243  0.00  0.00    +0.000 C 
BRANCH  19  20
ATOM     20  C   UNL     1      49.484   3.478  17.274  0.00  0.00    +0.000 A 
ATOM     21  C   UNL     1      49.614   2.145  16.851  0.00  0.00    +0.000 A 
ATOM     22  C   UNL     1      50.821   1.442  17.034  0.00  0.00    +0.000 A 
ATOM     23  C   UNL     1      51.926   2.056  17.628  0.00  0.00    +0.000 A 
ATOM     24  C   UNL     1      51.849   3.429  17.892  0.00  0.00    +0.000 A 
ATOM     25  C   UNL     1      50.649   4.130  17.700  0.00  0.00    +0.000 A 
BRANCH  23  26
ATOM     26  C   UNL     1      53.096   1.240  18.135  0.00  0.00    +0.000 C 
BRANCH  26  27
ATOM     27  N   UNL     1      52.825  -0.187  18.267  0.00  0.00    +0.000 NA
ATOM     28  H   UNL     1      53.033  -0.472  19.223  0.00  0.00    +0.000 HD
ATOM     29  H   UNL     1      53.473  -0.701  17.671  0.00  0.00    +0.000 HD
ENDBRANCH  26  27
ENDBRANCH  23  26
ENDBRANCH  19  20
ENDBRANCH  12  19
TORSDOF 5
ENDMDL
MODEL 4
REMARK VINA RESULT:    -6.348      3.033      5.485
REMARK INTER + INTRA:          -8.459
REMARK INTER:                  -8.466
REMARK INTRA:                   0.006
REMARK UNBOUND:                -0.441
REMARK  Name = 
REMARK  8 active torsions:
REMARK  status: ('A' for Active; 'I' for Inactive)
REMARK    1  A    between atoms: C_1  and  C_2
REMARK    2  A    between atoms: C_2  and  C_3
REMARK    3  A    between atoms: C_2  and  C_4
REMARK    4  A    between atoms: C_2  and  C_5
REMARK    5  A    between atoms: N_16  and  C_17
REMARK    6  A    between atoms: C_17  and  C_18
REMARK    7  A    between atoms: C_21  and  C_22
REMARK    8  A    between atoms: C_22  and  N_23
REMARK                            x       y       z     vdW  Elec       q    Type
REMARK                         _______ _______ _______ _____ _____    ______ ____
ROOT
ATOM      1  C   UNL     1      45.390   4.426  12.560  0.00  0.00    +0.000 A 
ATOM      2  N   UNL     1      45.845   3.455  13.334  0.00  0.00    +0.000 NA
ATOM      3  C   UNL     1      46.922   3.959  13.939  0.00  0.00    +0.000 A 
ATOM      4  C   UNL     1      47.478   3.353  15.089  0.00  0.00    +0.000 C 
ATOM      5  C   UNL     1      47.244   4.063  16.218  0.00  0.00    +0.000 C 
ATOM      6  C   UNL     1      48.219   5.164  16.496  0.00  0.00    +0.000 C 
ATOM      7  N   UNL     1      47.692   5.892  17.617  0.00  0.00    +0.000 N 
ATOM      8  O   UNL     1      49.243   4.678  16.894  0.00  0.00    +0.000 OA
ATOM      9  C   UNL     1      48.524   6.118  15.272  0.00  0.00    +0.000 C 
ATOM     10  N   UNL     1      48.091   6.190  14.023  0.00  0.00    +0.000 NA
ATOM     11  C   UNL     1      47.209   5.252  13.546  0.00  0.00    +0.000 A 
ATOM     12  N   UNL     1      46.378   5.406  12.432  0.00  0.00    +0.000 N 
ATOM     13  H   UNL     1      48.429   6.470  18.001  0.00  0.00    +0.000 HD
ATOM     14  H   UNL     1      47.457   5.238  18.358  0.00  0.00    +0.000 HD
ENDROOT
BRANCH   1  16
ATOM     15  C   UNL     1      43.108   5.152  13.126  0.00  0.00    +0.000 C 
ATOM     16  C   UNL     1      43.948   4.339  12.095  0.00  0.00    +0.000 C 
ATOM     17  C   UNL     1      43.528   2.856  12.189  0.00  0.00    +0.000 C 
ATOM     18  C   UNL     1      43.584   4.873  10.711  0.00  0.00    +0.000 C 
ENDBRANCH   1  16
BRANCH  12  19
ATOM     19  C   UNL     1      46.663   6.283  11.288  0.00  0.00    +0.000 C 
BRANCH  19  20
ATOM     20  C   UNL     1      47.263   7.634  11.689  0.00  0.00    +0.000 A 
ATOM     21  C   UNL     1      48.615   7.925  11.443  0.00  0.00    +0.000 A 
ATOM     22  C   UNL     1      49.209   9.094  11.958  0.00  0.00    +0.000 A 
ATOM     23  C   UNL     1      48.466  10.004  12.713  0.00  0.00    +0.000 A 
ATOM     24  C   UNL     1      47.084   9.799  12.811  0.00  0.00    +0.000 A 
ATOM     25  C   UNL     1      46.492   8.639  12.290  0.00  0.00    +0.000 A 
BRANCH  23  26
ATOM     26  C   UNL     1      49.145  11.070  13.545  0.00  0.00    +0.000 C 
BRANCH  26  27
ATOM     27  N   UNL     1      48.586  11.242  14.881  0.00  0.00    +0.000 NA
ATOM     28  H   UNL     1      48.995  12.075  15.302  0.00  0.00    +0.000 HD
ATOM     29  H   UNL     1      48.879  10.458  15.463  0.00  0.00    +0.000 HD
ENDBRANCH  26  27
ENDBRANCH  23  26
ENDBRANCH  19  20
ENDBRANCH  12  19
TORSDOF 5
ENDMDL
MODEL 5
REMARK VINA RESULT:    -6.315      2.791      6.129
REMARK INTER + INTRA:          -8.417
REMARK INTER:                  -7.800
REMARK INTRA:                  -0.617
REMARK UNBOUND:                -0.441
REMARK  Name = 
REMARK  8 active torsions:
REMARK  status: ('A' for Active; 'I' for Inactive)
REMARK    1  A    between atoms: C_1  and  C_2
REMARK    2  A    between atoms: C_2  and  C_3
REMARK    3  A    between atoms: C_2  and  C_4
REMARK    4  A    between atoms: C_2  and  C_5
REMARK    5  A    between atoms: N_16  and  C_17
REMARK    6  A    between atoms: C_17  and  C_18
REMARK    7  A    between atoms: C_21  and  C_22
REMARK    8  A    between atoms: C_22  and  N_23
REMARK                            x       y       z     vdW  Elec       q    Type
REMARK                         _______ _______ _______ _____ _____    ______ ____
ROOT
ATOM      1  C   UNL     1      45.402   5.180  12.704  0.00  0.00    +0.000 A 
ATOM      2  N   UNL     1      45.185   6.460  12.956  0.00  0.00    +0.000 NA
ATOM      3  C   UNL     1      46.375   6.964  13.285  0.00  0.00    +0.000 A 
ATOM      4  C   UNL     1      46.615   8.358  13.287  0.00  0.00    +0.000 C 
ATOM      5  C   UNL     1      47.395   8.755  12.253  0.00  0.00    +0.000 C 
ATOM      6  C   UNL     1      48.869   8.640  12.480  0.00  0.00    +0.000 C 
ATOM      7  N   UNL     1      49.493   8.933  11.219  0.00  0.00    +0.000 N 
ATOM      8  O   UNL     1      49.214   9.528  13.212  0.00  0.00    +0.000 OA
ATOM      9  C   UNL     1      49.354   7.252  13.062  0.00  0.00    +0.000 C 
ATOM     10  N   UNL     1      48.748   6.121  13.388  0.00  0.00    +0.000 NA
ATOM     11  C   UNL     1      47.383   6.018  13.285  0.00  0.00    +0.000 A 
ATOM     12  N   UNL     1      46.658   4.826  13.203  0.00  0.00    +0.000 N 
ATOM     13  H   UNL     1      50.474   9.124  11.381  0.00  0.00    +0.000 HD
ATOM     14  H   UNL     1      49.113   9.801  10.854  0.00  0.00    +0.000 HD
ENDROOT
BRANCH   1  16
ATOM     15  C   UNL     1      43.513   5.532  11.166  0.00  0.00    +0.000 C 
ATOM     16  C   UNL     1      44.365   4.439  11.880  0.00  0.00    +0.000 C 
ATOM     17  C   UNL     1      43.453   3.683  12.870  0.00  0.00    +0.000 C 
ATOM     18  C   UNL     1      44.837   3.471  10.797  0.00  0.00    +0.000 C 
ENDBRANCH   1  16
BRANCH  12  19
ATOM     19  C   UNL     1      47.101   3.536  13.753  0.00  0.00    +0.000 C 
BRANCH  19  20
ATOM     20  C   UNL     1      47.401   3.582  15.254  0.00  0.00    +0.000 A 
ATOM     21  C   UNL     1      46.797   4.544  16.081  0.00  0.00    +0.000 A 
ATOM     22  C   UNL     1      47.195   4.697  17.424  0.00  0.00    +0.000 A 
ATOM     23  C   UNL     1      48.191   3.886  17.974  0.00  0.00    +0.000 A 
ATOM     24  C   UNL     1      48.668   2.819  17.201  0.00  0.00    +0.000 A 
ATOM     25  C   UNL     1      48.263   2.663  15.867  0.00  0.00    +0.000 A 
BRANCH  23  26
ATOM     26  C   UNL     1      48.861   4.247  19.282  0.00  0.00    +0.000 C 
BRANCH  26  27
ATOM     27  N   UNL     1      48.362   3.513  20.439  0.00  0.00    +0.000 NA
ATOM     28  H   UNL     1      48.123   2.566  20.148  0.00  0.00    +0.000 HD
ATOM     29  H   UNL     1      47.490   3.942  20.749  0.00  0.00    +0.000 HD
ENDBRANCH  26  27
ENDBRANCH  23  26
ENDBRANCH  19  20
ENDBRANCH  12  19
TORSDOF 5
ENDMDL
MODEL 6
REMARK VINA RESULT:    -6.168      2.929      5.331
REMARK INTER + INTRA:          -8.232
REMARK INTER:                  -7.386
REMARK INTRA:                  -0.846
REMARK UNBOUND:                -0.441
REMARK  Name = 
REMARK  8 active torsions:
REMARK  status: ('A' for Active; 'I' for Inactive)
REMARK    1  A    between atoms: C_1  and  C_2
REMARK    2  A    between atoms: C_2  and  C_3
REMARK    3  A    between atoms: C_2  and  C_4
REMARK    4  A    between atoms: C_2  and  C_5
REMARK    5  A    between atoms: N_16  and  C_17
REMARK    6  A    between atoms: C_17  and  C_18
REMARK    7  A    between atoms: C_21  and  C_22
REMARK    8  A    between atoms: C_22  and  N_23
REMARK                            x       y       z     vdW  Elec       q    Type
REMARK                         _______ _______ _______ _____ _____    ______ ____
ROOT
ATOM      1  C   UNL     1      45.777   4.494  12.842  0.00  0.00    +0.000 A 
ATOM      2  N   UNL     1      46.132   3.536  13.682  0.00  0.00    +0.000 NA
ATOM      3  C   UNL     1      47.113   4.057  14.420  0.00  0.00    +0.000 A 
ATOM      4  C   UNL     1      47.515   3.469  15.642  0.00  0.00    +0.000 C 
ATOM      5  C   UNL     1      47.126   4.189  16.721  0.00  0.00    +0.000 C 
ATOM      6  C   UNL     1      48.044   5.303  17.113  0.00  0.00    +0.000 C 
ATOM      7  N   UNL     1      47.365   6.037  18.145  0.00  0.00    +0.000 N 
ATOM      8  O   UNL     1      49.010   4.831  17.651  0.00  0.00    +0.000 OA
ATOM      9  C   UNL     1      48.503   6.246  15.931  0.00  0.00    +0.000 C 
ATOM     10  N   UNL     1      48.242   6.301  14.634  0.00  0.00    +0.000 NA
ATOM     11  C   UNL     1      47.439   5.349  14.054  0.00  0.00    +0.000 A 
ATOM     12  N   UNL     1      46.764   5.482  12.837  0.00  0.00    +0.000 N 
ATOM     13  H   UNL     1      48.039   6.626  18.618  0.00  0.00    +0.000 HD
ATOM     14  H   UNL     1      47.039   5.389  18.855  0.00  0.00    +0.000 HD
ENDROOT
BRANCH   1  16
ATOM     15  C   UNL     1      43.519   5.474  12.864  0.00  0.00    +0.000 C 
ATOM     16  C   UNL     1      44.411   4.387  12.189  0.00  0.00    +0.000 C 
ATOM     17  C   UNL     1      43.841   2.999  12.550  0.00  0.00    +0.000 C 
ATOM     18  C   UNL     1      44.295   4.598  10.680  0.00  0.00    +0.000 C 
ENDBRANCH   1  16
BRANCH  12  19
ATOM     19  C   UNL     1      47.193   6.350  11.731  0.00  0.00    +0.000 C 
BRANCH  19  20
ATOM     20  C   UNL     1      46.399   7.657  11.637  0.00  0.00    +0.000 A 
ATOM     21  C   UNL     1      46.912   8.852  12.168  0.00  0.00    +0.000 A 
ATOM     22  C   UNL     1      46.118  10.014  12.234  0.00  0.00    +0.000 A 
ATOM     23  C   UNL     1      44.805  10.014  11.758  0.00  0.00    +0.000 A 
ATOM     24  C   UNL     1      44.356   8.877  11.075  0.00  0.00    +0.000 A 
ATOM     25  C   UNL     1      45.151   7.723  11.003  0.00  0.00    +0.000 A 
BRANCH  23  26
ATOM     26  C   UNL     1      43.841  11.124  12.118  0.00  0.00    +0.000 C 
BRANCH  26  27
ATOM     27  N   UNL     1      42.435  10.738  12.085  0.00  0.00    +0.000 NA
ATOM     28  H   UNL     1      42.337   9.910  11.501  0.00  0.00    +0.000 HD
ATOM     29  H   UNL     1      41.903  11.476  11.623  0.00  0.00    +0.000 HD
ENDBRANCH  26  27
ENDBRANCH  23  26
ENDBRANCH  19  20
ENDBRANCH  12  19
TORSDOF 5
ENDMDL
MODEL 7
REMARK VINA RESULT:    -6.019      3.681      5.986
REMARK INTER + INTRA:          -8.043
REMARK INTER:                  -7.008
REMARK INTRA:                  -1.035
REMARK UNBOUND:                -0.441
REMARK  Name = 
REMARK  8 active torsions:
REMARK  status: ('A' for Active; 'I' for Inactive)
REMARK    1  A    between atoms: C_1  and  C_2
REMARK    2  A    between atoms: C_2  and  C_3
REMARK    3  A    between atoms: C_2  and  C_4
REMARK    4  A    between atoms: C_2  and  C_5
REMARK    5  A    between atoms: N_16  and  C_17
REMARK    6  A    between atoms: C_17  and  C_18
REMARK    7  A    between atoms: C_21  and  C_22
REMARK    8  A    between atoms: C_22  and  N_23
REMARK                            x       y       z     vdW  Elec       q    Type
REMARK                         _______ _______ _______ _____ _____    ______ ____
ROOT
ATOM      1  C   UNL     1      48.911   8.697  13.719  0.00  0.00    +0.000 A 
ATOM      2  N   UNL     1      48.583   9.298  14.850  0.00  0.00    +0.000 NA
ATOM      3  C   UNL     1      48.579   8.336  15.775  0.00  0.00    +0.000 A 
ATOM      4  C   UNL     1      48.612   8.636  17.156  0.00  0.00    +0.000 C 
ATOM      5  C   UNL     1      49.810   8.355  17.723  0.00  0.00    +0.000 C 
ATOM      6  C   UNL     1      49.993   6.938  18.166  0.00  0.00    +0.000 C 
ATOM      7  N   UNL     1      51.370   6.817  18.562  0.00  0.00    +0.000 N 
ATOM      8  O   UNL     1      49.363   6.769  19.175  0.00  0.00    +0.000 OA
ATOM      9  C   UNL     1      49.594   5.842  17.099  0.00  0.00    +0.000 C 
ATOM     10  N   UNL     1      49.140   5.880  15.856  0.00  0.00    +0.000 NA
ATOM     11  C   UNL     1      48.871   7.088  15.260  0.00  0.00    +0.000 A 
ATOM     12  N   UNL     1      48.779   7.315  13.884  0.00  0.00    +0.000 N 
ATOM     13  H   UNL     1      51.475   5.970  19.106  0.00  0.00    +0.000 HD
ATOM     14  H   UNL     1      51.599   7.571  19.201  0.00  0.00    +0.000 HD
ENDROOT
BRANCH   1  16
ATOM     15  C   UNL     1      50.050  10.829  13.260  0.00  0.00    +0.000 C 
ATOM     16  C   UNL     1      49.439   9.561  12.589  0.00  0.00    +0.000 C 
ATOM     17  C   UNL     1      48.223   9.999  11.745  0.00  0.00    +0.000 C 
ATOM     18  C   UNL     1      50.513   8.993  11.663  0.00  0.00    +0.000 C 
ENDBRANCH   1  16
BRANCH  12  19
ATOM     19  C   UNL     1      48.397   6.302  12.890  0.00  0.00    +0.000 C 
BRANCH  19  20
ATOM     20  C   UNL     1      46.883   6.108  12.766  0.00  0.00    +0.000 A 
ATOM     21  C   UNL     1      46.223   5.100  13.488  0.00  0.00    +0.000 A 
ATOM     22  C   UNL     1      44.865   4.810  13.251  0.00  0.00    +0.000 A 
ATOM     23  C   UNL     1      44.133   5.528  12.302  0.00  0.00    +0.000 A 
ATOM     24  C   UNL     1      44.743   6.641  11.710  0.00  0.00    +0.000 A 
ATOM     25  C   UNL     1      46.093   6.933  11.954  0.00  0.00    +0.000 A 
BRANCH  23  26
ATOM     26  C   UNL     1      42.798   5.024  11.798  0.00  0.00    +0.000 C 
BRANCH  26  27
ATOM     27  N   UNL     1      42.781   3.608  11.446  0.00  0.00    +0.000 NA
ATOM     28  H   UNL     1      42.268   3.098  12.163  0.00  0.00    +0.000 HD
ATOM     29  H   UNL     1      43.737   3.252  11.474  0.00  0.00    +0.000 HD
ENDBRANCH  26  27
ENDBRANCH  23  26
ENDBRANCH  19  20
ENDBRANCH  12  19
TORSDOF 5
ENDMDL
MODEL 8
REMARK VINA RESULT:    -5.957      4.157      6.627
REMARK INTER + INTRA:          -7.966
REMARK INTER:                  -6.982
REMARK INTRA:                  -0.983
REMARK UNBOUND:                -0.441
REMARK  Name = 
REMARK  8 active torsions:
REMARK  status: ('A' for Active; 'I' for Inactive)
REMARK    1  A    between atoms: C_1  and  C_2
REMARK    2  A    between atoms: C_2  and  C_3
REMARK    3  A    between atoms: C_2  and  C_4
REMARK    4  A    between atoms: C_2  and  C_5
REMARK    5  A    between atoms: N_16  and  C_17
REMARK    6  A    between atoms: C_17  and  C_18
REMARK    7  A    between atoms: C_21  and  C_22
REMARK    8  A    between atoms: C_22  and  N_23
REMARK                            x       y       z     vdW  Elec       q    Type
REMARK                         _______ _______ _______ _____ _____    ______ ____
ROOT
ATOM      1  C   UNL     1      49.139   8.220  15.429  0.00  0.00    +0.000 A 
ATOM      2  N   UNL     1      48.700   8.378  16.666  0.00  0.00    +0.000 NA
ATOM      3  C   UNL     1      48.507   7.144  17.135  0.00  0.00    +0.000 A 
ATOM      4  C   UNL     1      48.372   6.890  18.519  0.00  0.00    +0.000 C 
ATOM      5  C   UNL     1      49.460   6.281  19.047  0.00  0.00    +0.000 C 
ATOM      6  C   UNL     1      49.487   4.790  18.915  0.00  0.00    +0.000 C 
ATOM      7  N   UNL     1      50.786   4.372  19.367  0.00  0.00    +0.000 N 
ATOM      8  O   UNL     1      48.716   4.322  19.709  0.00  0.00    +0.000 OA
ATOM      9  C   UNL     1      49.166   4.236  17.470  0.00  0.00    +0.000 C 
ATOM     10  N   UNL     1      48.889   4.796  16.303  0.00  0.00    +0.000 NA
ATOM     11  C   UNL     1      48.783   6.162  16.204  0.00  0.00    +0.000 A 
ATOM     12  N   UNL     1      48.894   6.905  15.025  0.00  0.00    +0.000 N 
ATOM     13  H   UNL     1      50.760   3.376  19.544  0.00  0.00    +0.000 HD
ATOM     14  H   UNL     1      50.976   4.795  20.270  0.00  0.00    +0.000 HD
ENDROOT
BRANCH   1  16
ATOM     15  C   UNL     1      50.265  10.345  15.949  0.00  0.00    +0.000 C 
ATOM     16  C   UNL     1      49.871   9.384  14.787  0.00  0.00    +0.000 C 
ATOM     17  C   UNL     1      48.859  10.113  13.877  0.00  0.00    +0.000 C 
ATOM     18  C   UNL     1      51.147   9.107  13.993  0.00  0.00    +0.000 C 
ENDBRANCH   1  16
BRANCH  12  19
ATOM     19  C   UNL     1      48.586   6.396  13.680  0.00  0.00    +0.000 C 
BRANCH  19  20
ATOM     20  C   UNL     1      47.084   6.252  13.412  0.00  0.00    +0.000 A 
ATOM     21  C   UNL     1      46.421   5.038  13.657  0.00  0.00    +0.000 A 
ATOM     22  C   UNL     1      45.084   4.850  13.257  0.00  0.00    +0.000 A 
ATOM     23  C   UNL     1      44.376   5.871  12.618  0.00  0.00    +0.000 A 
ATOM     24  C   UNL     1      44.980   7.131  12.530  0.00  0.00    +0.000 A 
ATOM     25  C   UNL     1      46.309   7.318  12.937  0.00  0.00    +0.000 A 
BRANCH  23  26
ATOM     26  C   UNL     1      43.080   5.587  11.889  0.00  0.00    +0.000 C 
BRANCH  26  27
ATOM     27  N   UNL     1      42.582   6.699  11.087  0.00  0.00    +0.000 NA
ATOM     28  H   UNL     1      43.265   6.910  10.361  0.00  0.00    +0.000 HD
ATOM     29  H   UNL     1      42.528   7.531  11.676  0.00  0.00    +0.000 HD
ENDBRANCH  26  27
ENDBRANCH  23  26
ENDBRANCH  19  20
ENDBRANCH  12  19
TORSDOF 5
ENDMDL
MODEL 9
REMARK VINA RESULT:    -5.834      3.410      7.785
REMARK INTER + INTRA:          -7.809
REMARK INTER:                  -6.827
REMARK INTRA:                  -0.982
REMARK UNBOUND:                -0.441
REMARK  Name = 
REMARK  8 active torsions:
REMARK  status: ('A' for Active; 'I' for Inactive)
REMARK    1  A    between atoms: C_1  and  C_2
REMARK    2  A    between atoms: C_2  and  C_3
REMARK    3  A    between atoms: C_2  and  C_4
REMARK    4  A    between atoms: C_2  and  C_5
REMARK    5  A    between atoms: N_16  and  C_17
REMARK    6  A    between atoms: C_17  and  C_18
REMARK    7  A    between atoms: C_21  and  C_22
REMARK    8  A    between atoms: C_22  and  N_23
REMARK                            x       y       z     vdW  Elec       q    Type
REMARK                         _______ _______ _______ _____ _____    ______ ____
ROOT
ATOM      1  C   UNL     1      47.895   6.897  12.866  0.00  0.00    +0.000 A 
ATOM      2  N   UNL     1      47.285   6.868  11.693  0.00  0.00    +0.000 NA
ATOM      3  C   UNL     1      46.377   5.895  11.789  0.00  0.00    +0.000 A 
ATOM      4  C   UNL     1      45.305   5.788  10.873  0.00  0.00    +0.000 C 
ATOM      5  C   UNL     1      44.116   6.141  11.416  0.00  0.00    +0.000 C 
ATOM      6  C   UNL     1      43.405   5.056  12.163  0.00  0.00    +0.000 C 
ATOM      7  N   UNL     1      42.278   5.680  12.800  0.00  0.00    +0.000 N 
ATOM      8  O   UNL     1      42.929   4.292  11.366  0.00  0.00    +0.000 OA
ATOM      9  C   UNL     1      44.293   4.258  13.199  0.00  0.00    +0.000 C 
ATOM     10  N   UNL     1      45.555   4.338  13.593  0.00  0.00    +0.000 NA
ATOM     11  C   UNL     1      46.401   5.251  13.011  0.00  0.00    +0.000 A 
ATOM     12  N   UNL     1      47.595   5.723  13.563  0.00  0.00    +0.000 N 
ATOM     13  H   UNL     1      41.633   4.958  13.092  0.00  0.00    +0.000 HD
ATOM     14  H   UNL     1      41.769   6.227  12.113  0.00  0.00    +0.000 HD
ENDROOT
BRANCH   1  16
ATOM     15  C   UNL     1      47.794   8.875  14.326  0.00  0.00    +0.000 C 
ATOM     16  C   UNL     1      48.650   8.160  13.237  0.00  0.00    +0.000 C 
ATOM     17  C   UNL     1      48.681   9.057  11.980  0.00  0.00    +0.000 C 
ATOM     18  C   UNL     1      50.065   8.038  13.799  0.00  0.00    +0.000 C 
ENDBRANCH   1  16
BRANCH  12  19
ATOM     19  C   UNL     1      48.429   4.980  14.518  0.00  0.00    +0.000 C 
BRANCH  19  20
ATOM     20  C   UNL     1      48.116   5.303  15.982  0.00  0.00    +0.000 A 
ATOM     21  C   UNL     1      48.627   6.461  16.591  0.00  0.00    +0.000 A 
ATOM     22  C   UNL     1      48.482   6.676  17.976  0.00  0.00    +0.000 A 
ATOM     23  C   UNL     1      47.811   5.750  18.779  0.00  0.00    +0.000 A 
ATOM     24  C   UNL     1      47.156   4.687  18.145  0.00  0.00    +0.000 A 
ATOM     25  C   UNL     1      47.295   4.480  16.765  0.00  0.00    +0.000 A 
BRANCH  23  26
ATOM     26  C   UNL     1      47.934   5.788  20.287  0.00  0.00    +0.000 C 
BRANCH  26  27
ATOM     27  N   UNL     1      47.953   4.476  20.925  0.00  0.00    +0.000 NA
ATOM     28  H   UNL     1      47.094   4.360  21.460  0.00  0.00    +0.000 HD
ATOM     29  H   UNL     1      48.715   4.452  21.603  0.00  0.00    +0.000 HD
ENDBRANCH  26  27
ENDBRANCH  23  26
ENDBRANCH  19  20
ENDBRANCH  12  19
TORSDOF 5
ENDMDL
