MODEL 1
REMARK VINA RESULT:    -8.323      0.000      0.000
REMARK INTER + INTRA:         -11.089
REMARK INTER:                 -10.513
REMARK INTRA:                  -0.576
REMARK UNBOUND:                -0.576
REMARK  Name = 
REMARK  6 active torsions:
REMARK  status: ('A' for Active; 'I' for Inactive)
REMARK    1  A    between atoms: C_1  and  C_2
REMARK    2  A    between atoms: C_4  and  N_5
REMARK    3  A    between atoms: C_4  and  C_15
REMARK    4  A    between atoms: N_5  and  C_6
REMARK    5  A    between atoms: C_9  and  C_10
REMARK    6  A    between atoms: C_18  and  O_19
REMARK                            x       y       z     vdW  Elec       q    Type
REMARK                         _______ _______ _______ _____ _____    ______ ____
ROOT
ATOM      1  N   UNL     1      43.719   5.022   9.607  0.00  0.00    +0.000 N 
ATOM      2  H   UNL     1      42.815   5.043   9.144  0.00  0.00    +0.000 HD
ENDROOT
BRANCH   1   3
ATOM      3  C   UNL     1      44.559   4.027   9.064  0.00  0.00    +0.000 A 
ATOM      4  C   UNL     1      44.436   2.676   9.391  0.00  0.00    +0.000 A 
ATOM      5  C   UNL     1      45.282   1.716   8.828  0.00  0.00    +0.000 A 
ATOM      6  C   UNL     1      46.267   2.096   7.916  0.00  0.00    +0.000 A 
ATOM      7  C   UNL     1      46.393   3.436   7.563  0.00  0.00    +0.000 A 
ATOM      8  C   UNL     1      45.545   4.396   8.138  0.00  0.00    +0.000 A 
BRANCH   6   9
ATOM      9  C   UNL     1      47.175   1.032   7.399  0.00  0.00    +0.000 C 
ATOM     10  N   UNL     1      46.863  -0.265   7.699  0.00  0.00    +0.000 N 
ATOM     11  O   UNL     1      48.165   1.303   6.742  0.00  0.00    +0.000 OA
ATOM     12  H   UNL     1      46.087  -0.551   8.273  0.00  0.00    +0.000 HD
ATOM     13  H   UNL     1      47.492  -0.974   7.345  0.00  0.00    +0.000 HD
ENDBRANCH   6   9
ENDBRANCH   1   3
BRANCH   1  17
ATOM     14  C   UNL     1      43.473   4.006  13.392  0.00  0.00    +0.000 C 
ATOM     15  C   UNL     1      43.119   4.317  11.981  0.00  0.00    +0.000 C 
ATOM     16  C   UNL     1      42.379   5.589  11.716  0.00  0.00    +0.000 C 
ATOM     17  C   UNL     1      43.741   5.376  11.055  0.00  0.00    +0.000 C 
BRANCH  17  18
ATOM     18  C   UNL     1      44.943   6.229  11.507  0.00  0.00    +0.000 A 
ATOM     19  C   UNL     1      46.245   5.730  11.697  0.00  0.00    +0.000 A 
ATOM     20  C   UNL     1      47.294   6.570  12.108  0.00  0.00    +0.000 A 
ATOM     21  C   UNL     1      47.021   7.912  12.308  0.00  0.00    +0.000 A 
ATOM     22  N   UNL     1      45.819   8.454  12.098  0.00  0.00    +0.000 NA
ATOM     23  C   UNL     1      44.832   7.610  11.705  0.00  0.00    +0.000 A 
BRANCH  21  24
ATOM     24  O   UNL     1      47.963   8.789  12.755  0.00  0.00    +0.000 OA
ATOM     25  H   UNL     1      47.544   9.649  12.898  0.00  0.00    +0.000 HD
ENDBRANCH  21  24
ENDBRANCH  17  18
ENDBRANCH   1  17
TORSDOF 5
ENDMDL
MODEL 2
REMARK VINA RESULT:    -7.512      1.423      1.898
REMARK INTER + INTRA:         -10.065
REMARK INTER:                  -9.790
REMARK INTRA:                  -0.275
REMARK UNBOUND:                -0.576
REMARK  Name = 
REMARK  6 active torsions:
REMARK  status: ('A' for Active; 'I' for Inactive)
REMARK    1  A    between atoms: C_1  and  C_2
REMARK    2  A    between atoms: C_4  and  N_5
REMARK    3  A    between atoms: C_4  and  C_15
REMARK    4  A    between atoms: N_5  and  C_6
REMARK    5  A    between atoms: C_9  and  C_10
REMARK    6  A    between atoms: C_18  and  O_19
REMARK                            x       y       z     vdW  Elec       q    Type
REMARK                         _______ _______ _______ _____ _____    ______ ____
ROOT
ATOM      1  N   UNL     1      44.445   5.006  10.346  0.00  0.00    +0.000 N 
ATOM      2  H   UNL     1      43.440   4.920  10.227  0.00  0.00    +0.000 HD
ENDROOT
BRANCH   1   3
ATOM      3  C   UNL     1      45.150   4.255   9.383  0.00  0.00    +0.000 A 
ATOM      4  C   UNL     1      46.009   4.840   8.452  0.00  0.00    +0.000 A 
ATOM      5  C   UNL     1      46.697   4.063   7.516  0.00  0.00    +0.000 A 
ATOM      6  C   UNL     1      46.541   2.677   7.501  0.00  0.00    +0.000 A 
ATOM      7  C   UNL     1      45.703   2.073   8.434  0.00  0.00    +0.000 A 
ATOM      8  C   UNL     1      45.009   2.860   9.367  0.00  0.00    +0.000 A 
BRANCH   6   9
ATOM      9  C   UNL     1      47.255   1.914   6.439  0.00  0.00    +0.000 C 
ATOM     10  N   UNL     1      47.935   2.631   5.494  0.00  0.00    +0.000 N 
ATOM     11  O   UNL     1      47.231   0.696   6.402  0.00  0.00    +0.000 OA
ATOM     12  H   UNL     1      47.957   3.636   5.443  0.00  0.00    +0.000 HD
ATOM     13  H   UNL     1      48.410   2.098   4.777  0.00  0.00    +0.000 HD
ENDBRANCH   6   9
ENDBRANCH   1   3
BRANCH   1  17
ATOM     14  C   UNL     1      46.408   3.678  13.476  0.00  0.00    +0.000 C 
ATOM     15  C   UNL     1      45.365   3.872  12.434  0.00  0.00    +0.000 C 
ATOM     16  C   UNL     1      44.094   4.546  12.842  0.00  0.00    +0.000 C 
ATOM     17  C   UNL     1      44.944   5.179  11.741  0.00  0.00    +0.000 C 
BRANCH  17  18
ATOM     18  C   UNL     1      45.678   6.505  12.019  0.00  0.00    +0.000 A 
ATOM     19  C   UNL     1      47.002   6.779  11.629  0.00  0.00    +0.000 A 
ATOM     20  C   UNL     1      47.605   8.015  11.915  0.00  0.00    +0.000 A 
ATOM     21  C   UNL     1      46.858   8.973  12.579  0.00  0.00    +0.000 A 
ATOM     22  N   UNL     1      45.583   8.792  12.932  0.00  0.00    +0.000 NA
ATOM     23  C   UNL     1      45.037   7.583  12.641  0.00  0.00    +0.000 A 
BRANCH  21  24
ATOM     24  O   UNL     1      47.376  10.179  12.942  0.00  0.00    +0.000 OA
ATOM     25  H   UNL     1      46.937  10.872  12.432  0.00  0.00    +0.000 HD
ENDBRANCH  21  24
ENDBRANCH  17  18
ENDBRANCH   1  17
TORSDOF 5
ENDMDL
MODEL 3
REMARK VINA RESULT:    -6.790      2.074      2.790
REMARK INTER + INTRA:          -9.153
REMARK INTER:                  -8.308
REMARK INTRA:                  -0.845
REMARK UNBOUND:                -0.576
REMARK  Name = 
REMARK  6 active torsions:
REMARK  status: ('A' for Active; 'I' for Inactive)
REMARK    1  A    between atoms: C_1  and  C_2
REMARK    2  A    between atoms: C_4  and  N_5
REMARK    3  A    between atoms: C_4  and  C_15
REMARK    4  A    between atoms: N_5  and  C_6
REMARK    5  A    between atoms: C_9  and  C_10
REMARK    6  A    between atoms: C_18  and  O_19
REMARK                            x       y       z     vdW  Elec       q    Type
REMARK                         _______ _______ _______ _____ _____    ______ ____
ROOT
ATOM      1  N   UNL     1      44.521   5.350  10.216  0.00  0.00    +0.000 N 
ATOM      2  H   UNL     1      43.589   5.095  10.530  0.00  0.00    +0.000 HD
ENDROOT
BRANCH   1   3
ATOM      3  C   UNL     1      45.124   4.310   9.477  0.00  0.00    +0.000 A 
ATOM      4  C   UNL     1      44.939   2.962   9.786  0.00  0.00    +0.000 A 
ATOM      5  C   UNL     1      45.547   1.958   9.028  0.00  0.00    +0.000 A 
ATOM      6  C   UNL     1      46.349   2.289   7.935  0.00  0.00    +0.000 A 
ATOM      7  C   UNL     1      46.529   3.628   7.600  0.00  0.00    +0.000 A 
ATOM      8  C   UNL     1      45.922   4.632   8.371  0.00  0.00    +0.000 A 
BRANCH   6   9
ATOM      9  C   UNL     1      47.016   1.173   7.206  0.00  0.00    +0.000 C 
ATOM     10  N   UNL     1      46.708  -0.103   7.585  0.00  0.00    +0.000 N 
ATOM     11  O   UNL     1      47.815   1.385   6.310  0.00  0.00    +0.000 OA
ATOM     12  H   UNL     1      46.091  -0.343   8.344  0.00  0.00    +0.000 HD
ATOM     13  H   UNL     1      47.173  -0.849   7.084  0.00  0.00    +0.000 HD
ENDBRANCH   6   9
ENDBRANCH   1   3
BRANCH   1  17
ATOM     14  C   UNL     1      44.846   8.623  12.359  0.00  0.00    +0.000 C 
ATOM     15  C   UNL     1      44.757   7.684  11.209  0.00  0.00    +0.000 C 
ATOM     16  C   UNL     1      46.005   7.428  10.426  0.00  0.00    +0.000 C 
ATOM     17  C   UNL     1      45.306   6.251  11.107  0.00  0.00    +0.000 C 
BRANCH  17  18
ATOM     18  C   UNL     1      45.982   5.564  12.310  0.00  0.00    +0.000 A 
ATOM     19  C   UNL     1      47.264   5.887  12.793  0.00  0.00    +0.000 A 
ATOM     20  C   UNL     1      47.814   5.218  13.900  0.00  0.00    +0.000 A 
ATOM     21  C   UNL     1      47.057   4.240  14.520  0.00  0.00    +0.000 A 
ATOM     22  N   UNL     1      45.817   3.923  14.140  0.00  0.00    +0.000 NA
ATOM     23  C   UNL     1      45.322   4.588  13.065  0.00  0.00    +0.000 A 
BRANCH  21  24
ATOM     24  O   UNL     1      47.529   3.506  15.566  0.00  0.00    +0.000 OA
ATOM     25  H   UNL     1      47.129   3.836  16.382  0.00  0.00    +0.000 HD
ENDBRANCH  21  24
ENDBRANCH  17  18
ENDBRANCH   1  17
TORSDOF 5
ENDMDL
MODEL 4
REMARK VINA RESULT:    -6.616      2.471      6.415
REMARK INTER + INTRA:          -8.933
REMARK INTER:                  -9.066
REMARK INTRA:                   0.133
REMARK UNBOUND:                -0.576
REMARK  Name = 
REMARK  6 active torsions:
REMARK  status: ('A' for Active; 'I' for Inactive)
REMARK    1  A    between atoms: C_1  and  C_2
REMARK    2  A    between atoms: C_4  and  N_5
REMARK    3  A    between atoms: C_4  and  C_15
REMARK    4  A    between atoms: N_5  and  C_6
REMARK    5  A    between atoms: C_9  and  C_10
REMARK    6  A    between atoms: C_18  and  O_19
REMARK                            x       y       z     vdW  Elec       q    Type
REMARK                         _______ _______ _______ _____ _____    ______ ____
ROOT
ATOM      1  N   UNL     1      45.679   3.236  12.810  0.00  0.00    +0.000 N 
ATOM      2  H   UNL     1      45.496   2.484  13.467  0.00  0.00    +0.000 HD
ENDROOT
BRANCH   1   3
ATOM      3  C   UNL     1      46.431   4.273  13.402  0.00  0.00    +0.000 A 
ATOM      4  C   UNL     1      46.660   5.494  12.767  0.00  0.00    +0.000 A 
ATOM      5  C   UNL     1      47.404   6.502  13.387  0.00  0.00    +0.000 A 
ATOM      6  C   UNL     1      47.929   6.304  14.665  0.00  0.00    +0.000 A 
ATOM      7  C   UNL     1      47.695   5.100  15.321  0.00  0.00    +0.000 A 
ATOM      8  C   UNL     1      46.952   4.089  14.690  0.00  0.00    +0.000 A 
BRANCH   6   9
ATOM      9  C   UNL     1      48.764   7.395  15.243  0.00  0.00    +0.000 C 
ATOM     10  N   UNL     1      48.119   8.509  15.701  0.00  0.00    +0.000 N 
ATOM     11  O   UNL     1      49.978   7.306  15.299  0.00  0.00    +0.000 OA
ATOM     12  H   UNL     1      47.125   8.662  15.643  0.00  0.00    +0.000 HD
ATOM     13  H   UNL     1      48.701   9.243  16.085  0.00  0.00    +0.000 HD
ENDBRANCH   6   9
ENDBRANCH   1   3
BRANCH   1  17
ATOM     14  C   UNL     1      42.625   5.315  11.482  0.00  0.00    +0.000 C 
ATOM     15  C   UNL     1      43.465   4.376  12.272  0.00  0.00    +0.000 C 
ATOM     16  C   UNL     1      43.250   2.911  12.063  0.00  0.00    +0.000 C 
ATOM     17  C   UNL     1      44.631   3.501  11.783  0.00  0.00    +0.000 C 
BRANCH  17  18
ATOM     18  C   UNL     1      45.138   3.582  10.330  0.00  0.00    +0.000 A 
ATOM     19  C   UNL     1      45.216   2.484   9.452  0.00  0.00    +0.000 A 
ATOM     20  C   UNL     1      45.687   2.635   8.136  0.00  0.00    +0.000 A 
ATOM     21  C   UNL     1      46.060   3.899   7.713  0.00  0.00    +0.000 A 
ATOM     22  N   UNL     1      45.964   4.986   8.481  0.00  0.00    +0.000 NA
ATOM     23  C   UNL     1      45.508   4.799   9.746  0.00  0.00    +0.000 A 
BRANCH  21  24
ATOM     24  O   UNL     1      46.575   4.130   6.474  0.00  0.00    +0.000 OA
ATOM     25  H   UNL     1      47.185   3.413   6.252  0.00  0.00    +0.000 HD
ENDBRANCH  21  24
ENDBRANCH  17  18
ENDBRANCH   1  17
TORSDOF 5
ENDMDL
MODEL 5
REMARK VINA RESULT:    -6.536      2.084      6.476
REMARK INTER + INTRA:          -8.832
REMARK INTER:                  -8.520
REMARK INTRA:                  -0.312
REMARK UNBOUND:                -0.576
REMARK  Name = 
REMARK  6 active torsions:
REMARK  status: ('A' for Active; 'I' for Inactive)
REMARK    1  A    between atoms: C_1  and  C_2
REMARK    2  A    between atoms: C_4  and  N_5
REMARK    3  A    between atoms: C_4  and  C_15
REMARK    4  A    between atoms: N_5  and  C_6
REMARK    5  A    between atoms: C_9  and  C_10
REMARK    6  A    between atoms: C_18  and  O_19
REMARK                            x       y       z     vdW  Elec       q    Type
REMARK                         _______ _______ _______ _____ _____    ______ ____
ROOT
ATOM      1  N   UNL     1      45.920   5.239  12.919  0.00  0.00    +0.000 N 
ATOM      2  H   UNL     1      46.020   4.954  13.888  0.00  0.00    +0.000 HD
ENDROOT
BRANCH   1   3
ATOM      3  C   UNL     1      46.436   6.534  12.701  0.00  0.00    +0.000 A 
ATOM      4  C   UNL     1      45.677   7.689  12.893  0.00  0.00    +0.000 A 
ATOM      5  C   UNL     1      46.224   8.957  12.674  0.00  0.00    +0.000 A 
ATOM      6  C   UNL     1      47.551   9.090  12.263  0.00  0.00    +0.000 A 
ATOM      7  C   UNL     1      48.328   7.950  12.084  0.00  0.00    +0.000 A 
ATOM      8  C   UNL     1      47.771   6.679  12.299  0.00  0.00    +0.000 A 
BRANCH   6   9
ATOM      9  C   UNL     1      48.053  10.466  11.989  0.00  0.00    +0.000 C 
ATOM     10  N   UNL     1      47.578  11.480  12.773  0.00  0.00    +0.000 N 
ATOM     11  O   UNL     1      48.850  10.687  11.093  0.00  0.00    +0.000 OA
ATOM     12  H   UNL     1      46.888  11.370  13.497  0.00  0.00    +0.000 HD
ATOM     13  H   UNL     1      47.925  12.408  12.570  0.00  0.00    +0.000 HD
ENDBRANCH   6   9
ENDBRANCH   1   3
BRANCH   1  17
ATOM     14  C   UNL     1      42.196   5.620  11.736  0.00  0.00    +0.000 C 
ATOM     15  C   UNL     1      43.399   5.398  12.580  0.00  0.00    +0.000 C 
ATOM     16  C   UNL     1      43.680   4.000  13.032  0.00  0.00    +0.000 C 
ATOM     17  C   UNL     1      44.726   4.726  12.187  0.00  0.00    +0.000 C 
BRANCH  17  18
ATOM     18  C   UNL     1      44.990   4.257  10.743  0.00  0.00    +0.000 A 
ATOM     19  C   UNL     1      44.703   2.966  10.261  0.00  0.00    +0.000 A 
ATOM     20  C   UNL     1      44.968   2.611   8.927  0.00  0.00    +0.000 A 
ATOM     21  C   UNL     1      45.506   3.570   8.086  0.00  0.00    +0.000 A 
ATOM     22  N   UNL     1      45.754   4.824   8.470  0.00  0.00    +0.000 NA
ATOM     23  C   UNL     1      45.488   5.127   9.766  0.00  0.00    +0.000 A 
BRANCH  21  24
ATOM     24  O   UNL     1      45.842   3.300   6.795  0.00  0.00    +0.000 OA
ATOM     25  H   UNL     1      46.656   2.778   6.787  0.00  0.00    +0.000 HD
ENDBRANCH  21  24
ENDBRANCH  17  18
ENDBRANCH   1  17
TORSDOF 5
ENDMDL
MODEL 6
REMARK VINA RESULT:    -6.144      1.758      6.568
REMARK INTER + INTRA:          -8.336
REMARK INTER:                  -8.152
REMARK INTRA:                  -0.184
REMARK UNBOUND:                -0.576
REMARK  Name = 
REMARK  6 active torsions:
REMARK  status: ('A' for Active; 'I' for Inactive)
REMARK    1  A    between atoms: C_1  and  C_2
REMARK    2  A    between atoms: C_4  and  N_5
REMARK    3  A    between atoms: C_4  and  C_15
REMARK    4  A    between atoms: N_5  and  C_6
REMARK    5  A    between atoms: C_9  and  C_10
REMARK    6  A    between atoms: C_18  and  O_19
REMARK                            x       y       z     vdW  Elec       q    Type
REMARK                         _______ _______ _______ _____ _____    ______ ____
ROOT
ATOM      1  N   UNL     1      44.688   6.027  11.126  0.00  0.00    +0.000 N 
ATOM      2  H   UNL     1      44.263   6.465  10.315  0.00  0.00    +0.000 HD
ENDROOT
BRANCH   1   3
ATOM      3  C   UNL     1      45.677   6.850  11.704  0.00  0.00    +0.000 A 
ATOM      4  C   UNL     1      47.036   6.702  11.427  0.00  0.00    +0.000 A 
ATOM      5  C   UNL     1      47.989   7.540  12.013  0.00  0.00    +0.000 A 
ATOM      6  C   UNL     1      47.592   8.554  12.886  0.00  0.00    +0.000 A 
ATOM      7  C   UNL     1      46.239   8.729  13.160  0.00  0.00    +0.000 A 
ATOM      8  C   UNL     1      45.288   7.878  12.574  0.00  0.00    +0.000 A 
BRANCH   6   9
ATOM      9  C   UNL     1      48.662   9.373  13.524  0.00  0.00    +0.000 C 
ATOM     10  N   UNL     1      48.274  10.466  14.247  0.00  0.00    +0.000 N 
ATOM     11  O   UNL     1      49.841   9.090  13.400  0.00  0.00    +0.000 OA
ATOM     12  H   UNL     1      47.323  10.778  14.350  0.00  0.00    +0.000 HD
ATOM     13  H   UNL     1      49.013  11.014  14.668  0.00  0.00    +0.000 HD
ENDBRANCH   6   9
ENDBRANCH   1   3
BRANCH   1  17
ATOM     14  C   UNL     1      43.185   2.458  11.773  0.00  0.00    +0.000 C 
ATOM     15  C   UNL     1      43.776   3.807  11.981  0.00  0.00    +0.000 C 
ATOM     16  C   UNL     1      45.203   3.877  12.421  0.00  0.00    +0.000 C 
ATOM     17  C   UNL     1      44.805   4.541  11.104  0.00  0.00    +0.000 C 
BRANCH  17  18
ATOM     18  C   UNL     1      45.298   3.938   9.774  0.00  0.00    +0.000 A 
ATOM     19  C   UNL     1      45.359   2.559   9.500  0.00  0.00    +0.000 A 
ATOM     20  C   UNL     1      45.818   2.083   8.260  0.00  0.00    +0.000 A 
ATOM     21  C   UNL     1      46.196   3.005   7.300  0.00  0.00    +0.000 A 
ATOM     22  N   UNL     1      46.115   4.325   7.482  0.00  0.00    +0.000 NA
ATOM     23  C   UNL     1      45.670   4.746   8.693  0.00  0.00    +0.000 A 
BRANCH  21  24
ATOM     24  O   UNL     1      46.700   2.634   6.091  0.00  0.00    +0.000 OA
ATOM     25  H   UNL     1      47.578   2.251   6.224  0.00  0.00    +0.000 HD
ENDBRANCH  21  24
ENDBRANCH  17  18
ENDBRANCH   1  17
TORSDOF 5
ENDMDL
MODEL 7
REMARK VINA RESULT:    -5.957      3.635      6.901
REMARK INTER + INTRA:          -8.100
REMARK INTER:                  -7.352
REMARK INTRA:                  -0.748
REMARK UNBOUND:                -0.576
REMARK  Name = 
REMARK  6 active torsions:
REMARK  status: ('A' for Active; 'I' for Inactive)
REMARK    1  A    between atoms: C_1  and  C_2
REMARK    2  A    between atoms: C_4  and  N_5
REMARK    3  A    between atoms: C_4  and  C_15
REMARK    4  A    between atoms: N_5  and  C_6
REMARK    5  A    between atoms: C_9  and  C_10
REMARK    6  A    between atoms: C_18  and  O_19
REMARK                            x       y       z     vdW  Elec       q    Type
REMARK                         _______ _______ _______ _____ _____    ______ ____
ROOT
ATOM      1  N   UNL     1      47.252   6.228  12.526  0.00  0.00    +0.000 N 
ATOM      2  H   UNL     1      47.960   5.914  11.870  0.00  0.00    +0.000 HD
ENDROOT
BRANCH   1   3
ATOM      3  C   UNL     1      47.478   5.716  13.821  0.00  0.00    +0.000 A 
ATOM      4  C   UNL     1      46.977   4.485  14.243  0.00  0.00    +0.000 A 
ATOM      5  C   UNL     1      47.227   4.006  15.532  0.00  0.00    +0.000 A 
ATOM      6  C   UNL     1      47.995   4.755  16.424  0.00  0.00    +0.000 A 
ATOM      7  C   UNL     1      48.520   5.977  16.015  0.00  0.00    +0.000 A 
ATOM      8  C   UNL     1      48.258   6.456  14.721  0.00  0.00    +0.000 A 
BRANCH   6   9
ATOM      9  C   UNL     1      48.173   4.216  17.802  0.00  0.00    +0.000 C 
ATOM     10  N   UNL     1      47.399   4.750  18.794  0.00  0.00    +0.000 N 
ATOM     11  O   UNL     1      48.984   3.338  18.044  0.00  0.00    +0.000 OA
ATOM     12  H   UNL     1      46.745   5.505  18.669  0.00  0.00    +0.000 HD
ATOM     13  H   UNL     1      47.536   4.376  19.725  0.00  0.00    +0.000 HD
ENDBRANCH   6   9
ENDBRANCH   1   3
BRANCH   1  17
ATOM     14  C   UNL     1      44.451   8.578  11.097  0.00  0.00    +0.000 C 
ATOM     15  C   UNL     1      45.394   7.897  12.023  0.00  0.00    +0.000 C 
ATOM     16  C   UNL     1      44.824   6.904  12.985  0.00  0.00    +0.000 C 
ATOM     17  C   UNL     1      45.879   6.438  11.983  0.00  0.00    +0.000 C 
BRANCH  17  18
ATOM     18  C   UNL     1      45.470   5.489  10.840  0.00  0.00    +0.000 A 
ATOM     19  C   UNL     1      46.023   5.517   9.547  0.00  0.00    +0.000 A 
ATOM     20  C   UNL     1      45.602   4.615   8.554  0.00  0.00    +0.000 A 
ATOM     21  C   UNL     1      44.635   3.682   8.882  0.00  0.00    +0.000 A 
ATOM     22  N   UNL     1      44.107   3.573  10.104  0.00  0.00    +0.000 NA
ATOM     23  C   UNL     1      44.537   4.463  11.034  0.00  0.00    +0.000 A 
BRANCH  21  24
ATOM     24  O   UNL     1      44.130   2.804   7.972  0.00  0.00    +0.000 OA
ATOM     25  H   UNL     1      43.364   2.359   8.360  0.00  0.00    +0.000 HD
ENDBRANCH  21  24
ENDBRANCH  17  18
ENDBRANCH   1  17
TORSDOF 5
ENDMDL
MODEL 8
REMARK VINA RESULT:    -5.939      3.357      5.502
REMARK INTER + INTRA:          -8.078
REMARK INTER:                  -7.215
REMARK INTRA:                  -0.862
REMARK UNBOUND:                -0.576
REMARK  Name = 
REMARK  6 active torsions:
REMARK  status: ('A' for Active; 'I' for Inactive)
REMARK    1  A    between atoms: C_1  and  C_2
REMARK    2  A    between atoms: C_4  and  N_5
REMARK    3  A    between atoms: C_4  and  C_15
REMARK    4  A    between atoms: N_5  and  C_6
REMARK    5  A    between atoms: C_9  and  C_10
REMARK    6  A    between atoms: C_18  and  O_19
REMARK                            x       y       z     vdW  Elec       q    Type
REMARK                         _______ _______ _______ _____ _____    ______ ____
ROOT
ATOM      1  N   UNL     1      46.010   7.813  13.228  0.00  0.00    +0.000 N 
ATOM      2  H   UNL     1      45.524   8.111  14.068  0.00  0.00    +0.000 HD
ENDROOT
BRANCH   1   3
ATOM      3  C   UNL     1      45.497   6.595  12.734  0.00  0.00    +0.000 A 
ATOM      4  C   UNL     1      45.835   5.358  13.283  0.00  0.00    +0.000 A 
ATOM      5  C   UNL     1      45.302   4.171  12.771  0.00  0.00    +0.000 A 
ATOM      6  C   UNL     1      44.410   4.206  11.699  0.00  0.00    +0.000 A 
ATOM      7  C   UNL     1      44.047   5.432  11.150  0.00  0.00    +0.000 A 
ATOM      8  C   UNL     1      44.592   6.620  11.664  0.00  0.00    +0.000 A 
BRANCH   6   9
ATOM      9  C   UNL     1      43.926   2.901  11.163  0.00  0.00    +0.000 C 
ATOM     10  N   UNL     1      44.612   2.356  10.114  0.00  0.00    +0.000 N 
ATOM     11  O   UNL     1      42.950   2.342  11.632  0.00  0.00    +0.000 OA
ATOM     12  H   UNL     1      45.396   2.788   9.655  0.00  0.00    +0.000 HD
ATOM     13  H   UNL     1      44.267   1.473   9.759  0.00  0.00    +0.000 HD
ENDBRANCH   6   9
ENDBRANCH   1   3
BRANCH   1  17
ATOM     14  C   UNL     1      48.871  10.290  12.180  0.00  0.00    +0.000 C 
ATOM     15  C   UNL     1      47.768   9.293  12.127  0.00  0.00    +0.000 C 
ATOM     16  C   UNL     1      48.125   7.883  11.783  0.00  0.00    +0.000 C 
ATOM     17  C   UNL     1      47.455   8.167  13.127  0.00  0.00    +0.000 C 
BRANCH  17  18
ATOM     18  C   UNL     1      48.267   8.000  14.426  0.00  0.00    +0.000 A 
ATOM     19  C   UNL     1      48.183   8.866  15.533  0.00  0.00    +0.000 A 
ATOM     20  C   UNL     1      48.953   8.648  16.688  0.00  0.00    +0.000 A 
ATOM     21  C   UNL     1      49.792   7.547  16.721  0.00  0.00    +0.000 A 
ATOM     22  N   UNL     1      49.879   6.664  15.724  0.00  0.00    +0.000 NA
ATOM     23  C   UNL     1      49.122   6.910  14.625  0.00  0.00    +0.000 A 
BRANCH  21  24
ATOM     24  O   UNL     1      50.611   7.287  17.777  0.00  0.00    +0.000 OA
ATOM     25  H   UNL     1      50.528   8.005  18.419  0.00  0.00    +0.000 HD
ENDBRANCH  21  24
ENDBRANCH  17  18
ENDBRANCH   1  17
TORSDOF 5
ENDMDL
MODEL 9
REMARK VINA RESULT:    -5.465      3.284      7.065
REMARK INTER + INTRA:          -7.479
REMARK INTER:                  -6.922
REMARK INTRA:                  -0.556
REMARK UNBOUND:                -0.576
REMARK  Name = 
REMARK  6 active torsions:
REMARK  status: ('A' for Active; 'I' for Inactive)
REMARK    1  A    between atoms: C_1  and  C_2
REMARK    2  A    between atoms: C_4  and  N_5
REMARK    3  A    between atoms: C_4  and  C_15
REMARK    4  A    between atoms: N_5  and  C_6
REMARK    5  A    between atoms: C_9  and  C_10
REMARK    6  A    between atoms: C_18  and  O_19
REMARK                            x       y       z     vdW  Elec       q    Type
REMARK                         _______ _______ _______ _____ _____    ______ ____
ROOT
ATOM      1  N   UNL     1      47.148   6.786  11.412  0.00  0.00    +0.000 N 
ATOM      2  H   UNL     1      47.456   6.071  10.761  0.00  0.00    +0.000 HD
ENDROOT
BRANCH   1   3
ATOM      3  C   UNL     1      48.150   7.095  12.357  0.00  0.00    +0.000 A 
ATOM      4  C   UNL     1      49.173   8.007  12.098  0.00  0.00    +0.000 A 
ATOM      5  C   UNL     1      50.146   8.294  13.060  0.00  0.00    +0.000 A 
ATOM      6  C   UNL     1      50.103   7.674  14.310  0.00  0.00    +0.000 A 
ATOM      7  C   UNL     1      49.078   6.777  14.594  0.00  0.00    +0.000 A 
ATOM      8  C   UNL     1      48.109   6.487  13.619  0.00  0.00    +0.000 A 
BRANCH   6   9
ATOM      9  C   UNL     1      51.203   7.979  15.268  0.00  0.00    +0.000 C 
ATOM     10  N   UNL     1      52.119   6.994  15.513  0.00  0.00    +0.000 N 
ATOM     11  O   UNL     1      51.283   9.061  15.824  0.00  0.00    +0.000 OA
ATOM     12  H   UNL     1      52.083   6.067  15.121  0.00  0.00    +0.000 HD
ATOM     13  H   UNL     1      52.856   7.215  16.169  0.00  0.00    +0.000 HD
ENDBRANCH   6   9
ENDBRANCH   1   3
BRANCH   1  17
ATOM     14  C   UNL     1      43.545   8.294  11.016  0.00  0.00    +0.000 C 
ATOM     15  C   UNL     1      44.971   8.109  11.396  0.00  0.00    +0.000 C 
ATOM     16  C   UNL     1      45.273   7.806  12.829  0.00  0.00    +0.000 C 
ATOM     17  C   UNL     1      45.698   6.803  11.757  0.00  0.00    +0.000 C 
BRANCH  17  18
ATOM     18  C   UNL     1      44.985   5.439  11.672  0.00  0.00    +0.000 A 
ATOM     19  C   UNL     1      44.833   4.694  10.488  0.00  0.00    +0.000 A 
ATOM     20  C   UNL     1      44.172   3.454  10.487  0.00  0.00    +0.000 A 
ATOM     21  C   UNL     1      43.683   2.969  11.688  0.00  0.00    +0.000 A 
ATOM     22  N   UNL     1      43.838   3.605  12.851  0.00  0.00    +0.000 NA
ATOM     23  C   UNL     1      44.479   4.801  12.810  0.00  0.00    +0.000 A 
BRANCH  21  24
ATOM     24  O   UNL     1      42.986   1.802  11.773  0.00  0.00    +0.000 OA
ATOM     25  H   UNL     1      43.370   1.164  11.157  0.00  0.00    +0.000 HD
ENDBRANCH  21  24
ENDBRANCH  17  18
ENDBRANCH   1  17
TORSDOF 5
ENDMDL
