MODEL 1
REMARK VINA RESULT:    -7.902      0.000      0.000
REMARK INTER + INTRA:         -11.612
REMARK INTER:                 -10.674
REMARK INTRA:                  -0.939
REMARK UNBOUND:                -0.939
REMARK  Name = 
REMARK  8 active torsions:
REMARK  status: ('A' for Active; 'I' for Inactive)
REMARK    1  A    between atoms: C_1  and  C_2
REMARK    2  A    between atoms: C_2  and  N_3
REMARK    3  A    between atoms: C_2  and  C_17
REMARK    4  A    between atoms: C_4  and  C_6
REMARK    5  A    between atoms: N_12  and  C_13
REMARK    6  A    between atoms: C_20  and  C_21
REMARK    7  A    between atoms: C_21  and  N_22
REMARK    8  A    between atoms: C_23  and  C_25
REMARK                            x       y       z     vdW  Elec       q    Type
REMARK                         _______ _______ _______ _____ _____    ______ ____
ROOT
ATOM      1  C   UNL     1      47.681   8.775  14.043  0.00  0.00    +0.000 C 
ATOM      2  C   UNL     1      47.900   7.265  13.918  0.00  0.00    +0.000 C 
ENDROOT
BRANCH   2   3
ATOM      3  C   UNL     1      46.835   6.603  13.057  0.00  0.00    +0.000 A 
ATOM      4  C   UNL     1      46.093   7.373  12.152  0.00  0.00    +0.000 A 
ATOM      5  C   UNL     1      45.153   6.776  11.307  0.00  0.00    +0.000 A 
ATOM      6  C   UNL     1      44.929   5.394  11.351  0.00  0.00    +0.000 A 
ATOM      7  C   UNL     1      45.670   4.618  12.252  0.00  0.00    +0.000 A 
ATOM      8  C   UNL     1      46.604   5.217  13.100  0.00  0.00    +0.000 A 
BRANCH   6   9
ATOM      9  C   UNL     1      43.941   4.750  10.417  0.00  0.00    +0.000 C 
BRANCH   9  10
ATOM     10  N   UNL     1      44.573   3.757   9.584  0.00  0.00    +0.000 N 
ATOM     11  C   UNL     1      45.495   4.129   8.631  0.00  0.00    +0.000 C 
ATOM     12  O   UNL     1      45.804   5.302   8.446  0.00  0.00    +0.000 OA
ATOM     13  H   UNL     1      44.407   2.784   9.787  0.00  0.00    +0.000 HD
BRANCH  11  14
ATOM     14  C   UNL     1      46.081   3.035   7.848  0.00  0.00    +0.000 A 
ATOM     15  C   UNL     1      46.682   3.082   6.542  0.00  0.00    +0.000 A 
ATOM     16  C   UNL     1      47.150   1.855   6.120  0.00  0.00    +0.000 A 
ATOM     17  S   UNL     1      46.870   0.631   7.276  0.00  0.00    +0.000 S 
ATOM     18  C   UNL     1      46.128   1.741   8.343  0.00  0.00    +0.000 A 
ENDBRANCH  11  14
ENDBRANCH   9  10
ENDBRANCH   6   9
ENDBRANCH   2   3
BRANCH   2  19
ATOM     19  N   UNL     1      47.905   6.633  15.223  0.00  0.00    +0.000 N 
ATOM     20  C   UNL     1      49.038   6.364  15.940  0.00  0.00    +0.000 C 
ATOM     21  O   UNL     1      50.167   6.522  15.487  0.00  0.00    +0.000 OA
ATOM     22  H   UNL     1      47.018   6.627  15.709  0.00  0.00    +0.000 HD
BRANCH  20  23
ATOM     23  C   UNL     1      48.815   5.811  17.283  0.00  0.00    +0.000 A 
ATOM     24  C   UNL     1      49.101   4.481  17.547  0.00  0.00    +0.000 A 
ATOM     25  S   UNL     1      48.760   4.019  19.154  0.00  0.00    +0.000 S 
ATOM     26  C   UNL     1      48.258   5.592  19.561  0.00  0.00    +0.000 A 
ATOM     27  N   UNL     1      47.856   5.895  20.822  0.00  0.00    +0.000 NA
ATOM     28  C   UNL     1      47.529   7.133  21.001  0.00  0.00    +0.000 A 
ATOM     29  N   UNL     1      47.555   8.114  20.034  0.00  0.00    +0.000 N 
ATOM     30  C   UNL     1      47.155   9.472  20.342  0.00  0.00    +0.000 C 
ATOM     31  C   UNL     1      47.923   7.832  18.723  0.00  0.00    +0.000 A 
ATOM     32  O   UNL     1      47.879   8.672  17.829  0.00  0.00    +0.000 OA
ATOM     33  C   UNL     1      48.323   6.455  18.484  0.00  0.00    +0.000 A 
ENDBRANCH  20  23
ENDBRANCH   2  19
TORSDOF 6
ENDMDL
MODEL 2
REMARK VINA RESULT:    -7.549      1.609      2.464
REMARK INTER + INTRA:         -11.135
REMARK INTER:                  -9.922
REMARK INTRA:                  -1.213
REMARK UNBOUND:                -0.939
REMARK  Name = 
REMARK  8 active torsions:
REMARK  status: ('A' for Active; 'I' for Inactive)
REMARK    1  A    between atoms: C_1  and  C_2
REMARK    2  A    between atoms: C_2  and  N_3
REMARK    3  A    between atoms: C_2  and  C_17
REMARK    4  A    between atoms: C_4  and  C_6
REMARK    5  A    between atoms: N_12  and  C_13
REMARK    6  A    between atoms: C_20  and  C_21
REMARK    7  A    between atoms: C_21  and  N_22
REMARK    8  A    between atoms: C_23  and  C_25
REMARK                            x       y       z     vdW  Elec       q    Type
REMARK                         _______ _______ _______ _____ _____    ______ ____
ROOT
ATOM      1  C   UNL     1      47.159   9.361  13.338  0.00  0.00    +0.000 C 
ATOM      2  C   UNL     1      47.715   7.959  13.598  0.00  0.00    +0.000 C 
ENDROOT
BRANCH   2   3
ATOM      3  C   UNL     1      46.830   6.874  13.002  0.00  0.00    +0.000 A 
ATOM      4  C   UNL     1      46.059   7.150  11.865  0.00  0.00    +0.000 A 
ATOM      5  C   UNL     1      45.287   6.153  11.265  0.00  0.00    +0.000 A 
ATOM      6  C   UNL     1      45.264   4.854  11.789  0.00  0.00    +0.000 A 
ATOM      7  C   UNL     1      46.036   4.571  12.924  0.00  0.00    +0.000 A 
ATOM      8  C   UNL     1      46.801   5.571  13.527  0.00  0.00    +0.000 A 
BRANCH   6   9
ATOM      9  C   UNL     1      44.458   3.774  11.120  0.00  0.00    +0.000 C 
BRANCH   9  10
ATOM     10  N   UNL     1      45.234   3.080  10.121  0.00  0.00    +0.000 N 
ATOM     11  C   UNL     1      45.208   3.491   8.808  0.00  0.00    +0.000 C 
ATOM     12  O   UNL     1      44.527   4.442   8.435  0.00  0.00    +0.000 OA
ATOM     13  H   UNL     1      45.873   2.362  10.423  0.00  0.00    +0.000 HD
BRANCH  11  14
ATOM     14  C   UNL     1      46.041   2.719   7.880  0.00  0.00    +0.000 A 
ATOM     15  C   UNL     1      46.379   1.321   7.919  0.00  0.00    +0.000 A 
ATOM     16  C   UNL     1      47.174   0.929   6.863  0.00  0.00    +0.000 A 
ATOM     17  S   UNL     1      47.533   2.227   5.815  0.00  0.00    +0.000 S 
ATOM     18  C   UNL     1      46.622   3.313   6.770  0.00  0.00    +0.000 A 
ENDBRANCH  11  14
ENDBRANCH   9  10
ENDBRANCH   6   9
ENDBRANCH   2   3
BRANCH   2  19
ATOM     19  N   UNL     1      47.860   7.715  15.019  0.00  0.00    +0.000 N 
ATOM     20  C   UNL     1      48.932   8.125  15.762  0.00  0.00    +0.000 C 
ATOM     21  O   UNL     1      49.933   8.633  15.265  0.00  0.00    +0.000 OA
ATOM     22  H   UNL     1      47.014   7.449  15.505  0.00  0.00    +0.000 HD
BRANCH  20  23
ATOM     23  C   UNL     1      48.834   7.863  17.205  0.00  0.00    +0.000 A 
ATOM     24  C   UNL     1      48.767   8.917  18.103  0.00  0.00    +0.000 A 
ATOM     25  S   UNL     1      48.677   8.417  19.732  0.00  0.00    +0.000 S 
ATOM     26  C   UNL     1      48.683   6.774  19.288  0.00  0.00    +0.000 A 
ATOM     27  N   UNL     1      48.597   5.795  20.224  0.00  0.00    +0.000 NA
ATOM     28  C   UNL     1      48.584   4.593  19.748  0.00  0.00    +0.000 A 
ATOM     29  N   UNL     1      48.656   4.262  18.412  0.00  0.00    +0.000 N 
ATOM     30  C   UNL     1      48.644   2.877  17.988  0.00  0.00    +0.000 C 
ATOM     31  C   UNL     1      48.785   5.237  17.429  0.00  0.00    +0.000 A 
ATOM     32  O   UNL     1      48.928   4.962  16.241  0.00  0.00    +0.000 OA
ATOM     33  C   UNL     1      48.778   6.605  17.920  0.00  0.00    +0.000 A 
ENDBRANCH  20  23
ENDBRANCH   2  19
TORSDOF 6
ENDMDL
MODEL 3
REMARK VINA RESULT:    -7.245      2.872      4.378
REMARK INTER + INTRA:         -10.725
REMARK INTER:                  -9.478
REMARK INTRA:                  -1.247
REMARK UNBOUND:                -0.939
REMARK  Name = 
REMARK  8 active torsions:
REMARK  status: ('A' for Active; 'I' for Inactive)
REMARK    1  A    between atoms: C_1  and  C_2
REMARK    2  A    between atoms: C_2  and  N_3
REMARK    3  A    between atoms: C_2  and  C_17
REMARK    4  A    between atoms: C_4  and  C_6
REMARK    5  A    between atoms: N_12  and  C_13
REMARK    6  A    between atoms: C_20  and  C_21
REMARK    7  A    between atoms: C_21  and  N_22
REMARK    8  A    between atoms: C_23  and  C_25
REMARK                            x       y       z     vdW  Elec       q    Type
REMARK                         _______ _______ _______ _____ _____    ______ ____
ROOT
ATOM      1  C   UNL     1      47.519   3.687  15.635  0.00  0.00    +0.000 C 
ATOM      2  C   UNL     1      47.009   5.028  15.102  0.00  0.00    +0.000 C 
ENDROOT
BRANCH   2   3
ATOM      3  C   UNL     1      46.138   4.859  13.867  0.00  0.00    +0.000 A 
ATOM      4  C   UNL     1      45.530   5.978  13.284  0.00  0.00    +0.000 A 
ATOM      5  C   UNL     1      44.776   5.855  12.114  0.00  0.00    +0.000 A 
ATOM      6  C   UNL     1      44.608   4.607  11.501  0.00  0.00    +0.000 A 
ATOM      7  C   UNL     1      45.217   3.484  12.076  0.00  0.00    +0.000 A 
ATOM      8  C   UNL     1      45.964   3.608  13.250  0.00  0.00    +0.000 A 
BRANCH   6   9
ATOM      9  C   UNL     1      43.823   4.483  10.223  0.00  0.00    +0.000 C 
BRANCH   9  10
ATOM     10  N   UNL     1      44.515   3.664   9.257  0.00  0.00    +0.000 N 
ATOM     11  C   UNL     1      45.561   4.179   8.526  0.00  0.00    +0.000 C 
ATOM     12  O   UNL     1      45.937   5.341   8.654  0.00  0.00    +0.000 OA
ATOM     13  H   UNL     1      44.287   2.683   9.209  0.00  0.00    +0.000 HD
BRANCH  11  14
ATOM     14  C   UNL     1      46.197   3.255   7.580  0.00  0.00    +0.000 A 
ATOM     15  C   UNL     1      46.657   3.508   6.241  0.00  0.00    +0.000 A 
ATOM     16  C   UNL     1      47.227   2.401   5.649  0.00  0.00    +0.000 A 
ATOM     17  S   UNL     1      47.213   1.043   6.683  0.00  0.00    +0.000 S 
ATOM     18  C   UNL     1      46.449   1.935   7.924  0.00  0.00    +0.000 A 
ENDBRANCH  11  14
ENDBRANCH   9  10
ENDBRANCH   6   9
ENDBRANCH   2   3
BRANCH   2  19
ATOM     19  N   UNL     1      48.113   5.910  14.778  0.00  0.00    +0.000 N 
ATOM     20  C   UNL     1      48.817   6.630  15.703  0.00  0.00    +0.000 C 
ATOM     21  O   UNL     1      48.495   6.692  16.886  0.00  0.00    +0.000 OA
ATOM     22  H   UNL     1      48.520   5.781  13.861  0.00  0.00    +0.000 HD
BRANCH  20  23
ATOM     23  C   UNL     1      49.962   7.384  15.174  0.00  0.00    +0.000 A 
ATOM     24  C   UNL     1      51.232   7.174  15.686  0.00  0.00    +0.000 A 
ATOM     25  S   UNL     1      52.428   8.152  14.961  0.00  0.00    +0.000 S 
ATOM     26  C   UNL     1      51.292   8.860  13.910  0.00  0.00    +0.000 A 
ATOM     27  N   UNL     1      51.671   9.783  12.988  0.00  0.00    +0.000 NA
ATOM     28  C   UNL     1      50.713  10.218  12.236  0.00  0.00    +0.000 A 
ATOM     29  N   UNL     1      49.395   9.825  12.314  0.00  0.00    +0.000 N 
ATOM     30  C   UNL     1      48.398  10.387  11.425  0.00  0.00    +0.000 C 
ATOM     31  C   UNL     1      48.964   8.912  13.272  0.00  0.00    +0.000 A 
ATOM     32  O   UNL     1      47.784   8.607  13.409  0.00  0.00    +0.000 OA
ATOM     33  C   UNL     1      50.015   8.379  14.123  0.00  0.00    +0.000 A 
ENDBRANCH  20  23
ENDBRANCH   2  19
TORSDOF 6
ENDMDL
MODEL 4
REMARK VINA RESULT:    -7.075      2.852      9.405
REMARK INTER + INTRA:         -10.496
REMARK INTER:                  -9.535
REMARK INTRA:                  -0.961
REMARK UNBOUND:                -0.939
REMARK  Name = 
REMARK  8 active torsions:
REMARK  status: ('A' for Active; 'I' for Inactive)
REMARK    1  A    between atoms: C_1  and  C_2
REMARK    2  A    between atoms: C_2  and  N_3
REMARK    3  A    between atoms: C_2  and  C_17
REMARK    4  A    between atoms: C_4  and  C_6
REMARK    5  A    between atoms: N_12  and  C_13
REMARK    6  A    between atoms: C_20  and  C_21
REMARK    7  A    between atoms: C_21  and  N_22
REMARK    8  A    between atoms: C_23  and  C_25
REMARK                            x       y       z     vdW  Elec       q    Type
REMARK                         _______ _______ _______ _____ _____    ______ ____
ROOT
ATOM      1  C   UNL     1      48.140   8.034  11.443  0.00  0.00    +0.000 C 
ATOM      2  C   UNL     1      47.190   7.692  12.592  0.00  0.00    +0.000 C 
ENDROOT
BRANCH   2   3
ATOM      3  C   UNL     1      47.929   7.504  13.908  0.00  0.00    +0.000 A 
ATOM      4  C   UNL     1      47.904   6.259  14.550  0.00  0.00    +0.000 A 
ATOM      5  C   UNL     1      48.626   6.047  15.727  0.00  0.00    +0.000 A 
ATOM      6  C   UNL     1      49.388   7.076  16.294  0.00  0.00    +0.000 A 
ATOM      7  C   UNL     1      49.420   8.323  15.655  0.00  0.00    +0.000 A 
ATOM      8  C   UNL     1      48.692   8.536  14.482  0.00  0.00    +0.000 A 
BRANCH   6   9
ATOM      9  C   UNL     1      50.191   6.834  17.543  0.00  0.00    +0.000 C 
BRANCH   9  10
ATOM     10  N   UNL     1      50.935   5.600  17.460  0.00  0.00    +0.000 N 
ATOM     11  C   UNL     1      50.490   4.472  18.111  0.00  0.00    +0.000 C 
ATOM     12  O   UNL     1      49.465   4.470  18.787  0.00  0.00    +0.000 OA
ATOM     13  H   UNL     1      51.722   5.556  16.832  0.00  0.00    +0.000 HD
BRANCH  11  14
ATOM     14  C   UNL     1      51.320   3.273  17.950  0.00  0.00    +0.000 A 
ATOM     15  C   UNL     1      50.953   1.984  17.426  0.00  0.00    +0.000 A 
ATOM     16  C   UNL     1      52.004   1.092  17.404  0.00  0.00    +0.000 A 
ATOM     17  S   UNL     1      53.441   1.780  18.017  0.00  0.00    +0.000 S 
ATOM     18  C   UNL     1      52.660   3.272  18.307  0.00  0.00    +0.000 A 
ENDBRANCH  11  14
ENDBRANCH   9  10
ENDBRANCH   6   9
ENDBRANCH   2   3
BRANCH   2  19
ATOM     19  N   UNL     1      46.438   6.487  12.302  0.00  0.00    +0.000 N 
ATOM     20  C   UNL     1      45.254   6.467  11.619  0.00  0.00    +0.000 C 
ATOM     21  O   UNL     1      44.654   7.488  11.295  0.00  0.00    +0.000 OA
ATOM     22  H   UNL     1      46.949   5.620  12.400  0.00  0.00    +0.000 HD
BRANCH  20  23
ATOM     23  C   UNL     1      44.708   5.131  11.345  0.00  0.00    +0.000 A 
ATOM     24  C   UNL     1      43.869   4.518  12.263  0.00  0.00    +0.000 A 
ATOM     25  S   UNL     1      43.352   2.966  11.780  0.00  0.00    +0.000 S 
ATOM     26  C   UNL     1      44.201   3.078  10.309  0.00  0.00    +0.000 A 
ATOM     27  N   UNL     1      44.156   2.073   9.396  0.00  0.00    +0.000 NA
ATOM     28  C   UNL     1      44.823   2.301   8.312  0.00  0.00    +0.000 A 
ATOM     29  N   UNL     1      45.546   3.442   8.043  0.00  0.00    +0.000 N 
ATOM     30  C   UNL     1      46.267   3.588   6.795  0.00  0.00    +0.000 C 
ATOM     31  C   UNL     1      45.646   4.474   8.971  0.00  0.00    +0.000 A 
ATOM     32  O   UNL     1      46.346   5.464   8.784  0.00  0.00    +0.000 OA
ATOM     33  C   UNL     1      44.890   4.270  10.196  0.00  0.00    +0.000 A 
ENDBRANCH  20  23
ENDBRANCH   2  19
TORSDOF 6
ENDMDL
MODEL 5
REMARK VINA RESULT:    -7.022      2.502      3.507
REMARK INTER + INTRA:         -10.424
REMARK INTER:                  -9.171
REMARK INTRA:                  -1.253
REMARK UNBOUND:                -0.939
REMARK  Name = 
REMARK  8 active torsions:
REMARK  status: ('A' for Active; 'I' for Inactive)
REMARK    1  A    between atoms: C_1  and  C_2
REMARK    2  A    between atoms: C_2  and  N_3
REMARK    3  A    between atoms: C_2  and  C_17
REMARK    4  A    between atoms: C_4  and  C_6
REMARK    5  A    between atoms: N_12  and  C_13
REMARK    6  A    between atoms: C_20  and  C_21
REMARK    7  A    between atoms: C_21  and  N_22
REMARK    8  A    between atoms: C_23  and  C_25
REMARK                            x       y       z     vdW  Elec       q    Type
REMARK                         _______ _______ _______ _____ _____    ______ ____
ROOT
ATOM      1  C   UNL     1      47.960   3.041  15.639  0.00  0.00    +0.000 C 
ATOM      2  C   UNL     1      47.146   4.334  15.708  0.00  0.00    +0.000 C 
ENDROOT
BRANCH   2   3
ATOM      3  C   UNL     1      46.649   4.770  14.337  0.00  0.00    +0.000 A 
ATOM      4  C   UNL     1      47.231   5.876  13.704  0.00  0.00    +0.000 A 
ATOM      5  C   UNL     1      46.834   6.257  12.420  0.00  0.00    +0.000 A 
ATOM      6  C   UNL     1      45.841   5.543  11.738  0.00  0.00    +0.000 A 
ATOM      7  C   UNL     1      45.258   4.433  12.364  0.00  0.00    +0.000 A 
ATOM      8  C   UNL     1      45.651   4.058  13.651  0.00  0.00    +0.000 A 
BRANCH   6   9
ATOM      9  C   UNL     1      45.439   5.935  10.342  0.00  0.00    +0.000 C 
BRANCH   9  10
ATOM     10  N   UNL     1      46.040   5.068   9.358  0.00  0.00    +0.000 N 
ATOM     11  C   UNL     1      45.310   4.051   8.786  0.00  0.00    +0.000 C 
ATOM     12  O   UNL     1      44.141   3.835   9.091  0.00  0.00    +0.000 OA
ATOM     13  H   UNL     1      46.965   5.290   9.023  0.00  0.00    +0.000 HD
BRANCH  11  14
ATOM     14  C   UNL     1      46.018   3.237   7.791  0.00  0.00    +0.000 A 
ATOM     15  C   UNL     1      46.506   3.621   6.493  0.00  0.00    +0.000 A 
ATOM     16  C   UNL     1      47.148   2.593   5.833  0.00  0.00    +0.000 A 
ATOM     17  S   UNL     1      47.168   1.156   6.754  0.00  0.00    +0.000 S 
ATOM     18  C   UNL     1      46.324   1.907   8.036  0.00  0.00    +0.000 A 
ENDBRANCH  11  14
ENDBRANCH   9  10
ENDBRANCH   6   9
ENDBRANCH   2   3
BRANCH   2  19
ATOM     19  N   UNL     1      47.928   5.409  16.285  0.00  0.00    +0.000 N 
ATOM     20  C   UNL     1      47.906   5.749  17.609  0.00  0.00    +0.000 C 
ATOM     21  O   UNL     1      47.122   5.251  18.412  0.00  0.00    +0.000 OA
ATOM     22  H   UNL     1      48.695   5.744  15.718  0.00  0.00    +0.000 HD
BRANCH  20  23
ATOM     23  C   UNL     1      48.849   6.803  18.004  0.00  0.00    +0.000 A 
ATOM     24  C   UNL     1      48.382   7.996  18.534  0.00  0.00    +0.000 A 
ATOM     25  S   UNL     1      49.624   9.103  18.914  0.00  0.00    +0.000 S 
ATOM     26  C   UNL     1      50.829   8.009  18.421  0.00  0.00    +0.000 A 
ATOM     27  N   UNL     1      52.146   8.328  18.514  0.00  0.00    +0.000 NA
ATOM     28  C   UNL     1      52.956   7.394  18.131  0.00  0.00    +0.000 A 
ATOM     29  N   UNL     1      52.580   6.158  17.652  0.00  0.00    +0.000 N 
ATOM     30  C   UNL     1      53.574   5.188  17.241  0.00  0.00    +0.000 C 
ATOM     31  C   UNL     1      51.241   5.812  17.506  0.00  0.00    +0.000 A 
ATOM     32  O   UNL     1      50.885   4.748  17.010  0.00  0.00    +0.000 OA
ATOM     33  C   UNL     1      50.296   6.825  17.949  0.00  0.00    +0.000 A 
ENDBRANCH  20  23
ENDBRANCH   2  19
TORSDOF 6
ENDMDL
MODEL 6
REMARK VINA RESULT:    -6.877      4.860      8.284
REMARK INTER + INTRA:         -10.228
REMARK INTER:                  -9.972
REMARK INTRA:                  -0.256
REMARK UNBOUND:                -0.939
REMARK  Name = 
REMARK  8 active torsions:
REMARK  status: ('A' for Active; 'I' for Inactive)
REMARK    1  A    between atoms: C_1  and  C_2
REMARK    2  A    between atoms: C_2  and  N_3
REMARK    3  A    between atoms: C_2  and  C_17
REMARK    4  A    between atoms: C_4  and  C_6
REMARK    5  A    between atoms: N_12  and  C_13
REMARK    6  A    between atoms: C_20  and  C_21
REMARK    7  A    between atoms: C_21  and  N_22
REMARK    8  A    between atoms: C_23  and  C_25
REMARK                            x       y       z     vdW  Elec       q    Type
REMARK                         _______ _______ _______ _____ _____    ______ ____
ROOT
ATOM      1  C   UNL     1      45.217   9.305  12.576  0.00  0.00    +0.000 C 
ATOM      2  C   UNL     1      46.147   8.190  13.059  0.00  0.00    +0.000 C 
ENDROOT
BRANCH   2   3
ATOM      3  C   UNL     1      47.549   8.326  12.484  0.00  0.00    +0.000 A 
ATOM      4  C   UNL     1      47.983   9.564  11.992  0.00  0.00    +0.000 A 
ATOM      5  C   UNL     1      49.286   9.727  11.517  0.00  0.00    +0.000 A 
ATOM      6  C   UNL     1      50.187   8.655  11.517  0.00  0.00    +0.000 A 
ATOM      7  C   UNL     1      49.760   7.415  12.011  0.00  0.00    +0.000 A 
ATOM      8  C   UNL     1      48.454   7.252  12.480  0.00  0.00    +0.000 A 
BRANCH   6   9
ATOM      9  C   UNL     1      51.600   8.843  11.035  0.00  0.00    +0.000 C 
BRANCH   9  10
ATOM     10  N   UNL     1      52.043   7.716  10.251  0.00  0.00    +0.000 N 
ATOM     11  C   UNL     1      52.852   7.904   9.154  0.00  0.00    +0.000 C 
ATOM     12  O   UNL     1      53.216   9.021   8.795  0.00  0.00    +0.000 OA
ATOM     13  H   UNL     1      51.837   6.788  10.586  0.00  0.00    +0.000 HD
BRANCH  11  14
ATOM     14  C   UNL     1      53.250   6.687   8.436  0.00  0.00    +0.000 A 
ATOM     15  C   UNL     1      52.622   6.062   7.303  0.00  0.00    +0.000 A 
ATOM     16  C   UNL     1      53.287   4.932   6.874  0.00  0.00    +0.000 A 
ATOM     17  S   UNL     1      54.665   4.601   7.825  0.00  0.00    +0.000 S 
ATOM     18  C   UNL     1      54.376   5.969   8.807  0.00  0.00    +0.000 A 
ENDBRANCH  11  14
ENDBRANCH   9  10
ENDBRANCH   6   9
ENDBRANCH   2   3
BRANCH   2  19
ATOM     19  N   UNL     1      45.621   6.887  12.705  0.00  0.00    +0.000 N 
ATOM     20  C   UNL     1      44.832   6.649  11.614  0.00  0.00    +0.000 C 
ATOM     21  O   UNL     1      44.392   7.546  10.901  0.00  0.00    +0.000 OA
ATOM     22  H   UNL     1      46.070   6.099  13.152  0.00  0.00    +0.000 HD
BRANCH  20  23
ATOM     23  C   UNL     1      44.490   5.239  11.381  0.00  0.00    +0.000 A 
ATOM     24  C   UNL     1      43.692   4.555  12.285  0.00  0.00    +0.000 A 
ATOM     25  S   UNL     1      43.420   2.927  11.855  0.00  0.00    +0.000 S 
ATOM     26  C   UNL     1      44.326   3.093  10.425  0.00  0.00    +0.000 A 
ATOM     27  N   UNL     1      44.470   2.054   9.562  0.00  0.00    +0.000 NA
ATOM     28  C   UNL     1      45.158   2.326   8.502  0.00  0.00    +0.000 A 
ATOM     29  N   UNL     1      45.732   3.544   8.212  0.00  0.00    +0.000 N 
ATOM     30  C   UNL     1      46.495   3.736   6.996  0.00  0.00    +0.000 C 
ATOM     31  C   UNL     1      45.639   4.618   9.091  0.00  0.00    +0.000 A 
ATOM     32  O   UNL     1      46.207   5.688   8.890  0.00  0.00    +0.000 OA
ATOM     33  C   UNL     1      44.851   4.363  10.286  0.00  0.00    +0.000 A 
ENDBRANCH  20  23
ENDBRANCH   2  19
TORSDOF 6
ENDMDL
MODEL 7
REMARK VINA RESULT:    -6.840      3.007      4.224
REMARK INTER + INTRA:         -10.178
REMARK INTER:                  -8.928
REMARK INTRA:                  -1.250
REMARK UNBOUND:                -0.939
REMARK  Name = 
REMARK  8 active torsions:
REMARK  status: ('A' for Active; 'I' for Inactive)
REMARK    1  A    between atoms: C_1  and  C_2
REMARK    2  A    between atoms: C_2  and  N_3
REMARK    3  A    between atoms: C_2  and  C_17
REMARK    4  A    between atoms: C_4  and  C_6
REMARK    5  A    between atoms: N_12  and  C_13
REMARK    6  A    between atoms: C_20  and  C_21
REMARK    7  A    between atoms: C_21  and  N_22
REMARK    8  A    between atoms: C_23  and  C_25
REMARK                            x       y       z     vdW  Elec       q    Type
REMARK                         _______ _______ _______ _____ _____    ______ ____
ROOT
ATOM      1  C   UNL     1      47.406   3.584  16.293  0.00  0.00    +0.000 C 
ATOM      2  C   UNL     1      47.502   5.023  15.783  0.00  0.00    +0.000 C 
ENDROOT
BRANCH   2   3
ATOM      3  C   UNL     1      46.932   5.171  14.380  0.00  0.00    +0.000 A 
ATOM      4  C   UNL     1      45.876   4.349  13.967  0.00  0.00    +0.000 A 
ATOM      5  C   UNL     1      45.296   4.509  12.706  0.00  0.00    +0.000 A 
ATOM      6  C   UNL     1      45.761   5.493  11.825  0.00  0.00    +0.000 A 
ATOM      7  C   UNL     1      46.815   6.321  12.233  0.00  0.00    +0.000 A 
ATOM      8  C   UNL     1      47.398   6.156  13.492  0.00  0.00    +0.000 A 
BRANCH   6   9
ATOM      9  C   UNL     1      45.112   5.684  10.481  0.00  0.00    +0.000 C 
BRANCH   9  10
ATOM     10  N   UNL     1      45.756   4.885   9.466  0.00  0.00    +0.000 N 
ATOM     11  C   UNL     1      45.233   3.666   9.102  0.00  0.00    +0.000 C 
ATOM     12  O   UNL     1      44.220   3.208   9.623  0.00  0.00    +0.000 OA
ATOM     13  H   UNL     1      46.530   5.286   8.959  0.00  0.00    +0.000 HD
BRANCH  11  14
ATOM     14  C   UNL     1      45.964   2.943   8.055  0.00  0.00    +0.000 A 
ATOM     15  C   UNL     1      46.361   1.561   8.020  0.00  0.00    +0.000 A 
ATOM     16  C   UNL     1      47.022   1.219   6.859  0.00  0.00    +0.000 A 
ATOM     17  S   UNL     1      47.182   2.547   5.799  0.00  0.00    +0.000 S 
ATOM     18  C   UNL     1      46.365   3.578   6.889  0.00  0.00    +0.000 A 
ENDBRANCH  11  14
ENDBRANCH   9  10
ENDBRANCH   6   9
ENDBRANCH   2   3
BRANCH   2  19
ATOM     19  N   UNL     1      48.878   5.480  15.778  0.00  0.00    +0.000 N 
ATOM     20  C   UNL     1      49.366   6.451  16.609  0.00  0.00    +0.000 C 
ATOM     21  O   UNL     1      48.650   7.114  17.353  0.00  0.00    +0.000 OA
ATOM     22  H   UNL     1      49.538   4.874  15.310  0.00  0.00    +0.000 HD
BRANCH  20  23
ATOM     23  C   UNL     1      50.812   6.694  16.510  0.00  0.00    +0.000 A 
ATOM     24  C   UNL     1      51.285   7.894  16.005  0.00  0.00    +0.000 A 
ATOM     25  S   UNL     1      52.989   7.984  15.951  0.00  0.00    +0.000 S 
ATOM     26  C   UNL     1      53.149   6.437  16.640  0.00  0.00    +0.000 A 
ATOM     27  N   UNL     1      54.374   5.908  16.896  0.00  0.00    +0.000 NA
ATOM     28  C   UNL     1      54.351   4.738  17.446  0.00  0.00    +0.000 A 
ATOM     29  N   UNL     1      53.214   4.027  17.766  0.00  0.00    +0.000 N 
ATOM     30  C   UNL     1      53.305   2.715  18.373  0.00  0.00    +0.000 C 
ATOM     31  C   UNL     1      51.945   4.521  17.482  0.00  0.00    +0.000 A 
ATOM     32  O   UNL     1      50.924   3.873  17.688  0.00  0.00    +0.000 OA
ATOM     33  C   UNL     1      51.925   5.846  16.885  0.00  0.00    +0.000 A 
ENDBRANCH  20  23
ENDBRANCH   2  19
TORSDOF 6
ENDMDL
MODEL 8
REMARK VINA RESULT:    -6.217      3.864      5.455
REMARK INTER + INTRA:          -9.337
REMARK INTER:                  -8.140
REMARK INTRA:                  -1.197
REMARK UNBOUND:                -0.939
REMARK  Name = 
REMARK  8 active torsions:
REMARK  status: ('A' for Active; 'I' for Inactive)
REMARK    1  A    between atoms: C_1  and  C_2
REMARK    2  A    between atoms: C_2  and  N_3
REMARK    3  A    between atoms: C_2  and  C_17
REMARK    4  A    between atoms: C_4  and  C_6
REMARK    5  A    between atoms: N_12  and  C_13
REMARK    6  A    between atoms: C_20  and  C_21
REMARK    7  A    between atoms: C_21  and  N_22
REMARK    8  A    between atoms: C_23  and  C_25
REMARK                            x       y       z     vdW  Elec       q    Type
REMARK                         _______ _______ _______ _____ _____    ______ ____
ROOT
ATOM      1  C   UNL     1      48.097   2.701  17.265  0.00  0.00    +0.000 C 
ATOM      2  C   UNL     1      48.433   4.193  17.313  0.00  0.00    +0.000 C 
ENDROOT
BRANCH   2   3
ATOM      3  C   UNL     1      47.971   4.923  16.060  0.00  0.00    +0.000 A 
ATOM      4  C   UNL     1      48.570   6.137  15.700  0.00  0.00    +0.000 A 
ATOM      5  C   UNL     1      48.205   6.793  14.522  0.00  0.00    +0.000 A 
ATOM      6  C   UNL     1      47.229   6.253  13.676  0.00  0.00    +0.000 A 
ATOM      7  C   UNL     1      46.629   5.037  14.028  0.00  0.00    +0.000 A 
ATOM      8  C   UNL     1      46.989   4.385  15.210  0.00  0.00    +0.000 A 
BRANCH   6   9
ATOM      9  C   UNL     1      46.862   6.945  12.391  0.00  0.00    +0.000 C 
BRANCH   9  10
ATOM     10  N   UNL     1      46.644   5.996  11.326  0.00  0.00    +0.000 N 
ATOM     11  C   UNL     1      45.368   5.703  10.904  0.00  0.00    +0.000 C 
ATOM     12  O   UNL     1      44.377   6.217  11.414  0.00  0.00    +0.000 OA
ATOM     13  H   UNL     1      47.446   5.639  10.830  0.00  0.00    +0.000 HD
BRANCH  11  14
ATOM     14  C   UNL     1      45.264   4.732   9.808  0.00  0.00    +0.000 A 
ATOM     15  C   UNL     1      45.909   4.749   8.522  0.00  0.00    +0.000 A 
ATOM     16  C   UNL     1      45.594   3.654   7.746  0.00  0.00    +0.000 A 
ATOM     17  S   UNL     1      44.518   2.594   8.541  0.00  0.00    +0.000 S 
ATOM     18  C   UNL     1      44.477   3.596   9.925  0.00  0.00    +0.000 A 
ENDBRANCH  11  14
ENDBRANCH   9  10
ENDBRANCH   6   9
ENDBRANCH   2   3
BRANCH   2  19
ATOM     19  N   UNL     1      49.859   4.399  17.474  0.00  0.00    +0.000 N 
ATOM     20  C   UNL     1      50.477   4.574  18.681  0.00  0.00    +0.000 C 
ATOM     21  O   UNL     1      49.859   4.697  19.735  0.00  0.00    +0.000 OA
ATOM     22  H   UNL     1      50.429   4.152  16.676  0.00  0.00    +0.000 HD
BRANCH  20  23
ATOM     23  C   UNL     1      51.942   4.665  18.630  0.00  0.00    +0.000 A 
ATOM     24  C   UNL     1      52.582   5.839  18.997  0.00  0.00    +0.000 A 
ATOM     25  S   UNL     1      54.280   5.760  18.854  0.00  0.00    +0.000 S 
ATOM     26  C   UNL     1      54.219   4.141  18.336  0.00  0.00    +0.000 A 
ATOM     27  N   UNL     1      55.356   3.450  18.063  0.00  0.00    +0.000 NA
ATOM     28  C   UNL     1      55.167   2.221  17.706  0.00  0.00    +0.000 A 
ATOM     29  N   UNL     1      53.941   1.603  17.586  0.00  0.00    +0.000 N 
ATOM     30  C   UNL     1      53.844   0.220  17.167  0.00  0.00    +0.000 C 
ATOM     31  C   UNL     1      52.755   2.292  17.819  0.00  0.00    +0.000 A 
ATOM     32  O   UNL     1      51.652   1.785  17.643  0.00  0.00    +0.000 OA
ATOM     33  C   UNL     1      52.923   3.671  18.247  0.00  0.00    +0.000 A 
ENDBRANCH  20  23
ENDBRANCH   2  19
TORSDOF 6
ENDMDL
MODEL 9
REMARK VINA RESULT:    -6.088      6.432      9.046
REMARK INTER + INTRA:          -9.163
REMARK INTER:                  -8.087
REMARK INTRA:                  -1.076
REMARK UNBOUND:                -0.939
REMARK  Name = 
REMARK  8 active torsions:
REMARK  status: ('A' for Active; 'I' for Inactive)
REMARK    1  A    between atoms: C_1  and  C_2
REMARK    2  A    between atoms: C_2  and  N_3
REMARK    3  A    between atoms: C_2  and  C_17
REMARK    4  A    between atoms: C_4  and  C_6
REMARK    5  A    between atoms: N_12  and  C_13
REMARK    6  A    between atoms: C_20  and  C_21
REMARK    7  A    between atoms: C_21  and  N_22
REMARK    8  A    between atoms: C_23  and  C_25
REMARK                            x       y       z     vdW  Elec       q    Type
REMARK                         _______ _______ _______ _____ _____    ______ ____
ROOT
ATOM      1  C   UNL     1      53.290   4.434  19.267  0.00  0.00    +0.000 C 
ATOM      2  C   UNL     1      52.956   3.410  18.180  0.00  0.00    +0.000 C 
ENDROOT
BRANCH   2   3
ATOM      3  C   UNL     1      51.464   3.350  17.891  0.00  0.00    +0.000 A 
ATOM      4  C   UNL     1      50.659   4.469  18.146  0.00  0.00    +0.000 A 
ATOM      5  C   UNL     1      49.299   4.458  17.830  0.00  0.00    +0.000 A 
ATOM      6  C   UNL     1      48.708   3.326  17.255  0.00  0.00    +0.000 A 
ATOM      7  C   UNL     1      49.507   2.206  16.994  0.00  0.00    +0.000 A 
ATOM      8  C   UNL     1      50.866   2.215  17.316  0.00  0.00    +0.000 A 
BRANCH   6   9
ATOM      9  C   UNL     1      47.249   3.330  16.885  0.00  0.00    +0.000 C 
BRANCH   9  10
ATOM     10  N   UNL     1      46.953   4.359  15.919  0.00  0.00    +0.000 N 
ATOM     11  C   UNL     1      47.018   4.090  14.571  0.00  0.00    +0.000 C 
ATOM     12  O   UNL     1      47.336   2.985  14.140  0.00  0.00    +0.000 OA
ATOM     13  H   UNL     1      46.596   5.241  16.251  0.00  0.00    +0.000 HD
BRANCH  11  14
ATOM     14  C   UNL     1      46.689   5.208  13.679  0.00  0.00    +0.000 A 
ATOM     15  C   UNL     1      47.575   6.141  13.036  0.00  0.00    +0.000 A 
ATOM     16  C   UNL     1      46.912   7.056  12.245  0.00  0.00    +0.000 A 
ATOM     17  S   UNL     1      45.223   6.816  12.267  0.00  0.00    +0.000 S 
ATOM     18  C   UNL     1      45.376   5.487  13.329  0.00  0.00    +0.000 A 
ENDBRANCH  11  14
ENDBRANCH   9  10
ENDBRANCH   6   9
ENDBRANCH   2   3
BRANCH   2  19
ATOM     19  N   UNL     1      53.412   2.087  18.558  0.00  0.00    +0.000 N 
ATOM     20  C   UNL     1      54.663   1.602  18.293  0.00  0.00    +0.000 C 
ATOM     21  O   UNL     1      55.478   2.202  17.598  0.00  0.00    +0.000 OA
ATOM     22  H   UNL     1      52.854   1.616  19.258  0.00  0.00    +0.000 HD
BRANCH  20  23
ATOM     23  C   UNL     1      54.953   0.274  18.851  0.00  0.00    +0.000 A 
ATOM     24  C   UNL     1      55.170   0.120  20.211  0.00  0.00    +0.000 A 
ATOM     25  S   UNL     1      55.510  -1.489  20.667  0.00  0.00    +0.000 S 
ATOM     26  C   UNL     1      55.339  -2.039  19.067  0.00  0.00    +0.000 A 
ATOM     27  N   UNL     1      55.478  -3.355  18.760  0.00  0.00    +0.000 NA
ATOM     28  C   UNL     1      55.294  -3.639  17.512  0.00  0.00    +0.000 A 
ATOM     29  N   UNL     1      54.988  -2.731  16.522  0.00  0.00    +0.000 N 
ATOM     30  C   UNL     1      54.813  -3.160  15.149  0.00  0.00    +0.000 C 
ATOM     31  C   UNL     1      54.877  -1.372  16.793  0.00  0.00    +0.000 A 
ATOM     32  O   UNL     1      54.681  -0.537  15.914  0.00  0.00    +0.000 OA
ATOM     33  C   UNL     1      55.052  -1.011  18.190  0.00  0.00    +0.000 A 
ENDBRANCH  20  23
ENDBRANCH   2  19
TORSDOF 6
ENDMDL
