MODEL 1
REMARK VINA RESULT:    -8.027      0.000      0.000
REMARK INTER + INTRA:         -12.898
REMARK INTER:                 -12.016
REMARK INTRA:                  -0.882
REMARK UNBOUND:                -0.882
REMARK  Name = 
REMARK  10 active torsions:
REMARK  status: ('A' for Active; 'I' for Inactive)
REMARK    1  A    between atoms: C_1  and  C_2
REMARK    2  A    between atoms: C_2  and  N_3
REMARK    3  A    between atoms: C_2  and  C_20
REMARK    4  A    between atoms: N_3  and  C_4
REMARK    5  A    between atoms: C_4  and  C_5
REMARK    6  A    between atoms: C_8  and  C_9
REMARK    7  A    between atoms: C_9  and  O_10
REMARK    8  A    between atoms: C_9  and  C_11
REMARK    9  A    between atoms: C_11  and  N_12
REMARK   10  A    between atoms: N_12  and  C_13
REMARK                            x       y       z     vdW  Elec       q    Type
REMARK                         _______ _______ _______ _____ _____    ______ ____
ROOT
ATOM      1  C   UNL     1      46.608   5.019  13.507  0.00  0.00    +0.000 A 
ATOM      2  C   UNL     1      46.091   5.978  12.642  0.00  0.00    +0.000 A 
ATOM      3  C   UNL     1      45.208   5.615  11.645  0.00  0.00    +0.000 A 
ATOM      4  C   UNL     1      44.795   4.281  11.490  0.00  0.00    +0.000 A 
ATOM      5  C   UNL     1      45.321   3.329  12.362  0.00  0.00    +0.000 A 
ATOM      6  C   UNL     1      46.200   3.685  13.375  0.00  0.00    +0.000 A 
ENDROOT
BRANCH   1   7
ATOM      7  C   UNL     1      47.678   5.397  14.488  0.00  0.00    +0.000 C 
BRANCH   7   8
ATOM      8  N   UNL     1      47.272   5.179  15.868  0.00  0.00    +0.000 NA
ATOM      9  H   UNL     1      47.541   5.996  16.422  0.00  0.00    +0.000 HD
BRANCH   8  11
ATOM     10  C   UNL     1      46.982   3.183  17.336  0.00  0.00    +0.000 C 
ATOM     11  C   UNL     1      47.929   4.002  16.449  0.00  0.00    +0.000 C 
BRANCH  11  12
ATOM     12  C   UNL     1      49.098   4.496  17.273  0.00  0.00    +0.000 A 
ATOM     13  C   UNL     1      49.152   5.737  17.896  0.00  0.00    +0.000 A 
ATOM     14  S   UNL     1      50.557   5.956  18.835  0.00  0.00    +0.000 S 
ATOM     15  C   UNL     1      51.141   4.406  18.437  0.00  0.00    +0.000 A 
ATOM     16  N   UNL     1      52.310   3.949  18.940  0.00  0.00    +0.000 NA
ATOM     17  C   UNL     1      52.617   2.743  18.555  0.00  0.00    +0.000 A 
ATOM     18  N   UNL     1      51.863   1.976  17.712  0.00  0.00    +0.000 N 
ATOM     19  C   UNL     1      50.660   2.393  17.175  0.00  0.00    +0.000 A 
ATOM     20  O   UNL     1      50.007   1.678  16.436  0.00  0.00    +0.000 OA
ATOM     21  C   UNL     1      50.276   3.734  17.585  0.00  0.00    +0.000 A 
ATOM     22  H   UNL     1      52.163   1.049  17.452  0.00  0.00    +0.000 HD
ENDBRANCH  11  12
ENDBRANCH   8  11
ENDBRANCH   7   8
ENDBRANCH   1   7
BRANCH   4  23
ATOM     23  C   UNL     1      43.823   3.852  10.415  0.00  0.00    +0.000 C 
BRANCH  23  24
ATOM     24  O   UNL     1      43.701   4.900   9.444  0.00  0.00    +0.000 OA
ATOM     25  H   UNL     1      43.022   5.514   9.774  0.00  0.00    +0.000 HD
ENDBRANCH  23  24
BRANCH  23  26
ATOM     26  C   UNL     1      44.298   2.579   9.671  0.00  0.00    +0.000 C 
BRANCH  26  27
ATOM     27  N   UNL     1      44.692   2.735   8.258  0.00  0.00    +0.000 NA
ATOM     28  H   UNL     1      44.329   3.632   7.936  0.00  0.00    +0.000 HD
BRANCH  27  29
ATOM     29  C   UNL     1      46.164   2.704   8.119  0.00  0.00    +0.000 C 
ATOM     30  C   UNL     1      46.700   3.658   7.052  0.00  0.00    +0.000 C 
ATOM     31  C   UNL     1      46.871   2.800   5.812  0.00  0.00    +0.000 C 
ATOM     32  N   UNL     1      47.276   1.481   6.300  0.00  0.00    +0.000 NA
ATOM     33  C   UNL     1      46.752   1.348   7.670  0.00  0.00    +0.000 C 
ATOM     34  H   UNL     1      48.292   1.434   6.333  0.00  0.00    +0.000 HD
ENDBRANCH  27  29
ENDBRANCH  26  27
ENDBRANCH  23  26
ENDBRANCH   4  23
TORSDOF 9
ENDMDL
MODEL 2
REMARK VINA RESULT:    -7.862      1.396      1.944
REMARK INTER + INTRA:         -12.650
REMARK INTER:                 -11.753
REMARK INTRA:                  -0.897
REMARK UNBOUND:                -0.882
REMARK  Name = 
REMARK  10 active torsions:
REMARK  status: ('A' for Active; 'I' for Inactive)
REMARK    1  A    between atoms: C_1  and  C_2
REMARK    2  A    between atoms: C_2  and  N_3
REMARK    3  A    between atoms: C_2  and  C_20
REMARK    4  A    between atoms: N_3  and  C_4
REMARK    5  A    between atoms: C_4  and  C_5
REMARK    6  A    between atoms: C_8  and  C_9
REMARK    7  A    between atoms: C_9  and  O_10
REMARK    8  A    between atoms: C_9  and  C_11
REMARK    9  A    between atoms: C_11  and  N_12
REMARK   10  A    between atoms: N_12  and  C_13
REMARK                            x       y       z     vdW  Elec       q    Type
REMARK                         _______ _______ _______ _____ _____    ______ ____
ROOT
ATOM      1  C   UNL     1      47.088   5.990  13.894  0.00  0.00    +0.000 A 
ATOM      2  C   UNL     1      46.336   4.820  13.889  0.00  0.00    +0.000 A 
ATOM      3  C   UNL     1      45.110   4.780  13.256  0.00  0.00    +0.000 A 
ATOM      4  C   UNL     1      44.599   5.907  12.589  0.00  0.00    +0.000 A 
ATOM      5  C   UNL     1      45.362   7.074  12.603  0.00  0.00    +0.000 A 
ATOM      6  C   UNL     1      46.601   7.121  13.225  0.00  0.00    +0.000 A 
ENDROOT
BRANCH   1   7
ATOM      7  C   UNL     1      48.346   6.067  14.708  0.00  0.00    +0.000 C 
BRANCH   7   8
ATOM      8  N   UNL     1      48.088   6.024  16.139  0.00  0.00    +0.000 NA
ATOM      9  H   UNL     1      48.761   6.632  16.612  0.00  0.00    +0.000 HD
BRANCH   8  11
ATOM     10  C   UNL     1      47.175   4.328  17.724  0.00  0.00    +0.000 C 
ATOM     11  C   UNL     1      48.246   4.668  16.679  0.00  0.00    +0.000 C 
BRANCH  11  12
ATOM     12  C   UNL     1      49.617   4.590  17.314  0.00  0.00    +0.000 A 
ATOM     13  C   UNL     1      50.227   5.633  17.999  0.00  0.00    +0.000 A 
ATOM     14  S   UNL     1      51.725   5.201  18.686  0.00  0.00    +0.000 S 
ATOM     15  C   UNL     1      51.613   3.610  18.087  0.00  0.00    +0.000 A 
ATOM     16  N   UNL     1      52.576   2.697  18.342  0.00  0.00    +0.000 NA
ATOM     17  C   UNL     1      52.344   1.524  17.827  0.00  0.00    +0.000 A 
ATOM     18  N   UNL     1      51.244   1.201  17.082  0.00  0.00    +0.000 N 
ATOM     19  C   UNL     1      50.229   2.093  16.798  0.00  0.00    +0.000 A 
ATOM     20  O   UNL     1      49.256   1.769  16.140  0.00  0.00    +0.000 OA
ATOM     21  C   UNL     1      50.446   3.417  17.359  0.00  0.00    +0.000 A 
ATOM     22  H   UNL     1      51.129   0.270  16.711  0.00  0.00    +0.000 HD
ENDBRANCH  11  12
ENDBRANCH   8  11
ENDBRANCH   7   8
ENDBRANCH   1   7
BRANCH   4  23
ATOM     23  C   UNL     1      43.265   5.895  11.880  0.00  0.00    +0.000 C 
BRANCH  23  24
ATOM     24  O   UNL     1      43.168   7.051  11.037  0.00  0.00    +0.000 OA
ATOM     25  H   UNL     1      44.061   7.435  10.980  0.00  0.00    +0.000 HD
ENDBRANCH  23  24
BRANCH  23  26
ATOM     26  C   UNL     1      43.093   4.646  10.980  0.00  0.00    +0.000 C 
BRANCH  26  27
ATOM     27  N   UNL     1      43.667   4.711   9.623  0.00  0.00    +0.000 NA
ATOM     28  H   UNL     1      43.688   5.692   9.347  0.00  0.00    +0.000 HD
BRANCH  27  29
ATOM     29  C   UNL     1      45.035   4.149   9.605  0.00  0.00    +0.000 C 
ATOM     30  C   UNL     1      45.844   4.539   8.369  0.00  0.00    +0.000 C 
ATOM     31  C   UNL     1      45.681   3.372   7.412  0.00  0.00    +0.000 C 
ATOM     32  N   UNL     1      45.617   2.178   8.257  0.00  0.00    +0.000 NA
ATOM     33  C   UNL     1      45.109   2.606   9.572  0.00  0.00    +0.000 C 
ATOM     34  H   UNL     1      46.555   1.802   8.376  0.00  0.00    +0.000 HD
ENDBRANCH  27  29
ENDBRANCH  26  27
ENDBRANCH  23  26
ENDBRANCH   4  23
TORSDOF 9
ENDMDL
MODEL 3
REMARK VINA RESULT:    -7.593      1.636      2.147
REMARK INTER + INTRA:         -12.248
REMARK INTER:                 -11.103
REMARK INTRA:                  -1.144
REMARK UNBOUND:                -0.882
REMARK  Name = 
REMARK  10 active torsions:
REMARK  status: ('A' for Active; 'I' for Inactive)
REMARK    1  A    between atoms: C_1  and  C_2
REMARK    2  A    between atoms: C_2  and  N_3
REMARK    3  A    between atoms: C_2  and  C_20
REMARK    4  A    between atoms: N_3  and  C_4
REMARK    5  A    between atoms: C_4  and  C_5
REMARK    6  A    between atoms: C_8  and  C_9
REMARK    7  A    between atoms: C_9  and  O_10
REMARK    8  A    between atoms: C_9  and  C_11
REMARK    9  A    between atoms: C_11  and  N_12
REMARK   10  A    between atoms: N_12  and  C_13
REMARK                            x       y       z     vdW  Elec       q    Type
REMARK                         _______ _______ _______ _____ _____    ______ ____
ROOT
ATOM      1  C   UNL     1      47.050   5.871  12.900  0.00  0.00    +0.000 A 
ATOM      2  C   UNL     1      46.399   4.745  13.392  0.00  0.00    +0.000 A 
ATOM      3  C   UNL     1      45.374   4.161  12.673  0.00  0.00    +0.000 A 
ATOM      4  C   UNL     1      44.976   4.674  11.427  0.00  0.00    +0.000 A 
ATOM      5  C   UNL     1      45.636   5.804  10.946  0.00  0.00    +0.000 A 
ATOM      6  C   UNL     1      46.675   6.391  11.654  0.00  0.00    +0.000 A 
ENDROOT
BRANCH   1   7
ATOM      7  C   UNL     1      48.057   6.584  13.753  0.00  0.00    +0.000 C 
BRANCH   7   8
ATOM      8  N   UNL     1      48.153   6.021  15.091  0.00  0.00    +0.000 NA
ATOM      9  H   UNL     1      47.212   5.781  15.414  0.00  0.00    +0.000 HD
BRANCH   8  11
ATOM     10  C   UNL     1      48.633   8.426  15.545  0.00  0.00    +0.000 C 
ATOM     11  C   UNL     1      48.728   6.979  16.044  0.00  0.00    +0.000 C 
BRANCH  11  12
ATOM     12  C   UNL     1      50.180   6.604  16.243  0.00  0.00    +0.000 A 
ATOM     13  C   UNL     1      51.255   7.344  15.768  0.00  0.00    +0.000 A 
ATOM     14  S   UNL     1      52.766   6.717  16.244  0.00  0.00    +0.000 S 
ATOM     15  C   UNL     1      52.036   5.434  17.095  0.00  0.00    +0.000 A 
ATOM     16  N   UNL     1      52.780   4.526  17.765  0.00  0.00    +0.000 NA
ATOM     17  C   UNL     1      52.079   3.613  18.375  0.00  0.00    +0.000 A 
ATOM     18  N   UNL     1      50.715   3.534  18.359  0.00  0.00    +0.000 N 
ATOM     19  C   UNL     1      49.909   4.438  17.696  0.00  0.00    +0.000 A 
ATOM     20  O   UNL     1      48.694   4.345  17.711  0.00  0.00    +0.000 OA
ATOM     21  C   UNL     1      50.651   5.479  17.004  0.00  0.00    +0.000 A 
ATOM     22  H   UNL     1      50.236   2.797  18.853  0.00  0.00    +0.000 HD
ENDBRANCH  11  12
ENDBRANCH   8  11
ENDBRANCH   7   8
ENDBRANCH   1   7
BRANCH   4  23
ATOM     23  C   UNL     1      43.865   4.054  10.611  0.00  0.00    +0.000 C 
BRANCH  23  24
ATOM     24  O   UNL     1      43.405   5.005   9.642  0.00  0.00    +0.000 OA
ATOM     25  H   UNL     1      43.582   5.890  10.007  0.00  0.00    +0.000 HD
ENDBRANCH  23  24
BRANCH  23  26
ATOM     26  C   UNL     1      44.336   2.795   9.843  0.00  0.00    +0.000 C 
BRANCH  26  27
ATOM     27  N   UNL     1      44.674   2.965   8.417  0.00  0.00    +0.000 NA
ATOM     28  H   UNL     1      44.368   3.897   8.140  0.00  0.00    +0.000 HD
BRANCH  27  29
ATOM     29  C   UNL     1      46.131   2.825   8.204  0.00  0.00    +0.000 C 
ATOM     30  C   UNL     1      46.660   3.637   7.022  0.00  0.00    +0.000 C 
ATOM     31  C   UNL     1      46.706   2.656   5.864  0.00  0.00    +0.000 C 
ATOM     32  N   UNL     1      47.058   1.365   6.458  0.00  0.00    +0.000 NA
ATOM     33  C   UNL     1      46.609   1.397   7.860  0.00  0.00    +0.000 C 
ATOM     34  H   UNL     1      48.070   1.255   6.441  0.00  0.00    +0.000 HD
ENDBRANCH  27  29
ENDBRANCH  26  27
ENDBRANCH  23  26
ENDBRANCH   4  23
TORSDOF 9
ENDMDL
MODEL 4
REMARK VINA RESULT:    -7.456      2.654      3.441
REMARK INTER + INTRA:         -12.043
REMARK INTER:                 -11.001
REMARK INTRA:                  -1.042
REMARK UNBOUND:                -0.882
REMARK  Name = 
REMARK  10 active torsions:
REMARK  status: ('A' for Active; 'I' for Inactive)
REMARK    1  A    between atoms: C_1  and  C_2
REMARK    2  A    between atoms: C_2  and  N_3
REMARK    3  A    between atoms: C_2  and  C_20
REMARK    4  A    between atoms: N_3  and  C_4
REMARK    5  A    between atoms: C_4  and  C_5
REMARK    6  A    between atoms: C_8  and  C_9
REMARK    7  A    between atoms: C_9  and  O_10
REMARK    8  A    between atoms: C_9  and  C_11
REMARK    9  A    between atoms: C_11  and  N_12
REMARK   10  A    between atoms: N_12  and  C_13
REMARK                            x       y       z     vdW  Elec       q    Type
REMARK                         _______ _______ _______ _____ _____    ______ ____
ROOT
ATOM      1  C   UNL     1      46.805   6.189  12.726  0.00  0.00    +0.000 A 
ATOM      2  C   UNL     1      46.111   5.126  13.295  0.00  0.00    +0.000 A 
ATOM      3  C   UNL     1      45.178   4.427  12.555  0.00  0.00    +0.000 A 
ATOM      4  C   UNL     1      44.919   4.754  11.213  0.00  0.00    +0.000 A 
ATOM      5  C   UNL     1      45.621   5.822  10.656  0.00  0.00    +0.000 A 
ATOM      6  C   UNL     1      46.569   6.524  11.386  0.00  0.00    +0.000 A 
ENDROOT
BRANCH   1   7
ATOM      7  C   UNL     1      47.705   7.035  13.578  0.00  0.00    +0.000 C 
BRANCH   7   8
ATOM      8  N   UNL     1      48.681   6.246  14.314  0.00  0.00    +0.000 NA
ATOM      9  H   UNL     1      48.249   5.359  14.584  0.00  0.00    +0.000 HD
BRANCH   8  11
ATOM     10  C   UNL     1      50.644   7.087  15.602  0.00  0.00    +0.000 C 
ATOM     11  C   UNL     1      49.120   6.927  15.537  0.00  0.00    +0.000 C 
BRANCH  11  12
ATOM     12  C   UNL     1      48.645   6.101  16.712  0.00  0.00    +0.000 A 
ATOM     13  C   UNL     1      48.505   4.718  16.695  0.00  0.00    +0.000 A 
ATOM     14  S   UNL     1      48.050   4.071  18.204  0.00  0.00    +0.000 S 
ATOM     15  C   UNL     1      48.017   5.613  18.927  0.00  0.00    +0.000 A 
ATOM     16  N   UNL     1      47.718   5.765  20.237  0.00  0.00    +0.000 NA
ATOM     17  C   UNL     1      47.745   7.001  20.647  0.00  0.00    +0.000 A 
ATOM     18  N   UNL     1      48.035   8.079  19.859  0.00  0.00    +0.000 N 
ATOM     19  C   UNL     1      48.353   7.978  18.518  0.00  0.00    +0.000 A 
ATOM     20  O   UNL     1      48.618   8.960  17.847  0.00  0.00    +0.000 OA
ATOM     21  C   UNL     1      48.340   6.612  18.020  0.00  0.00    +0.000 A 
ATOM     22  H   UNL     1      48.036   9.012  20.242  0.00  0.00    +0.000 HD
ENDBRANCH  11  12
ENDBRANCH   8  11
ENDBRANCH   7   8
ENDBRANCH   1   7
BRANCH   4  23
ATOM     23  C   UNL     1      43.911   4.003  10.374  0.00  0.00    +0.000 C 
BRANCH  23  24
ATOM     24  O   UNL     1      43.665   4.735   9.166  0.00  0.00    +0.000 OA
ATOM     25  H   UNL     1      43.504   4.079   8.466  0.00  0.00    +0.000 HD
ENDBRANCH  23  24
BRANCH  23  26
ATOM     26  C   UNL     1      44.418   2.595   9.972  0.00  0.00    +0.000 C 
BRANCH  26  27
ATOM     27  N   UNL     1      44.724   2.374   8.546  0.00  0.00    +0.000 NA
ATOM     28  H   UNL     1      44.271   3.118   8.017  0.00  0.00    +0.000 HD
BRANCH  27  29
ATOM     29  C   UNL     1      46.185   2.403   8.313  0.00  0.00    +0.000 C 
ATOM     30  C   UNL     1      46.623   3.455   7.296  0.00  0.00    +0.000 C 
ATOM     31  C   UNL     1      46.737   2.703   5.982  0.00  0.00    +0.000 C 
ATOM     32  N   UNL     1      47.210   1.363   6.337  0.00  0.00    +0.000 NA
ATOM     33  C   UNL     1      46.780   1.106   7.722  0.00  0.00    +0.000 C 
ATOM     34  H   UNL     1      48.227   1.347   6.302  0.00  0.00    +0.000 HD
ENDBRANCH  27  29
ENDBRANCH  26  27
ENDBRANCH  23  26
ENDBRANCH   4  23
TORSDOF 9
ENDMDL
MODEL 5
REMARK VINA RESULT:    -7.282      2.505      3.208
REMARK INTER + INTRA:         -11.783
REMARK INTER:                 -10.301
REMARK INTRA:                  -1.482
REMARK UNBOUND:                -0.882
REMARK  Name = 
REMARK  10 active torsions:
REMARK  status: ('A' for Active; 'I' for Inactive)
REMARK    1  A    between atoms: C_1  and  C_2
REMARK    2  A    between atoms: C_2  and  N_3
REMARK    3  A    between atoms: C_2  and  C_20
REMARK    4  A    between atoms: N_3  and  C_4
REMARK    5  A    between atoms: C_4  and  C_5
REMARK    6  A    between atoms: C_8  and  C_9
REMARK    7  A    between atoms: C_9  and  O_10
REMARK    8  A    between atoms: C_9  and  C_11
REMARK    9  A    between atoms: C_11  and  N_12
REMARK   10  A    between atoms: N_12  and  C_13
REMARK                            x       y       z     vdW  Elec       q    Type
REMARK                         _______ _______ _______ _____ _____    ______ ____
ROOT
ATOM      1  C   UNL     1      47.420   6.241  13.281  0.00  0.00    +0.000 A 
ATOM      2  C   UNL     1      47.216   4.886  13.519  0.00  0.00    +0.000 A 
ATOM      3  C   UNL     1      45.949   4.344  13.426  0.00  0.00    +0.000 A 
ATOM      4  C   UNL     1      44.843   5.136  13.075  0.00  0.00    +0.000 A 
ATOM      5  C   UNL     1      45.061   6.493  12.842  0.00  0.00    +0.000 A 
ATOM      6  C   UNL     1      46.331   7.046  12.920  0.00  0.00    +0.000 A 
ENDROOT
BRANCH   1   7
ATOM      7  C   UNL     1      48.769   6.848  13.530  0.00  0.00    +0.000 C 
BRANCH   7   8
ATOM      8  N   UNL     1      49.246   6.613  14.884  0.00  0.00    +0.000 NA
ATOM      9  H   UNL     1      49.042   5.643  15.140  0.00  0.00    +0.000 HD
BRANCH   8  11
ATOM     10  C   UNL     1      48.701   8.971  15.485  0.00  0.00    +0.000 C 
ATOM     11  C   UNL     1      48.579   7.487  15.855  0.00  0.00    +0.000 C 
BRANCH  11  12
ATOM     12  C   UNL     1      49.224   7.246  17.202  0.00  0.00    +0.000 A 
ATOM     13  C   UNL     1      50.123   8.114  17.810  0.00  0.00    +0.000 A 
ATOM     14  S   UNL     1      50.593   7.610  19.369  0.00  0.00    +0.000 S 
ATOM     15  C   UNL     1      49.619   6.215  19.281  0.00  0.00    +0.000 A 
ATOM     16  N   UNL     1      49.546   5.347  20.315  0.00  0.00    +0.000 NA
ATOM     17  C   UNL     1      48.752   4.336  20.103  0.00  0.00    +0.000 A 
ATOM     18  N   UNL     1      48.045   4.126  18.952  0.00  0.00    +0.000 N 
ATOM     19  C   UNL     1      48.080   4.983  17.870  0.00  0.00    +0.000 A 
ATOM     20  O   UNL     1      47.428   4.771  16.863  0.00  0.00    +0.000 OA
ATOM     21  C   UNL     1      48.952   6.130  18.066  0.00  0.00    +0.000 A 
ATOM     22  H   UNL     1      47.449   3.317  18.854  0.00  0.00    +0.000 HD
ENDBRANCH  11  12
ENDBRANCH   8  11
ENDBRANCH   7   8
ENDBRANCH   1   7
BRANCH   4  23
ATOM     23  C   UNL     1      43.446   4.572  12.956  0.00  0.00    +0.000 C 
BRANCH  23  24
ATOM     24  O   UNL     1      42.505   5.538  13.444  0.00  0.00    +0.000 OA
ATOM     25  H   UNL     1      41.619   5.222  13.194  0.00  0.00    +0.000 HD
ENDBRANCH  23  24
BRANCH  23  26
ATOM     26  C   UNL     1      43.067   4.251  11.489  0.00  0.00    +0.000 C 
BRANCH  26  27
ATOM     27  N   UNL     1      43.443   2.921  10.974  0.00  0.00    +0.000 NA
ATOM     28  H   UNL     1      42.732   2.643  10.299  0.00  0.00    +0.000 HD
BRANCH  27  29
ATOM     29  C   UNL     1      44.771   2.967  10.323  0.00  0.00    +0.000 C 
ATOM     30  C   UNL     1      45.080   4.305   9.653  0.00  0.00    +0.000 C 
ATOM     31  C   UNL     1      44.711   4.106   8.195  0.00  0.00    +0.000 C 
ATOM     32  N   UNL     1      45.039   2.712   7.893  0.00  0.00    +0.000 NA
ATOM     33  C   UNL     1      44.966   1.967   9.162  0.00  0.00    +0.000 C 
ATOM     34  H   UNL     1      45.993   2.662   7.540  0.00  0.00    +0.000 HD
ENDBRANCH  27  29
ENDBRANCH  26  27
ENDBRANCH  23  26
ENDBRANCH   4  23
TORSDOF 9
ENDMDL
MODEL 6
REMARK VINA RESULT:    -6.990      2.965      4.093
REMARK INTER + INTRA:         -11.345
REMARK INTER:                 -10.322
REMARK INTRA:                  -1.023
REMARK UNBOUND:                -0.882
REMARK  Name = 
REMARK  10 active torsions:
REMARK  status: ('A' for Active; 'I' for Inactive)
REMARK    1  A    between atoms: C_1  and  C_2
REMARK    2  A    between atoms: C_2  and  N_3
REMARK    3  A    between atoms: C_2  and  C_20
REMARK    4  A    between atoms: N_3  and  C_4
REMARK    5  A    between atoms: C_4  and  C_5
REMARK    6  A    between atoms: C_8  and  C_9
REMARK    7  A    between atoms: C_9  and  O_10
REMARK    8  A    between atoms: C_9  and  C_11
REMARK    9  A    between atoms: C_11  and  N_12
REMARK   10  A    between atoms: N_12  and  C_13
REMARK                            x       y       z     vdW  Elec       q    Type
REMARK                         _______ _______ _______ _____ _____    ______ ____
ROOT
ATOM      1  C   UNL     1      47.525   6.888  13.484  0.00  0.00    +0.000 A 
ATOM      2  C   UNL     1      47.259   5.552  13.764  0.00  0.00    +0.000 A 
ATOM      3  C   UNL     1      46.020   5.013  13.480  0.00  0.00    +0.000 A 
ATOM      4  C   UNL     1      45.007   5.789  12.890  0.00  0.00    +0.000 A 
ATOM      5  C   UNL     1      45.286   7.127  12.618  0.00  0.00    +0.000 A 
ATOM      6  C   UNL     1      46.532   7.675  12.886  0.00  0.00    +0.000 A 
ENDROOT
BRANCH   1   7
ATOM      7  C   UNL     1      48.820   7.502  13.930  0.00  0.00    +0.000 C 
BRANCH   7   8
ATOM      8  N   UNL     1      49.622   6.590  14.732  0.00  0.00    +0.000 NA
ATOM      9  H   UNL     1      49.097   5.721  14.865  0.00  0.00    +0.000 HD
BRANCH   8  11
ATOM     10  C   UNL     1      51.417   7.143  16.373  0.00  0.00    +0.000 C 
ATOM     11  C   UNL     1      49.916   7.148  16.058  0.00  0.00    +0.000 C 
BRANCH  11  12
ATOM     12  C   UNL     1      49.180   6.306  17.077  0.00  0.00    +0.000 A 
ATOM     13  C   UNL     1      49.000   4.932  16.980  0.00  0.00    +0.000 A 
ATOM     14  S   UNL     1      48.221   4.258  18.337  0.00  0.00    +0.000 S 
ATOM     15  C   UNL     1      48.091   5.778  19.096  0.00  0.00    +0.000 A 
ATOM     16  N   UNL     1      47.532   5.902  20.321  0.00  0.00    +0.000 NA
ATOM     17  C   UNL     1      47.516   7.123  20.774  0.00  0.00    +0.000 A 
ATOM     18  N   UNL     1      48.000   8.212  20.104  0.00  0.00    +0.000 N 
ATOM     19  C   UNL     1      48.585   8.139  18.855  0.00  0.00    +0.000 A 
ATOM     20  O   UNL     1      49.016   9.129  18.291  0.00  0.00    +0.000 OA
ATOM     21  C   UNL     1      48.628   6.790  18.313  0.00  0.00    +0.000 A 
ATOM     22  H   UNL     1      47.952   9.132  20.515  0.00  0.00    +0.000 HD
ENDBRANCH  11  12
ENDBRANCH   8  11
ENDBRANCH   7   8
ENDBRANCH   1   7
BRANCH   4  23
ATOM     23  C   UNL     1      43.643   5.227  12.560  0.00  0.00    +0.000 C 
BRANCH  23  24
ATOM     24  O   UNL     1      42.738   5.528  13.631  0.00  0.00    +0.000 OA
ATOM     25  H   UNL     1      42.954   6.425  13.941  0.00  0.00    +0.000 HD
ENDBRANCH  23  24
BRANCH  23  26
ATOM     26  C   UNL     1      43.055   5.843  11.266  0.00  0.00    +0.000 C 
BRANCH  26  27
ATOM     27  N   UNL     1      43.315   5.125  10.003  0.00  0.00    +0.000 NA
ATOM     28  H   UNL     1      43.400   5.825   9.266  0.00  0.00    +0.000 HD
BRANCH  27  29
ATOM     29  C   UNL     1      44.562   4.334  10.097  0.00  0.00    +0.000 C 
ATOM     30  C   UNL     1      45.567   4.637   8.988  0.00  0.00    +0.000 C 
ATOM     31  C   UNL     1      45.327   3.565   7.940  0.00  0.00    +0.000 C 
ATOM     32  N   UNL     1      44.962   2.361   8.688  0.00  0.00    +0.000 NA
ATOM     33  C   UNL     1      44.379   2.806   9.966  0.00  0.00    +0.000 C 
ATOM     34  H   UNL     1      45.803   1.821   8.883  0.00  0.00    +0.000 HD
ENDBRANCH  27  29
ENDBRANCH  26  27
ENDBRANCH  23  26
ENDBRANCH   4  23
TORSDOF 9
ENDMDL
MODEL 7
REMARK VINA RESULT:    -6.956      2.885      9.375
REMARK INTER + INTRA:         -11.294
REMARK INTER:                  -9.993
REMARK INTRA:                  -1.302
REMARK UNBOUND:                -0.882
REMARK  Name = 
REMARK  10 active torsions:
REMARK  status: ('A' for Active; 'I' for Inactive)
REMARK    1  A    between atoms: C_1  and  C_2
REMARK    2  A    between atoms: C_2  and  N_3
REMARK    3  A    between atoms: C_2  and  C_20
REMARK    4  A    between atoms: N_3  and  C_4
REMARK    5  A    between atoms: C_4  and  C_5
REMARK    6  A    between atoms: C_8  and  C_9
REMARK    7  A    between atoms: C_9  and  O_10
REMARK    8  A    between atoms: C_9  and  C_11
REMARK    9  A    between atoms: C_11  and  N_12
REMARK   10  A    between atoms: N_12  and  C_13
REMARK                            x       y       z     vdW  Elec       q    Type
REMARK                         _______ _______ _______ _____ _____    ______ ____
ROOT
ATOM      1  C   UNL     1      47.342   5.992  13.799  0.00  0.00    +0.000 A 
ATOM      2  C   UNL     1      48.057   6.330  14.943  0.00  0.00    +0.000 A 
ATOM      3  C   UNL     1      48.342   5.372  15.896  0.00  0.00    +0.000 A 
ATOM      4  C   UNL     1      47.937   4.037  15.729  0.00  0.00    +0.000 A 
ATOM      5  C   UNL     1      47.219   3.712  14.580  0.00  0.00    +0.000 A 
ATOM      6  C   UNL     1      46.938   4.663  13.610  0.00  0.00    +0.000 A 
ENDROOT
BRANCH   1   7
ATOM      7  C   UNL     1      46.908   7.065  12.844  0.00  0.00    +0.000 C 
BRANCH   7   8
ATOM      8  N   UNL     1      46.749   6.571  11.485  0.00  0.00    +0.000 NA
ATOM      9  H   UNL     1      47.334   7.133  10.861  0.00  0.00    +0.000 HD
BRANCH   8  11
ATOM     10  C   UNL     1      44.529   7.628  11.904  0.00  0.00    +0.000 C 
ATOM     11  C   UNL     1      45.359   6.684  11.025  0.00  0.00    +0.000 C 
BRANCH  11  12
ATOM     12  C   UNL     1      44.756   5.297  11.058  0.00  0.00    +0.000 A 
ATOM     13  C   UNL     1      43.917   4.828  12.061  0.00  0.00    +0.000 A 
ATOM     14  S   UNL     1      43.320   3.261  11.760  0.00  0.00    +0.000 S 
ATOM     15  C   UNL     1      44.166   3.154  10.284  0.00  0.00    +0.000 A 
ATOM     16  N   UNL     1      44.068   2.057   9.500  0.00  0.00    +0.000 NA
ATOM     17  C   UNL     1      44.762   2.129   8.400  0.00  0.00    +0.000 A 
ATOM     18  N   UNL     1      45.540   3.191   8.035  0.00  0.00    +0.000 N 
ATOM     19  C   UNL     1      45.670   4.336   8.796  0.00  0.00    +0.000 A 
ATOM     20  O   UNL     1      46.364   5.270   8.435  0.00  0.00    +0.000 OA
ATOM     21  C   UNL     1      44.906   4.301  10.033  0.00  0.00    +0.000 A 
ATOM     22  H   UNL     1      46.055   3.178   7.167  0.00  0.00    +0.000 HD
ENDBRANCH  11  12
ENDBRANCH   8  11
ENDBRANCH   7   8
ENDBRANCH   1   7
BRANCH   4  23
ATOM     23  C   UNL     1      48.241   2.964  16.749  0.00  0.00    +0.000 C 
BRANCH  23  24
ATOM     24  O   UNL     1      48.985   1.912  16.119  0.00  0.00    +0.000 OA
ATOM     25  H   UNL     1      49.614   2.337  15.509  0.00  0.00    +0.000 HD
ENDBRANCH  23  24
BRANCH  23  26
ATOM     26  C   UNL     1      49.094   3.499  17.926  0.00  0.00    +0.000 C 
BRANCH  26  27
ATOM     27  N   UNL     1      48.474   3.490  19.264  0.00  0.00    +0.000 NA
ATOM     28  H   UNL     1      48.754   2.624  19.724  0.00  0.00    +0.000 HD
BRANCH  27  29
ATOM     29  C   UNL     1      48.925   4.654  20.058  0.00  0.00    +0.000 C 
ATOM     30  C   UNL     1      47.824   5.681  20.321  0.00  0.00    +0.000 C 
ATOM     31  C   UNL     1      48.007   6.733  19.242  0.00  0.00    +0.000 C 
ATOM     32  N   UNL     1      49.451   6.816  19.016  0.00  0.00    +0.000 NA
ATOM     33  C   UNL     1      50.024   5.513  19.395  0.00  0.00    +0.000 C 
ATOM     34  H   UNL     1      49.844   7.534  19.622  0.00  0.00    +0.000 HD
ENDBRANCH  27  29
ENDBRANCH  26  27
ENDBRANCH  23  26
ENDBRANCH   4  23
TORSDOF 9
ENDMDL
MODEL 8
REMARK VINA RESULT:    -6.911      3.077      9.217
REMARK INTER + INTRA:         -11.227
REMARK INTER:                  -9.749
REMARK INTRA:                  -1.478
REMARK UNBOUND:                -0.882
REMARK  Name = 
REMARK  10 active torsions:
REMARK  status: ('A' for Active; 'I' for Inactive)
REMARK    1  A    between atoms: C_1  and  C_2
REMARK    2  A    between atoms: C_2  and  N_3
REMARK    3  A    between atoms: C_2  and  C_20
REMARK    4  A    between atoms: N_3  and  C_4
REMARK    5  A    between atoms: C_4  and  C_5
REMARK    6  A    between atoms: C_8  and  C_9
REMARK    7  A    between atoms: C_9  and  O_10
REMARK    8  A    between atoms: C_9  and  C_11
REMARK    9  A    between atoms: C_11  and  N_12
REMARK   10  A    between atoms: N_12  and  C_13
REMARK                            x       y       z     vdW  Elec       q    Type
REMARK                         _______ _______ _______ _____ _____    ______ ____
ROOT
ATOM      1  C   UNL     1      48.562   7.568  13.280  0.00  0.00    +0.000 A 
ATOM      2  C   UNL     1      49.841   8.100  13.401  0.00  0.00    +0.000 A 
ATOM      3  C   UNL     1      50.604   7.835  14.521  0.00  0.00    +0.000 A 
ATOM      4  C   UNL     1      50.119   7.013  15.553  0.00  0.00    +0.000 A 
ATOM      5  C   UNL     1      48.835   6.488  15.420  0.00  0.00    +0.000 A 
ATOM      6  C   UNL     1      48.065   6.737  14.293  0.00  0.00    +0.000 A 
ENDROOT
BRANCH   1   7
ATOM      7  C   UNL     1      47.687   7.981  12.133  0.00  0.00    +0.000 C 
BRANCH   7   8
ATOM      8  N   UNL     1      47.051   6.846  11.480  0.00  0.00    +0.000 NA
ATOM      9  H   UNL     1      47.432   6.755  10.535  0.00  0.00    +0.000 HD
BRANCH   8  11
ATOM     10  C   UNL     1      45.056   8.038  12.387  0.00  0.00    +0.000 C 
ATOM     11  C   UNL     1      45.599   7.030  11.366  0.00  0.00    +0.000 C 
BRANCH  11  12
ATOM     12  C   UNL     1      44.952   5.681  11.591  0.00  0.00    +0.000 A 
ATOM     13  C   UNL     1      44.275   5.316  12.748  0.00  0.00    +0.000 A 
ATOM     14  S   UNL     1      43.571   3.768  12.656  0.00  0.00    +0.000 S 
ATOM     15  C   UNL     1      44.150   3.530  11.071  0.00  0.00    +0.000 A 
ATOM     16  N   UNL     1      43.875   2.396  10.389  0.00  0.00    +0.000 NA
ATOM     17  C   UNL     1      44.376   2.366   9.187  0.00  0.00    +0.000 A 
ATOM     18  N   UNL     1      45.125   3.362   8.627  0.00  0.00    +0.000 N 
ATOM     19  C   UNL     1      45.430   4.542   9.278  0.00  0.00    +0.000 A 
ATOM     20  O   UNL     1      46.092   5.415   8.745  0.00  0.00    +0.000 OA
ATOM     21  C   UNL     1      44.885   4.620  10.624  0.00  0.00    +0.000 A 
ATOM     22  H   UNL     1      45.485   3.271   7.689  0.00  0.00    +0.000 HD
ENDBRANCH  11  12
ENDBRANCH   8  11
ENDBRANCH   7   8
ENDBRANCH   1   7
BRANCH   4  23
ATOM     23  C   UNL     1      50.932   6.697  16.787  0.00  0.00    +0.000 C 
BRANCH  23  24
ATOM     24  O   UNL     1      51.625   7.878  17.211  0.00  0.00    +0.000 OA
ATOM     25  H   UNL     1      50.992   8.615  17.149  0.00  0.00    +0.000 HD
ENDBRANCH  23  24
BRANCH  23  26
ATOM     26  C   UNL     1      50.044   6.228  17.967  0.00  0.00    +0.000 C 
BRANCH  26  27
ATOM     27  N   UNL     1      50.203   4.831  18.414  0.00  0.00    +0.000 NA
ATOM     28  H   UNL     1      50.963   4.813  19.094  0.00  0.00    +0.000 HD
BRANCH  27  29
ATOM     29  C   UNL     1      48.955   4.334  19.035  0.00  0.00    +0.000 C 
ATOM     30  C   UNL     1      48.342   3.138  18.309  0.00  0.00    +0.000 C 
ATOM     31  C   UNL     1      47.288   3.736  17.395  0.00  0.00    +0.000 C 
ATOM     32  N   UNL     1      46.740   4.881  18.124  0.00  0.00    +0.000 NA
ATOM     33  C   UNL     1      47.786   5.343  19.052  0.00  0.00    +0.000 C 
ATOM     34  H   UNL     1      45.933   4.577  18.666  0.00  0.00    +0.000 HD
ENDBRANCH  27  29
ENDBRANCH  26  27
ENDBRANCH  23  26
ENDBRANCH   4  23
TORSDOF 9
ENDMDL
MODEL 9
REMARK VINA RESULT:    -6.759      2.877      4.238
REMARK INTER + INTRA:         -11.000
REMARK INTER:                  -9.444
REMARK INTRA:                  -1.556
REMARK UNBOUND:                -0.882
REMARK  Name = 
REMARK  10 active torsions:
REMARK  status: ('A' for Active; 'I' for Inactive)
REMARK    1  A    between atoms: C_1  and  C_2
REMARK    2  A    between atoms: C_2  and  N_3
REMARK    3  A    between atoms: C_2  and  C_20
REMARK    4  A    between atoms: N_3  and  C_4
REMARK    5  A    between atoms: C_4  and  C_5
REMARK    6  A    between atoms: C_8  and  C_9
REMARK    7  A    between atoms: C_9  and  O_10
REMARK    8  A    between atoms: C_9  and  C_11
REMARK    9  A    between atoms: C_11  and  N_12
REMARK   10  A    between atoms: N_12  and  C_13
REMARK                            x       y       z     vdW  Elec       q    Type
REMARK                         _______ _______ _______ _____ _____    ______ ____
ROOT
ATOM      1  C   UNL     1      48.703   7.946  13.131  0.00  0.00    +0.000 A 
ATOM      2  C   UNL     1      48.313   6.991  12.197  0.00  0.00    +0.000 A 
ATOM      3  C   UNL     1      46.998   6.914  11.784  0.00  0.00    +0.000 A 
ATOM      4  C   UNL     1      46.028   7.804  12.277  0.00  0.00    +0.000 A 
ATOM      5  C   UNL     1      46.431   8.755  13.213  0.00  0.00    +0.000 A 
ATOM      6  C   UNL     1      47.752   8.848  13.626  0.00  0.00    +0.000 A 
ENDROOT
BRANCH   1   7
ATOM      7  C   UNL     1      50.097   7.925  13.684  0.00  0.00    +0.000 C 
BRANCH   7   8
ATOM      8  N   UNL     1      50.261   6.945  14.747  0.00  0.00    +0.000 NA
ATOM      9  H   UNL     1      49.835   6.063  14.448  0.00  0.00    +0.000 HD
BRANCH   8  11
ATOM     10  C   UNL     1      50.261   8.606  16.607  0.00  0.00    +0.000 C 
ATOM     11  C   UNL     1      49.598   7.370  15.985  0.00  0.00    +0.000 C 
BRANCH  11  12
ATOM     12  C   UNL     1      49.668   6.213  16.958  0.00  0.00    +0.000 A 
ATOM     13  C   UNL     1      50.547   6.140  18.031  0.00  0.00    +0.000 A 
ATOM     14  S   UNL     1      50.310   4.760  19.001  0.00  0.00    +0.000 S 
ATOM     15  C   UNL     1      49.032   4.210  18.018  0.00  0.00    +0.000 A 
ATOM     16  N   UNL     1      48.364   3.072  18.310  0.00  0.00    +0.000 NA
ATOM     17  C   UNL     1      47.407   2.789  17.474  0.00  0.00    +0.000 A 
ATOM     18  N   UNL     1      47.078   3.540  16.380  0.00  0.00    +0.000 N 
ATOM     19  C   UNL     1      47.724   4.712  16.039  0.00  0.00    +0.000 A 
ATOM     20  O   UNL     1      47.398   5.364  15.063  0.00  0.00    +0.000 OA
ATOM     21  C   UNL     1      48.799   5.069  16.952  0.00  0.00    +0.000 A 
ATOM     22  H   UNL     1      46.324   3.260  15.771  0.00  0.00    +0.000 HD
ENDBRANCH  11  12
ENDBRANCH   8  11
ENDBRANCH   7   8
ENDBRANCH   1   7
BRANCH   4  23
ATOM     23  C   UNL     1      44.583   7.753  11.838  0.00  0.00    +0.000 C 
BRANCH  23  24
ATOM     24  O   UNL     1      44.382   8.686  10.768  0.00  0.00    +0.000 OA
ATOM     25  H   UNL     1      44.433   8.181   9.938  0.00  0.00    +0.000 HD
ENDBRANCH  23  24
BRANCH  23  26
ATOM     26  C   UNL     1      44.179   6.351  11.317  0.00  0.00    +0.000 C 
BRANCH  26  27
ATOM     27  N   UNL     1      43.644   5.395  12.305  0.00  0.00    +0.000 NA
ATOM     28  H   UNL     1      42.663   5.236  12.075  0.00  0.00    +0.000 HD
BRANCH  27  29
ATOM     29  C   UNL     1      44.390   4.118  12.255  0.00  0.00    +0.000 C 
ATOM     30  C   UNL     1      45.103   3.875  10.927  0.00  0.00    +0.000 C 
ATOM     31  C   UNL     1      44.154   2.998  10.129  0.00  0.00    +0.000 C 
ATOM     32  N   UNL     1      43.500   2.133  11.112  0.00  0.00    +0.000 NA
ATOM     33  C   UNL     1      43.523   2.847  12.400  0.00  0.00    +0.000 C 
ATOM     34  H   UNL     1      44.034   1.271  11.207  0.00  0.00    +0.000 HD
ENDBRANCH  27  29
ENDBRANCH  26  27
ENDBRANCH  23  26
ENDBRANCH   4  23
TORSDOF 9
ENDMDL
