MODEL 1
REMARK VINA RESULT:    -7.895      0.000      0.000
REMARK INTER + INTRA:         -10.760
REMARK INTER:                  -9.972
REMARK INTRA:                  -0.787
REMARK UNBOUND:                -0.787
REMARK  Name = 
REMARK  5 active torsions:
REMARK  status: ('A' for Active; 'I' for Inactive)
REMARK    1  A    between atoms: N_1  and  C_2
REMARK    2  A    between atoms: C_2  and  C_3
REMARK    3  A    between atoms: C_3  and  C_4
REMARK    4  A    between atoms: C_7  and  C_8
REMARK    5  A    between atoms: C_8  and  C_9
REMARK                            x       y       z     vdW  Elec       q    Type
REMARK                         _______ _______ _______ _____ _____    ______ ____
ROOT
ATOM      1  C   UNL     1      46.160   2.303   7.792  0.00  0.00    +0.000 A 
ATOM      2  C   UNL     1      46.155   3.696   7.663  0.00  0.00    +0.000 A 
ATOM      3  C   UNL     1      45.390   4.487   8.527  0.00  0.00    +0.000 A 
ATOM      4  C   UNL     1      44.603   3.902   9.531  0.00  0.00    +0.000 A 
ATOM      5  C   UNL     1      44.584   2.509   9.618  0.00  0.00    +0.000 A 
ATOM      6  F   UNL     1      43.770   1.902  10.499  0.00  0.00    +0.000 F 
ATOM      7  C   UNL     1      45.352   1.710   8.769  0.00  0.00    +0.000 A 
ENDROOT
BRANCH   1   8
ATOM      8  C   UNL     1      46.986   1.450   6.861  0.00  0.00    +0.000 C 
BRANCH   8   9
ATOM      9  C   UNL     1      48.274   2.169   6.443  0.00  0.00    +0.000 C 
BRANCH   9  10
ATOM     10  N   UNL     1      48.265   2.492   5.018  0.00  0.00    +0.000 NA
ATOM     11  H   UNL     1      49.110   2.118   4.588  0.00  0.00    +0.000 HD
ATOM     12  H   UNL     1      48.309   3.503   4.896  0.00  0.00    +0.000 HD
ENDBRANCH   9  10
ENDBRANCH   8   9
ENDBRANCH   1   8
BRANCH   4  13
ATOM     13  C   UNL     1      43.782   4.763  10.451  0.00  0.00    +0.000 C 
BRANCH  13  14
ATOM     14  C   UNL     1      44.493   4.850  11.768  0.00  0.00    +0.000 A 
ATOM     15  C   UNL     1      44.219   4.116  12.908  0.00  0.00    +0.000 A 
ATOM     16  N   UNL     1      45.170   4.399  13.854  0.00  0.00    +0.000 N 
ATOM     17  C   UNL     1      46.082   5.294  13.352  0.00  0.00    +0.000 A 
ATOM     18  C   UNL     1      47.236   5.820  13.924  0.00  0.00    +0.000 A 
ATOM     19  N   UNL     1      47.990   6.684  13.206  0.00  0.00    +0.000 NA
ATOM     20  C   UNL     1      47.592   7.019  11.962  0.00  0.00    +0.000 A 
ATOM     21  C   UNL     1      46.451   6.535  11.337  0.00  0.00    +0.000 A 
ATOM     22  C   UNL     1      45.671   5.623  12.062  0.00  0.00    +0.000 A 
ATOM     23  H   UNL     1      45.220   3.980  14.774  0.00  0.00    +0.000 HD
ENDBRANCH  13  14
ENDBRANCH   4  13
TORSDOF 5
ENDMDL
MODEL 2
REMARK VINA RESULT:    -7.864      1.148      1.717
REMARK INTER + INTRA:         -10.720
REMARK INTER:                  -9.907
REMARK INTRA:                  -0.813
REMARK UNBOUND:                -0.787
REMARK  Name = 
REMARK  5 active torsions:
REMARK  status: ('A' for Active; 'I' for Inactive)
REMARK    1  A    between atoms: N_1  and  C_2
REMARK    2  A    between atoms: C_2  and  C_3
REMARK    3  A    between atoms: C_3  and  C_4
REMARK    4  A    between atoms: C_7  and  C_8
REMARK    5  A    between atoms: C_8  and  C_9
REMARK                            x       y       z     vdW  Elec       q    Type
REMARK                         _______ _______ _______ _____ _____    ______ ____
ROOT
ATOM      1  C   UNL     1      45.985   2.370   8.057  0.00  0.00    +0.000 A 
ATOM      2  C   UNL     1      46.099   3.755   7.900  0.00  0.00    +0.000 A 
ATOM      3  C   UNL     1      45.408   4.626   8.749  0.00  0.00    +0.000 A 
ATOM      4  C   UNL     1      44.578   4.132   9.766  0.00  0.00    +0.000 A 
ATOM      5  C   UNL     1      44.440   2.748   9.882  0.00  0.00    +0.000 A 
ATOM      6  F   UNL     1      43.580   2.231  10.778  0.00  0.00    +0.000 F 
ATOM      7  C   UNL     1      45.133   1.869   9.049  0.00  0.00    +0.000 A 
ENDROOT
BRANCH   1   8
ATOM      8  C   UNL     1      46.731   1.430   7.142  0.00  0.00    +0.000 C 
BRANCH   8   9
ATOM      9  C   UNL     1      47.224   2.153   5.884  0.00  0.00    +0.000 C 
BRANCH   9  10
ATOM     10  N   UNL     1      48.591   1.765   5.547  0.00  0.00    +0.000 NA
ATOM     11  H   UNL     1      48.691   0.758   5.670  0.00  0.00    +0.000 HD
ATOM     12  H   UNL     1      49.241   2.196   6.204  0.00  0.00    +0.000 HD
ENDBRANCH   9  10
ENDBRANCH   8   9
ENDBRANCH   1   8
BRANCH   4  13
ATOM     13  C   UNL     1      43.838   5.079  10.671  0.00  0.00    +0.000 C 
BRANCH  13  14
ATOM     14  C   UNL     1      44.847   5.862  11.455  0.00  0.00    +0.000 A 
ATOM     15  C   UNL     1      45.007   7.236  11.461  0.00  0.00    +0.000 A 
ATOM     16  N   UNL     1      45.950   7.566  12.400  0.00  0.00    +0.000 N 
ATOM     17  C   UNL     1      46.402   6.434  13.032  0.00  0.00    +0.000 A 
ATOM     18  C   UNL     1      47.308   6.288  14.078  0.00  0.00    +0.000 A 
ATOM     19  N   UNL     1      47.577   5.047  14.544  0.00  0.00    +0.000 NA
ATOM     20  C   UNL     1      46.969   3.989  13.971  0.00  0.00    +0.000 A 
ATOM     21  C   UNL     1      46.063   4.066  12.923  0.00  0.00    +0.000 A 
ATOM     22  C   UNL     1      45.758   5.348  12.443  0.00  0.00    +0.000 A 
ATOM     23  H   UNL     1      46.241   8.508  12.627  0.00  0.00    +0.000 HD
ENDBRANCH  13  14
ENDBRANCH   4  13
TORSDOF 5
ENDMDL
MODEL 3
REMARK VINA RESULT:    -7.281      1.444      1.696
REMARK INTER + INTRA:          -9.984
REMARK INTER:                  -9.471
REMARK INTRA:                  -0.513
REMARK UNBOUND:                -0.787
REMARK  Name = 
REMARK  5 active torsions:
REMARK  status: ('A' for Active; 'I' for Inactive)
REMARK    1  A    between atoms: N_1  and  C_2
REMARK    2  A    between atoms: C_2  and  C_3
REMARK    3  A    between atoms: C_3  and  C_4
REMARK    4  A    between atoms: C_7  and  C_8
REMARK    5  A    between atoms: C_8  and  C_9
REMARK                            x       y       z     vdW  Elec       q    Type
REMARK                         _______ _______ _______ _____ _____    ______ ____
ROOT
ATOM      1  C   UNL     1      45.824   3.364   7.948  0.00  0.00    +0.000 A 
ATOM      2  C   UNL     1      45.968   4.690   8.368  0.00  0.00    +0.000 A 
ATOM      3  C   UNL     1      45.386   5.125   9.563  0.00  0.00    +0.000 A 
ATOM      4  C   UNL     1      44.635   4.245  10.358  0.00  0.00    +0.000 A 
ATOM      5  C   UNL     1      44.462   2.937   9.903  0.00  0.00    +0.000 A 
ATOM      6  F   UNL     1      43.671   2.089  10.582  0.00  0.00    +0.000 F 
ATOM      7  C   UNL     1      45.048   2.490   8.719  0.00  0.00    +0.000 A 
ENDROOT
BRANCH   1   8
ATOM      8  C   UNL     1      46.454   2.896   6.659  0.00  0.00    +0.000 C 
BRANCH   8   9
ATOM      9  C   UNL     1      47.913   2.480   6.870  0.00  0.00    +0.000 C 
BRANCH   9  10
ATOM     10  N   UNL     1      48.464   1.841   5.678  0.00  0.00    +0.000 NA
ATOM     11  H   UNL     1      49.042   2.515   5.177  0.00  0.00    +0.000 HD
ATOM     12  H   UNL     1      47.707   1.590   5.043  0.00  0.00    +0.000 HD
ENDBRANCH   9  10
ENDBRANCH   8   9
ENDBRANCH   1   8
BRANCH   4  13
ATOM     13  C   UNL     1      44.010   4.725  11.640  0.00  0.00    +0.000 C 
BRANCH  13  14
ATOM     14  C   UNL     1      45.060   5.445  12.431  0.00  0.00    +0.000 A 
ATOM     15  C   UNL     1      46.025   4.873  13.242  0.00  0.00    +0.000 A 
ATOM     16  N   UNL     1      46.867   5.858  13.687  0.00  0.00    +0.000 N 
ATOM     17  C   UNL     1      46.490   7.072  13.167  0.00  0.00    +0.000 A 
ATOM     18  C   UNL     1      47.075   8.327  13.295  0.00  0.00    +0.000 A 
ATOM     19  N   UNL     1      46.514   9.381  12.659  0.00  0.00    +0.000 NA
ATOM     20  C   UNL     1      45.397   9.184  11.930  0.00  0.00    +0.000 A 
ATOM     21  C   UNL     1      44.761   7.960  11.767  0.00  0.00    +0.000 A 
ATOM     22  C   UNL     1      45.344   6.855  12.405  0.00  0.00    +0.000 A 
ATOM     23  H   UNL     1      47.676   5.711  14.277  0.00  0.00    +0.000 HD
ENDBRANCH  13  14
ENDBRANCH   4  13
TORSDOF 5
ENDMDL
MODEL 4
REMARK VINA RESULT:    -6.971      2.094      6.459
REMARK INTER + INTRA:          -9.592
REMARK INTER:                  -8.957
REMARK INTRA:                  -0.635
REMARK UNBOUND:                -0.787
REMARK  Name = 
REMARK  5 active torsions:
REMARK  status: ('A' for Active; 'I' for Inactive)
REMARK    1  A    between atoms: N_1  and  C_2
REMARK    2  A    between atoms: C_2  and  C_3
REMARK    3  A    between atoms: C_3  and  C_4
REMARK    4  A    between atoms: C_7  and  C_8
REMARK    5  A    between atoms: C_8  and  C_9
REMARK                            x       y       z     vdW  Elec       q    Type
REMARK                         _______ _______ _______ _____ _____    ______ ____
ROOT
ATOM      1  C   UNL     1      46.527   4.755  13.481  0.00  0.00    +0.000 A 
ATOM      2  C   UNL     1      46.047   3.481  13.162  0.00  0.00    +0.000 A 
ATOM      3  C   UNL     1      45.361   3.258  11.964  0.00  0.00    +0.000 A 
ATOM      4  C   UNL     1      45.128   4.308  11.063  0.00  0.00    +0.000 A 
ATOM      5  C   UNL     1      45.574   5.583  11.415  0.00  0.00    +0.000 A 
ATOM      6  F   UNL     1      45.288   6.635  10.629  0.00  0.00    +0.000 F 
ATOM      7  C   UNL     1      46.269   5.814  12.602  0.00  0.00    +0.000 A 
ENDROOT
BRANCH   1   8
ATOM      8  C   UNL     1      47.268   4.994  14.773  0.00  0.00    +0.000 C 
BRANCH   8   9
ATOM      9  C   UNL     1      47.115   3.808  15.731  0.00  0.00    +0.000 C 
BRANCH   9  10
ATOM     10  N   UNL     1      48.284   2.934  15.688  0.00  0.00    +0.000 NA
ATOM     11  H   UNL     1      48.990   3.291  16.331  0.00  0.00    +0.000 HD
ATOM     12  H   UNL     1      48.704   2.968  14.760  0.00  0.00    +0.000 HD
ENDBRANCH   9  10
ENDBRANCH   8   9
ENDBRANCH   1   8
BRANCH   4  13
ATOM     13  C   UNL     1      44.386   4.057   9.778  0.00  0.00    +0.000 C 
BRANCH  13  14
ATOM     14  C   UNL     1      45.393   3.865   8.686  0.00  0.00    +0.000 A 
ATOM     15  C   UNL     1      46.097   4.855   8.023  0.00  0.00    +0.000 A 
ATOM     16  N   UNL     1      47.007   4.264   7.185  0.00  0.00    +0.000 N 
ATOM     17  C   UNL     1      46.933   2.898   7.297  0.00  0.00    +0.000 A 
ATOM     18  C   UNL     1      47.692   1.902   6.690  0.00  0.00    +0.000 A 
ATOM     19  N   UNL     1      47.432   0.608   6.985  0.00  0.00    +0.000 NA
ATOM     20  C   UNL     1      46.437   0.322   7.848  0.00  0.00    +0.000 A 
ATOM     21  C   UNL     1      45.641   1.266   8.482  0.00  0.00    +0.000 A 
ATOM     22  C   UNL     1      45.913   2.613   8.202  0.00  0.00    +0.000 A 
ATOM     23  H   UNL     1      47.668   4.759   6.600  0.00  0.00    +0.000 HD
ENDBRANCH  13  14
ENDBRANCH   4  13
TORSDOF 5
ENDMDL
MODEL 5
REMARK VINA RESULT:    -6.888      1.644      6.029
REMARK INTER + INTRA:          -9.488
REMARK INTER:                  -8.675
REMARK INTRA:                  -0.813
REMARK UNBOUND:                -0.787
REMARK  Name = 
REMARK  5 active torsions:
REMARK  status: ('A' for Active; 'I' for Inactive)
REMARK    1  A    between atoms: N_1  and  C_2
REMARK    2  A    between atoms: C_2  and  C_3
REMARK    3  A    between atoms: C_3  and  C_4
REMARK    4  A    between atoms: C_7  and  C_8
REMARK    5  A    between atoms: C_8  and  C_9
REMARK                            x       y       z     vdW  Elec       q    Type
REMARK                         _______ _______ _______ _____ _____    ______ ____
ROOT
ATOM      1  C   UNL     1      46.108   6.291  12.484  0.00  0.00    +0.000 A 
ATOM      2  C   UNL     1      46.593   6.517  11.192  0.00  0.00    +0.000 A 
ATOM      3  C   UNL     1      45.983   5.914  10.087  0.00  0.00    +0.000 A 
ATOM      4  C   UNL     1      44.881   5.060  10.252  0.00  0.00    +0.000 A 
ATOM      5  C   UNL     1      44.437   4.808  11.551  0.00  0.00    +0.000 A 
ATOM      6  F   UNL     1      43.449   3.922  11.764  0.00  0.00    +0.000 F 
ATOM      7  C   UNL     1      45.031   5.414  12.659  0.00  0.00    +0.000 A 
ENDROOT
BRANCH   1   8
ATOM      8  C   UNL     1      46.767   6.944  13.675  0.00  0.00    +0.000 C 
BRANCH   8   9
ATOM      9  C   UNL     1      48.022   6.178  14.106  0.00  0.00    +0.000 C 
BRANCH   9  10
ATOM     10  N   UNL     1      47.757   5.331  15.267  0.00  0.00    +0.000 NA
ATOM     11  H   UNL     1      48.326   5.652  16.049  0.00  0.00    +0.000 HD
ATOM     12  H   UNL     1      48.058   4.377  15.070  0.00  0.00    +0.000 HD
ENDBRANCH   9  10
ENDBRANCH   8   9
ENDBRANCH   1   8
BRANCH   4  13
ATOM     13  C   UNL     1      44.235   4.413   9.057  0.00  0.00    +0.000 C 
BRANCH  13  14
ATOM     14  C   UNL     1      44.879   3.076   8.844  0.00  0.00    +0.000 A 
ATOM     15  C   UNL     1      44.424   1.854   9.308  0.00  0.00    +0.000 A 
ATOM     16  N   UNL     1      45.222   0.864   8.796  0.00  0.00    +0.000 N 
ATOM     17  C   UNL     1      46.186   1.407   7.983  0.00  0.00    +0.000 A 
ATOM     18  C   UNL     1      47.168   0.791   7.215  0.00  0.00    +0.000 A 
ATOM     19  N   UNL     1      47.998   1.559   6.472  0.00  0.00    +0.000 NA
ATOM     20  C   UNL     1      47.856   2.899   6.510  0.00  0.00    +0.000 A 
ATOM     21  C   UNL     1      46.902   3.575   7.258  0.00  0.00    +0.000 A 
ATOM     22  C   UNL     1      46.021   2.790   8.017  0.00  0.00    +0.000 A 
ATOM     23  H   UNL     1      45.096  -0.128   8.956  0.00  0.00    +0.000 HD
ENDBRANCH  13  14
ENDBRANCH   4  13
TORSDOF 5
ENDMDL
MODEL 6
REMARK VINA RESULT:    -6.808      1.455      1.836
REMARK INTER + INTRA:          -9.386
REMARK INTER:                  -9.036
REMARK INTRA:                  -0.350
REMARK UNBOUND:                -0.787
REMARK  Name = 
REMARK  5 active torsions:
REMARK  status: ('A' for Active; 'I' for Inactive)
REMARK    1  A    between atoms: N_1  and  C_2
REMARK    2  A    between atoms: C_2  and  C_3
REMARK    3  A    between atoms: C_3  and  C_4
REMARK    4  A    between atoms: C_7  and  C_8
REMARK    5  A    between atoms: C_8  and  C_9
REMARK                            x       y       z     vdW  Elec       q    Type
REMARK                         _______ _______ _______ _____ _____    ______ ____
ROOT
ATOM      1  C   UNL     1      45.914   3.392   7.709  0.00  0.00    +0.000 A 
ATOM      2  C   UNL     1      46.112   4.683   8.208  0.00  0.00    +0.000 A 
ATOM      3  C   UNL     1      45.602   5.048   9.459  0.00  0.00    +0.000 A 
ATOM      4  C   UNL     1      44.872   4.133  10.232  0.00  0.00    +0.000 A 
ATOM      5  C   UNL     1      44.645   2.863   9.701  0.00  0.00    +0.000 A 
ATOM      6  F   UNL     1      43.869   1.987  10.363  0.00  0.00    +0.000 F 
ATOM      7  C   UNL     1      45.158   2.484   8.460  0.00  0.00    +0.000 A 
ENDROOT
BRANCH   1   8
ATOM      8  C   UNL     1      46.465   2.999   6.360  0.00  0.00    +0.000 C 
BRANCH   8   9
ATOM      9  C   UNL     1      47.993   2.889   6.393  0.00  0.00    +0.000 C 
BRANCH   9  10
ATOM     10  N   UNL     1      48.444   1.580   5.928  0.00  0.00    +0.000 NA
ATOM     11  H   UNL     1      47.648   0.944   5.902  0.00  0.00    +0.000 HD
ATOM     12  H   UNL     1      49.099   1.184   6.602  0.00  0.00    +0.000 HD
ENDBRANCH   9  10
ENDBRANCH   8   9
ENDBRANCH   1   8
BRANCH   4  13
ATOM     13  C   UNL     1      44.326   4.538  11.574  0.00  0.00    +0.000 C 
BRANCH  13  14
ATOM     14  C   UNL     1      44.741   5.953  11.840  0.00  0.00    +0.000 A 
ATOM     15  C   UNL     1      44.025   7.098  11.540  0.00  0.00    +0.000 A 
ATOM     16  N   UNL     1      44.688   8.182  12.055  0.00  0.00    +0.000 N 
ATOM     17  C   UNL     1      45.822   7.772  12.711  0.00  0.00    +0.000 A 
ATOM     18  C   UNL     1      46.763   8.505  13.427  0.00  0.00    +0.000 A 
ATOM     19  N   UNL     1      47.798   7.856  14.007  0.00  0.00    +0.000 NA
ATOM     20  C   UNL     1      47.893   6.519  13.863  0.00  0.00    +0.000 A 
ATOM     21  C   UNL     1      46.993   5.731  13.158  0.00  0.00    +0.000 A 
ATOM     22  C   UNL     1      45.904   6.389  12.569  0.00  0.00    +0.000 A 
ATOM     23  H   UNL     1      44.369   9.141  11.999  0.00  0.00    +0.000 HD
ENDBRANCH  13  14
ENDBRANCH   4  13
TORSDOF 5
ENDMDL
MODEL 7
REMARK VINA RESULT:    -6.423      2.420      6.362
REMARK INTER + INTRA:          -8.901
REMARK INTER:                  -8.156
REMARK INTRA:                  -0.745
REMARK UNBOUND:                -0.787
REMARK  Name = 
REMARK  5 active torsions:
REMARK  status: ('A' for Active; 'I' for Inactive)
REMARK    1  A    between atoms: N_1  and  C_2
REMARK    2  A    between atoms: C_2  and  C_3
REMARK    3  A    between atoms: C_3  and  C_4
REMARK    4  A    between atoms: C_7  and  C_8
REMARK    5  A    between atoms: C_8  and  C_9
REMARK                            x       y       z     vdW  Elec       q    Type
REMARK                         _______ _______ _______ _____ _____    ______ ____
ROOT
ATOM      1  C   UNL     1      47.385   7.372  13.214  0.00  0.00    +0.000 A 
ATOM      2  C   UNL     1      46.934   6.120  13.644  0.00  0.00    +0.000 A 
ATOM      3  C   UNL     1      45.730   5.594  13.163  0.00  0.00    +0.000 A 
ATOM      4  C   UNL     1      44.945   6.315  12.250  0.00  0.00    +0.000 A 
ATOM      5  C   UNL     1      45.386   7.582  11.865  0.00  0.00    +0.000 A 
ATOM      6  F   UNL     1      44.619   8.347  11.070  0.00  0.00    +0.000 F 
ATOM      7  C   UNL     1      46.591   8.111  12.330  0.00  0.00    +0.000 A 
ENDROOT
BRANCH   1   8
ATOM      8  C   UNL     1      48.685   7.938  13.733  0.00  0.00    +0.000 C 
BRANCH   8   9
ATOM      9  C   UNL     1      48.462   9.268  14.460  0.00  0.00    +0.000 C 
BRANCH   9  10
ATOM     10  N   UNL     1      47.580   9.104  15.613  0.00  0.00    +0.000 NA
ATOM     11  H   UNL     1      47.572   8.122  15.889  0.00  0.00    +0.000 HD
ATOM     12  H   UNL     1      46.623   9.331  15.347  0.00  0.00    +0.000 HD
ENDBRANCH   9  10
ENDBRANCH   8   9
ENDBRANCH   1   8
BRANCH   4  13
ATOM     13  C   UNL     1      43.650   5.741  11.742  0.00  0.00    +0.000 C 
BRANCH  13  14
ATOM     14  C   UNL     1      43.917   4.352  11.246  0.00  0.00    +0.000 A 
ATOM     15  C   UNL     1      43.381   3.177  11.742  0.00  0.00    +0.000 A 
ATOM     16  N   UNL     1      43.774   2.139  10.938  0.00  0.00    +0.000 N 
ATOM     17  C   UNL     1      44.545   2.609   9.903  0.00  0.00    +0.000 A 
ATOM     18  C   UNL     1      45.111   1.938   8.825  0.00  0.00    +0.000 A 
ATOM     19  N   UNL     1      45.823   2.641   7.914  0.00  0.00    +0.000 NA
ATOM     20  C   UNL     1      45.973   3.969   8.088  0.00  0.00    +0.000 A 
ATOM     21  C   UNL     1      45.440   4.697   9.143  0.00  0.00    +0.000 A 
ATOM     22  C   UNL     1      44.682   3.984  10.083  0.00  0.00    +0.000 A 
ATOM     23  H   UNL     1      43.503   1.171  11.060  0.00  0.00    +0.000 HD
ENDBRANCH  13  14
ENDBRANCH   4  13
TORSDOF 5
ENDMDL
MODEL 8
REMARK VINA RESULT:    -5.852      4.064      7.792
REMARK INTER + INTRA:          -8.178
REMARK INTER:                  -7.499
REMARK INTRA:                  -0.679
REMARK UNBOUND:                -0.787
REMARK  Name = 
REMARK  5 active torsions:
REMARK  status: ('A' for Active; 'I' for Inactive)
REMARK    1  A    between atoms: N_1  and  C_2
REMARK    2  A    between atoms: C_2  and  C_3
REMARK    3  A    between atoms: C_3  and  C_4
REMARK    4  A    between atoms: C_7  and  C_8
REMARK    5  A    between atoms: C_8  and  C_9
REMARK                            x       y       z     vdW  Elec       q    Type
REMARK                         _______ _______ _______ _____ _____    ______ ____
ROOT
ATOM      1  C   UNL     1      48.287   5.484  17.161  0.00  0.00    +0.000 A 
ATOM      2  C   UNL     1      47.510   4.550  16.468  0.00  0.00    +0.000 A 
ATOM      3  C   UNL     1      47.297   4.684  15.092  0.00  0.00    +0.000 A 
ATOM      4  C   UNL     1      47.845   5.762  14.381  0.00  0.00    +0.000 A 
ATOM      5  C   UNL     1      48.580   6.710  15.094  0.00  0.00    +0.000 A 
ATOM      6  F   UNL     1      49.041   7.809  14.473  0.00  0.00    +0.000 F 
ATOM      7  C   UNL     1      48.809   6.580  16.465  0.00  0.00    +0.000 A 
ENDROOT
BRANCH   1   8
ATOM      8  C   UNL     1      48.518   5.338  18.645  0.00  0.00    +0.000 C 
BRANCH   8   9
ATOM      9  C   UNL     1      48.852   3.890  19.018  0.00  0.00    +0.000 C 
BRANCH   9  10
ATOM     10  N   UNL     1      48.376   3.561  20.359  0.00  0.00    +0.000 NA
ATOM     11  H   UNL     1      47.481   3.080  20.285  0.00  0.00    +0.000 HD
ATOM     12  H   UNL     1      48.195   4.419  20.878  0.00  0.00    +0.000 HD
ENDBRANCH   9  10
ENDBRANCH   8   9
ENDBRANCH   1   8
BRANCH   4  13
ATOM     13  C   UNL     1      47.605   5.897  12.902  0.00  0.00    +0.000 C 
BRANCH  13  14
ATOM     14  C   UNL     1      46.134   6.077  12.681  0.00  0.00    +0.000 A 
ATOM     15  C   UNL     1      45.428   7.267  12.725  0.00  0.00    +0.000 A 
ATOM     16  N   UNL     1      44.133   7.026  12.346  0.00  0.00    +0.000 N 
ATOM     17  C   UNL     1      43.973   5.699  12.031  0.00  0.00    +0.000 A 
ATOM     18  C   UNL     1      42.861   5.016  11.550  0.00  0.00    +0.000 A 
ATOM     19  N   UNL     1      42.964   3.691  11.295  0.00  0.00    +0.000 NA
ATOM     20  C   UNL     1      44.139   3.072  11.528  0.00  0.00    +0.000 A 
ATOM     21  C   UNL     1      45.282   3.693  12.012  0.00  0.00    +0.000 A 
ATOM     22  C   UNL     1      45.195   5.071  12.261  0.00  0.00    +0.000 A 
ATOM     23  H   UNL     1      43.409   7.728  12.267  0.00  0.00    +0.000 HD
ENDBRANCH  13  14
ENDBRANCH   4  13
TORSDOF 5
ENDMDL
MODEL 9
REMARK VINA RESULT:    -5.317      3.911      6.180
REMARK INTER + INTRA:          -7.503
REMARK INTER:                  -6.811
REMARK INTRA:                  -0.692
REMARK UNBOUND:                -0.787
REMARK  Name = 
REMARK  5 active torsions:
REMARK  status: ('A' for Active; 'I' for Inactive)
REMARK    1  A    between atoms: N_1  and  C_2
REMARK    2  A    between atoms: C_2  and  C_3
REMARK    3  A    between atoms: C_3  and  C_4
REMARK    4  A    between atoms: C_7  and  C_8
REMARK    5  A    between atoms: C_8  and  C_9
REMARK                            x       y       z     vdW  Elec       q    Type
REMARK                         _______ _______ _______ _____ _____    ______ ____
ROOT
ATOM      1  C   UNL     1      50.566   8.077  12.265  0.00  0.00    +0.000 A 
ATOM      2  C   UNL     1      49.616   7.850  11.264  0.00  0.00    +0.000 A 
ATOM      3  C   UNL     1      48.282   7.593  11.594  0.00  0.00    +0.000 A 
ATOM      4  C   UNL     1      47.870   7.544  12.935  0.00  0.00    +0.000 A 
ATOM      5  C   UNL     1      48.838   7.727  13.924  0.00  0.00    +0.000 A 
ATOM      6  F   UNL     1      48.508   7.592  15.220  0.00  0.00    +0.000 F 
ATOM      7  C   UNL     1      50.169   7.996  13.605  0.00  0.00    +0.000 A 
ENDROOT
BRANCH   1   8
ATOM      8  C   UNL     1      52.006   8.355  11.907  0.00  0.00    +0.000 C 
BRANCH   8   9
ATOM      9  C   UNL     1      52.331   7.870  10.491  0.00  0.00    +0.000 C 
BRANCH   9  10
ATOM     10  N   UNL     1      52.883   6.518  10.504  0.00  0.00    +0.000 NA
ATOM     11  H   UNL     1      52.194   5.874  10.117  0.00  0.00    +0.000 HD
ATOM     12  H   UNL     1      53.039   6.221  11.466  0.00  0.00    +0.000 HD
ENDBRANCH   9  10
ENDBRANCH   8   9
ENDBRANCH   1   8
BRANCH   4  13
ATOM     13  C   UNL     1      46.432   7.263  13.278  0.00  0.00    +0.000 C 
BRANCH  13  14
ATOM     14  C   UNL     1      46.177   5.802  13.062  0.00  0.00    +0.000 A 
ATOM     15  C   UNL     1      46.762   4.748  13.742  0.00  0.00    +0.000 A 
ATOM     16  N   UNL     1      46.171   3.580  13.337  0.00  0.00    +0.000 N 
ATOM     17  C   UNL     1      45.189   3.842  12.415  0.00  0.00    +0.000 A 
ATOM     18  C   UNL     1      44.300   2.984  11.777  0.00  0.00    +0.000 A 
ATOM     19  N   UNL     1      43.398   3.499  10.909  0.00  0.00    +0.000 NA
ATOM     20  C   UNL     1      43.399   4.827  10.680  0.00  0.00    +0.000 A 
ATOM     21  C   UNL     1      44.262   5.735  11.277  0.00  0.00    +0.000 A 
ATOM     22  C   UNL     1      45.188   5.218  12.195  0.00  0.00    +0.000 A 
ATOM     23  H   UNL     1      46.394   2.659  13.695  0.00  0.00    +0.000 HD
ENDBRANCH  13  14
ENDBRANCH   4  13
TORSDOF 5
ENDMDL
