MODEL 1
REMARK VINA RESULT:    -7.133      0.000      0.000
REMARK INTER + INTRA:          -8.862
REMARK INTER:                  -8.384
REMARK INTRA:                  -0.478
REMARK UNBOUND:                -0.478
REMARK  Name = 
REMARK  5 active torsions:
REMARK  status: ('A' for Active; 'I' for Inactive)
REMARK    1  A    between atoms: C_1  and  N_2
REMARK    2  A    between atoms: C_3  and  C_5
REMARK    3  A    between atoms: N_9  and  C_10
REMARK    4  A    between atoms: C_10  and  C_11
REMARK    5  A    between atoms: C_10  and  C_12
REMARK                            x       y       z     vdW  Elec       q    Type
REMARK                         _______ _______ _______ _____ _____    ______ ____
ROOT
ATOM      1  C   UNL     1      46.113   2.490   7.885  0.00  0.00    +0.000 A 
ATOM      2  C   UNL     1      45.488   1.640   8.793  0.00  0.00    +0.000 A 
ATOM      3  C   UNL     1      44.566   2.169   9.695  0.00  0.00    +0.000 A 
ATOM      4  C   UNL     1      44.321   3.543   9.719  0.00  0.00    +0.000 A 
ATOM      5  N   UNL     1      43.454   4.019  10.698  0.00  0.00    +0.000 N 
ATOM      6  N   UNL     1      44.932   4.378   8.858  0.00  0.00    +0.000 NA
ATOM      7  C   UNL     1      45.802   3.840   7.958  0.00  0.00    +0.000 A 
ATOM      8  H   UNL     1      42.516   3.658  10.585  0.00  0.00    +0.000 HD
ENDROOT
BRANCH   1  11
ATOM      9  C   UNL     1      48.170   2.414   4.710  0.00  0.00    +0.000 C 
ATOM     10  N   UNL     1      47.241   2.783   5.747  0.00  0.00    +0.000 N 
ATOM     11  C   UNL     1      47.116   2.025   6.898  0.00  0.00    +0.000 C 
ATOM     12  O   UNL     1      47.793   1.029   7.126  0.00  0.00    +0.000 OA
ATOM     13  H   UNL     1      46.772   3.676   5.671  0.00  0.00    +0.000 HD
ENDBRANCH   1  11
BRANCH   5  14
ATOM     14  C   UNL     1      43.531   5.423  11.089  0.00  0.00    +0.000 C 
ATOM     15  C   UNL     1      42.309   5.886  11.882  0.00  0.00    +0.000 C 
BRANCH  14  16
ATOM     16  C   UNL     1      44.809   5.604  11.907  0.00  0.00    +0.000 A 
ATOM     17  C   UNL     1      45.746   6.581  11.535  0.00  0.00    +0.000 A 
ATOM     18  C   UNL     1      46.922   6.758  12.268  0.00  0.00    +0.000 A 
ATOM     19  C   UNL     1      47.182   5.959  13.379  0.00  0.00    +0.000 A 
ATOM     20  C   UNL     1      46.269   4.978  13.757  0.00  0.00    +0.000 A 
ATOM     21  C   UNL     1      45.092   4.802  13.028  0.00  0.00    +0.000 A 
ENDBRANCH  14  16
ENDBRANCH   5  14
TORSDOF 3
ENDMDL
MODEL 2
REMARK VINA RESULT:    -6.701      3.485      7.056
REMARK INTER + INTRA:          -8.354
REMARK INTER:                  -7.829
REMARK INTRA:                  -0.525
REMARK UNBOUND:                -0.478
REMARK  Name = 
REMARK  5 active torsions:
REMARK  status: ('A' for Active; 'I' for Inactive)
REMARK    1  A    between atoms: C_1  and  N_2
REMARK    2  A    between atoms: C_3  and  C_5
REMARK    3  A    between atoms: N_9  and  C_10
REMARK    4  A    between atoms: C_10  and  C_11
REMARK    5  A    between atoms: C_10  and  C_12
REMARK                            x       y       z     vdW  Elec       q    Type
REMARK                         _______ _______ _______ _____ _____    ______ ____
ROOT
ATOM      1  C   UNL     1      47.999   6.386  14.191  0.00  0.00    +0.000 A 
ATOM      2  C   UNL     1      48.221   7.101  13.018  0.00  0.00    +0.000 A 
ATOM      3  C   UNL     1      47.348   6.934  11.944  0.00  0.00    +0.000 A 
ATOM      4  C   UNL     1      46.300   6.017  12.031  0.00  0.00    +0.000 A 
ATOM      5  N   UNL     1      45.515   5.835  10.898  0.00  0.00    +0.000 N 
ATOM      6  N   UNL     1      46.084   5.306  13.154  0.00  0.00    +0.000 NA
ATOM      7  C   UNL     1      46.925   5.509  14.207  0.00  0.00    +0.000 A 
ATOM      8  H   UNL     1      45.014   6.676  10.642  0.00  0.00    +0.000 HD
ENDROOT
BRANCH   1  11
ATOM      9  C   UNL     1      49.011   6.484  17.835  0.00  0.00    +0.000 C 
ATOM     10  N   UNL     1      48.258   6.382  16.612  0.00  0.00    +0.000 N 
ATOM     11  C   UNL     1      48.878   6.484  15.380  0.00  0.00    +0.000 C 
ATOM     12  O   UNL     1      50.088   6.633  15.244  0.00  0.00    +0.000 OA
ATOM     13  H   UNL     1      47.286   6.110  16.672  0.00  0.00    +0.000 HD
ENDBRANCH   1  11
BRANCH   5  14
ATOM     14  C   UNL     1      44.754   4.598  10.754  0.00  0.00    +0.000 C 
ATOM     15  C   UNL     1      43.252   4.839  10.600  0.00  0.00    +0.000 C 
BRANCH  14  16
ATOM     16  C   UNL     1      45.311   3.854   9.541  0.00  0.00    +0.000 A 
ATOM     17  C   UNL     1      45.278   2.451   9.503  0.00  0.00    +0.000 A 
ATOM     18  C   UNL     1      45.787   1.754   8.404  0.00  0.00    +0.000 A 
ATOM     19  C   UNL     1      46.341   2.447   7.330  0.00  0.00    +0.000 A 
ATOM     20  C   UNL     1      46.393   3.838   7.355  0.00  0.00    +0.000 A 
ATOM     21  C   UNL     1      45.882   4.537   8.450  0.00  0.00    +0.000 A 
ENDBRANCH  14  16
ENDBRANCH   5  14
TORSDOF 3
ENDMDL
MODEL 3
REMARK VINA RESULT:    -6.600      3.597      6.697
REMARK INTER + INTRA:          -8.236
REMARK INTER:                  -7.691
REMARK INTRA:                  -0.545
REMARK UNBOUND:                -0.478
REMARK  Name = 
REMARK  5 active torsions:
REMARK  status: ('A' for Active; 'I' for Inactive)
REMARK    1  A    between atoms: C_1  and  N_2
REMARK    2  A    between atoms: C_3  and  C_5
REMARK    3  A    between atoms: N_9  and  C_10
REMARK    4  A    between atoms: C_10  and  C_11
REMARK    5  A    between atoms: C_10  and  C_12
REMARK                            x       y       z     vdW  Elec       q    Type
REMARK                         _______ _______ _______ _____ _____    ______ ____
ROOT
ATOM      1  C   UNL     1      48.418   6.811  13.596  0.00  0.00    +0.000 A 
ATOM      2  C   UNL     1      48.270   7.563  12.434  0.00  0.00    +0.000 A 
ATOM      3  C   UNL     1      47.161   7.341  11.618  0.00  0.00    +0.000 A 
ATOM      4  C   UNL     1      46.247   6.337  11.939  0.00  0.00    +0.000 A 
ATOM      5  N   UNL     1      45.209   6.108  11.042  0.00  0.00    +0.000 N 
ATOM      6  N   UNL     1      46.389   5.591  13.051  0.00  0.00    +0.000 NA
ATOM      7  C   UNL     1      47.457   5.846  13.857  0.00  0.00    +0.000 A 
ATOM      8  H   UNL     1      44.595   6.907  10.956  0.00  0.00    +0.000 HD
ENDROOT
BRANCH   1  11
ATOM      9  C   UNL     1      51.793   7.948  14.873  0.00  0.00    +0.000 C 
ATOM     10  N   UNL     1      50.616   7.747  14.069  0.00  0.00    +0.000 N 
ATOM     11  C   UNL     1      49.568   6.964  14.519  0.00  0.00    +0.000 C 
ATOM     12  O   UNL     1      49.554   6.424  15.620  0.00  0.00    +0.000 OA
ATOM     13  H   UNL     1      50.518   8.291  13.222  0.00  0.00    +0.000 HD
ENDBRANCH   1  11
BRANCH   5  14
ATOM     14  C   UNL     1      44.536   4.813  11.052  0.00  0.00    +0.000 C 
ATOM     15  C   UNL     1      43.013   4.935  11.001  0.00  0.00    +0.000 C 
BRANCH  14  16
ATOM     16  C   UNL     1      45.056   4.014   9.857  0.00  0.00    +0.000 A 
ATOM     17  C   UNL     1      44.944   2.615   9.848  0.00  0.00    +0.000 A 
ATOM     18  C   UNL     1      45.419   1.868   8.766  0.00  0.00    +0.000 A 
ATOM     19  C   UNL     1      46.015   2.506   7.682  0.00  0.00    +0.000 A 
ATOM     20  C   UNL     1      46.144   3.893   7.678  0.00  0.00    +0.000 A 
ATOM     21  C   UNL     1      45.668   4.641   8.756  0.00  0.00    +0.000 A 
ENDBRANCH  14  16
ENDBRANCH   5  14
TORSDOF 3
ENDMDL
MODEL 4
REMARK VINA RESULT:    -6.385      2.999      6.782
REMARK INTER + INTRA:          -7.983
REMARK INTER:                  -7.443
REMARK INTRA:                  -0.541
REMARK UNBOUND:                -0.478
REMARK  Name = 
REMARK  5 active torsions:
REMARK  status: ('A' for Active; 'I' for Inactive)
REMARK    1  A    between atoms: C_1  and  N_2
REMARK    2  A    between atoms: C_3  and  C_5
REMARK    3  A    between atoms: N_9  and  C_10
REMARK    4  A    between atoms: C_10  and  C_11
REMARK    5  A    between atoms: C_10  and  C_12
REMARK                            x       y       z     vdW  Elec       q    Type
REMARK                         _______ _______ _______ _____ _____    ______ ____
ROOT
ATOM      1  C   UNL     1      46.897   5.501  13.444  0.00  0.00    +0.000 A 
ATOM      2  C   UNL     1      46.428   6.334  12.432  0.00  0.00    +0.000 A 
ATOM      3  C   UNL     1      45.722   5.777  11.366  0.00  0.00    +0.000 A 
ATOM      4  C   UNL     1      45.542   4.395  11.293  0.00  0.00    +0.000 A 
ATOM      5  N   UNL     1      44.903   3.894  10.163  0.00  0.00    +0.000 N 
ATOM      6  N   UNL     1      46.006   3.577  12.256  0.00  0.00    +0.000 NA
ATOM      7  C   UNL     1      46.661   4.141  13.309  0.00  0.00    +0.000 A 
ATOM      8  H   UNL     1      43.947   4.217  10.091  0.00  0.00    +0.000 HD
ENDROOT
BRANCH   1  11
ATOM      9  C   UNL     1      48.647   7.949  15.736  0.00  0.00    +0.000 C 
ATOM     10  N   UNL     1      47.892   7.360  14.661  0.00  0.00    +0.000 N 
ATOM     11  C   UNL     1      47.669   5.996  14.608  0.00  0.00    +0.000 C 
ATOM     12  O   UNL     1      48.063   5.214  15.467  0.00  0.00    +0.000 OA
ATOM     13  H   UNL     1      47.422   7.979  14.013  0.00  0.00    +0.000 HD
ENDBRANCH   1  11
BRANCH   5  14
ATOM     14  C   UNL     1      45.111   2.498   9.793  0.00  0.00    +0.000 C 
ATOM     15  C   UNL     1      43.806   1.708   9.697  0.00  0.00    +0.000 C 
BRANCH  14  16
ATOM     16  C   UNL     1      45.854   2.481   8.457  0.00  0.00    +0.000 A 
ATOM     17  C   UNL     1      46.481   1.305   8.019  0.00  0.00    +0.000 A 
ATOM     18  C   UNL     1      47.169   1.273   6.803  0.00  0.00    +0.000 A 
ATOM     19  C   UNL     1      47.244   2.416   6.010  0.00  0.00    +0.000 A 
ATOM     20  C   UNL     1      46.636   3.595   6.433  0.00  0.00    +0.000 A 
ATOM     21  C   UNL     1      45.946   3.628   7.647  0.00  0.00    +0.000 A 
ENDBRANCH  14  16
ENDBRANCH   5  14
TORSDOF 3
ENDMDL
MODEL 5
REMARK VINA RESULT:    -6.192      4.162      7.521
REMARK INTER + INTRA:          -7.756
REMARK INTER:                  -7.321
REMARK INTRA:                  -0.435
REMARK UNBOUND:                -0.478
REMARK  Name = 
REMARK  5 active torsions:
REMARK  status: ('A' for Active; 'I' for Inactive)
REMARK    1  A    between atoms: C_1  and  N_2
REMARK    2  A    between atoms: C_3  and  C_5
REMARK    3  A    between atoms: N_9  and  C_10
REMARK    4  A    between atoms: C_10  and  C_11
REMARK    5  A    between atoms: C_10  and  C_12
REMARK                            x       y       z     vdW  Elec       q    Type
REMARK                         _______ _______ _______ _____ _____    ______ ____
ROOT
ATOM      1  C   UNL     1      48.256   5.283  15.905  0.00  0.00    +0.000 A 
ATOM      2  C   UNL     1      48.340   6.227  14.885  0.00  0.00    +0.000 A 
ATOM      3  C   UNL     1      47.407   6.193  13.849  0.00  0.00    +0.000 A 
ATOM      4  C   UNL     1      46.441   5.187  13.812  0.00  0.00    +0.000 A 
ATOM      5  N   UNL     1      45.593   5.158  12.710  0.00  0.00    +0.000 N 
ATOM      6  N   UNL     1      46.360   4.258  14.783  0.00  0.00    +0.000 NA
ATOM      7  C   UNL     1      47.255   4.328  15.807  0.00  0.00    +0.000 A 
ATOM      8  H   UNL     1      45.013   5.985  12.652  0.00  0.00    +0.000 HD
ENDROOT
BRANCH   1  11
ATOM      9  C   UNL     1      49.699   5.951  19.338  0.00  0.00    +0.000 C 
ATOM     10  N   UNL     1      48.842   5.918  18.181  0.00  0.00    +0.000 N 
ATOM     11  C   UNL     1      49.208   5.228  17.039  0.00  0.00    +0.000 C 
ATOM     12  O   UNL     1      50.248   4.587  16.944  0.00  0.00    +0.000 OA
ATOM     13  H   UNL     1      47.911   6.305  18.266  0.00  0.00    +0.000 HD
ENDBRANCH   1  11
BRANCH   5  14
ATOM     14  C   UNL     1      44.920   3.909  12.367  0.00  0.00    +0.000 C 
ATOM     15  C   UNL     1      43.474   3.858  12.860  0.00  0.00    +0.000 C 
BRANCH  14  16
ATOM     16  C   UNL     1      44.980   3.756  10.847  0.00  0.00    +0.000 A 
ATOM     17  C   UNL     1      45.449   4.815  10.054  0.00  0.00    +0.000 A 
ATOM     18  C   UNL     1      45.507   4.695   8.663  0.00  0.00    +0.000 A 
ATOM     19  C   UNL     1      45.092   3.518   8.044  0.00  0.00    +0.000 A 
ATOM     20  C   UNL     1      44.614   2.460   8.814  0.00  0.00    +0.000 A 
ATOM     21  C   UNL     1      44.559   2.578  10.204  0.00  0.00    +0.000 A 
ENDBRANCH  14  16
ENDBRANCH   5  14
TORSDOF 3
ENDMDL
MODEL 6
REMARK VINA RESULT:    -5.624      4.326      6.360
REMARK INTER + INTRA:          -7.089
REMARK INTER:                  -6.899
REMARK INTRA:                  -0.190
REMARK UNBOUND:                -0.478
REMARK  Name = 
REMARK  5 active torsions:
REMARK  status: ('A' for Active; 'I' for Inactive)
REMARK    1  A    between atoms: C_1  and  N_2
REMARK    2  A    between atoms: C_3  and  C_5
REMARK    3  A    between atoms: N_9  and  C_10
REMARK    4  A    between atoms: C_10  and  C_11
REMARK    5  A    between atoms: C_10  and  C_12
REMARK                            x       y       z     vdW  Elec       q    Type
REMARK                         _______ _______ _______ _____ _____    ______ ____
ROOT
ATOM      1  C   UNL     1      45.582   5.026  12.017  0.00  0.00    +0.000 A 
ATOM      2  C   UNL     1      46.370   6.143  12.281  0.00  0.00    +0.000 A 
ATOM      3  C   UNL     1      47.153   6.165  13.435  0.00  0.00    +0.000 A 
ATOM      4  C   UNL     1      47.097   5.103  14.338  0.00  0.00    +0.000 A 
ATOM      5  N   UNL     1      47.836   5.222  15.510  0.00  0.00    +0.000 N 
ATOM      6  N   UNL     1      46.325   4.025  14.103  0.00  0.00    +0.000 NA
ATOM      7  C   UNL     1      45.596   4.002  12.952  0.00  0.00    +0.000 A 
ATOM      8  H   UNL     1      48.830   5.271  15.331  0.00  0.00    +0.000 HD
ENDROOT
BRANCH   1  11
ATOM      9  C   UNL     1      44.441   4.000   8.559  0.00  0.00    +0.000 C 
ATOM     10  N   UNL     1      45.196   4.160   9.774  0.00  0.00    +0.000 N 
ATOM     11  C   UNL     1      44.708   4.914  10.826  0.00  0.00    +0.000 C 
ATOM     12  O   UNL     1      43.610   5.461  10.811  0.00  0.00    +0.000 OA
ATOM     13  H   UNL     1      46.035   3.607   9.891  0.00  0.00    +0.000 HD
ENDBRANCH   1  11
BRANCH   5  14
ATOM     14  C   UNL     1      47.458   4.422  16.670  0.00  0.00    +0.000 C 
ATOM     15  C   UNL     1      48.035   3.007  16.630  0.00  0.00    +0.000 C 
BRANCH  14  16
ATOM     16  C   UNL     1      47.934   5.166  17.918  0.00  0.00    +0.000 A 
ATOM     17  C   UNL     1      46.998   5.653  18.844  0.00  0.00    +0.000 A 
ATOM     18  C   UNL     1      47.415   6.339  19.987  0.00  0.00    +0.000 A 
ATOM     19  C   UNL     1      48.771   6.554  20.220  0.00  0.00    +0.000 A 
ATOM     20  C   UNL     1      49.714   6.089  19.307  0.00  0.00    +0.000 A 
ATOM     21  C   UNL     1      49.299   5.400  18.165  0.00  0.00    +0.000 A 
ENDBRANCH  14  16
ENDBRANCH   5  14
TORSDOF 3
ENDMDL
MODEL 7
REMARK VINA RESULT:    -5.528      5.632      8.038
REMARK INTER + INTRA:          -6.976
REMARK INTER:                  -6.475
REMARK INTRA:                  -0.501
REMARK UNBOUND:                -0.478
REMARK  Name = 
REMARK  5 active torsions:
REMARK  status: ('A' for Active; 'I' for Inactive)
REMARK    1  A    between atoms: C_1  and  N_2
REMARK    2  A    between atoms: C_3  and  C_5
REMARK    3  A    between atoms: N_9  and  C_10
REMARK    4  A    between atoms: C_10  and  C_11
REMARK    5  A    between atoms: C_10  and  C_12
REMARK                            x       y       z     vdW  Elec       q    Type
REMARK                         _______ _______ _______ _____ _____    ______ ____
ROOT
ATOM      1  C   UNL     1      47.144   5.564  13.738  0.00  0.00    +0.000 A 
ATOM      2  C   UNL     1      46.651   4.474  14.450  0.00  0.00    +0.000 A 
ATOM      3  C   UNL     1      47.172   4.197  15.714  0.00  0.00    +0.000 A 
ATOM      4  C   UNL     1      48.213   4.971  16.226  0.00  0.00    +0.000 A 
ATOM      5  N   UNL     1      48.746   4.593  17.454  0.00  0.00    +0.000 N 
ATOM      6  N   UNL     1      48.710   6.017  15.539  0.00  0.00    +0.000 NA
ATOM      7  C   UNL     1      48.165   6.298  14.323  0.00  0.00    +0.000 A 
ATOM      8  H   UNL     1      48.068   4.662  18.202  0.00  0.00    +0.000 HD
ENDROOT
BRANCH   1  11
ATOM      9  C   UNL     1      45.074   5.446  10.573  0.00  0.00    +0.000 C 
ATOM     10  N   UNL     1      45.607   5.191  11.886  0.00  0.00    +0.000 N 
ATOM     11  C   UNL     1      46.665   5.931  12.384  0.00  0.00    +0.000 C 
ATOM     12  O   UNL     1      47.190   6.853  11.771  0.00  0.00    +0.000 OA
ATOM     13  H   UNL     1      45.112   4.544  12.485  0.00  0.00    +0.000 HD
ENDBRANCH   1  11
BRANCH   5  14
ATOM     14  C   UNL     1      50.095   5.024  17.804  0.00  0.00    +0.000 C 
ATOM     15  C   UNL     1      50.161   5.727  19.160  0.00  0.00    +0.000 C 
BRANCH  14  16
ATOM     16  C   UNL     1      50.992   3.787  17.791  0.00  0.00    +0.000 A 
ATOM     17  C   UNL     1      50.472   2.549  17.380  0.00  0.00    +0.000 A 
ATOM     18  C   UNL     1      51.277   1.406  17.366  0.00  0.00    +0.000 A 
ATOM     19  C   UNL     1      52.609   1.482  17.767  0.00  0.00    +0.000 A 
ATOM     20  C   UNL     1      53.139   2.699  18.187  0.00  0.00    +0.000 A 
ATOM     21  C   UNL     1      52.338   3.842  18.199  0.00  0.00    +0.000 A 
ENDBRANCH  14  16
ENDBRANCH   5  14
TORSDOF 3
ENDMDL
MODEL 8
REMARK VINA RESULT:    -5.392      4.507      6.867
REMARK INTER + INTRA:          -6.815
REMARK INTER:                  -6.263
REMARK INTRA:                  -0.552
REMARK UNBOUND:                -0.478
REMARK  Name = 
REMARK  5 active torsions:
REMARK  status: ('A' for Active; 'I' for Inactive)
REMARK    1  A    between atoms: C_1  and  N_2
REMARK    2  A    between atoms: C_3  and  C_5
REMARK    3  A    between atoms: N_9  and  C_10
REMARK    4  A    between atoms: C_10  and  C_11
REMARK    5  A    between atoms: C_10  and  C_12
REMARK                            x       y       z     vdW  Elec       q    Type
REMARK                         _______ _______ _______ _____ _____    ______ ____
ROOT
ATOM      1  C   UNL     1      45.941   4.853  13.072  0.00  0.00    +0.000 A 
ATOM      2  C   UNL     1      46.186   6.168  12.685  0.00  0.00    +0.000 A 
ATOM      3  C   UNL     1      47.250   6.860  13.263  0.00  0.00    +0.000 A 
ATOM      4  C   UNL     1      48.020   6.255  14.256  0.00  0.00    +0.000 A 
ATOM      5  N   UNL     1      49.013   7.025  14.853  0.00  0.00    +0.000 N 
ATOM      6  N   UNL     1      47.783   4.989  14.652  0.00  0.00    +0.000 NA
ATOM      7  C   UNL     1      46.763   4.315  14.051  0.00  0.00    +0.000 A 
ATOM      8  H   UNL     1      49.730   7.299  14.194  0.00  0.00    +0.000 HD
ENDROOT
BRANCH   1  11
ATOM      9  C   UNL     1      43.917   2.868  10.568  0.00  0.00    +0.000 C 
ATOM     10  N   UNL     1      44.948   3.642  11.208  0.00  0.00    +0.000 N 
ATOM     11  C   UNL     1      44.828   4.042  12.527  0.00  0.00    +0.000 C 
ATOM     12  O   UNL     1      43.873   3.746  13.236  0.00  0.00    +0.000 OA
ATOM     13  H   UNL     1      45.818   3.781  10.711  0.00  0.00    +0.000 HD
ENDBRANCH   1  11
BRANCH   5  14
ATOM     14  C   UNL     1      49.503   6.649  16.175  0.00  0.00    +0.000 C 
ATOM     15  C   UNL     1      51.014   6.827  16.321  0.00  0.00    +0.000 C 
BRANCH  14  16
ATOM     16  C   UNL     1      48.756   7.499  17.202  0.00  0.00    +0.000 A 
ATOM     17  C   UNL     1      48.549   8.867  16.962  0.00  0.00    +0.000 A 
ATOM     18  C   UNL     1      47.872   9.660  17.892  0.00  0.00    +0.000 A 
ATOM     19  C   UNL     1      47.397   9.101  19.076  0.00  0.00    +0.000 A 
ATOM     20  C   UNL     1      47.601   7.749  19.336  0.00  0.00    +0.000 A 
ATOM     21  C   UNL     1      48.275   6.954  18.406  0.00  0.00    +0.000 A 
ENDBRANCH  14  16
ENDBRANCH   5  14
TORSDOF 3
ENDMDL
MODEL 9
REMARK VINA RESULT:    -4.832      7.111      9.684
REMARK INTER + INTRA:          -6.158
REMARK INTER:                  -5.639
REMARK INTRA:                  -0.519
REMARK UNBOUND:                -0.478
REMARK  Name = 
REMARK  5 active torsions:
REMARK  status: ('A' for Active; 'I' for Inactive)
REMARK    1  A    between atoms: C_1  and  N_2
REMARK    2  A    between atoms: C_3  and  C_5
REMARK    3  A    between atoms: N_9  and  C_10
REMARK    4  A    between atoms: C_10  and  C_11
REMARK    5  A    between atoms: C_10  and  C_12
REMARK                            x       y       z     vdW  Elec       q    Type
REMARK                         _______ _______ _______ _____ _____    ______ ____
ROOT
ATOM      1  C   UNL     1      47.517   4.418  15.713  0.00  0.00    +0.000 A 
ATOM      2  C   UNL     1      47.481   3.249  16.469  0.00  0.00    +0.000 A 
ATOM      3  C   UNL     1      48.232   3.175  17.642  0.00  0.00    +0.000 A 
ATOM      4  C   UNL     1      49.051   4.241  18.016  0.00  0.00    +0.000 A 
ATOM      5  N   UNL     1      49.838   4.074  19.150  0.00  0.00    +0.000 N 
ATOM      6  N   UNL     1      49.107   5.370  17.284  0.00  0.00    +0.000 NA
ATOM      7  C   UNL     1      48.339   5.441  16.162  0.00  0.00    +0.000 A 
ATOM      8  H   UNL     1      49.282   3.955  19.987  0.00  0.00    +0.000 HD
ENDROOT
BRANCH   1  11
ATOM      9  C   UNL     1      45.805   6.173  12.832  0.00  0.00    +0.000 C 
ATOM     10  N   UNL     1      46.541   5.889  14.037  0.00  0.00    +0.000 N 
ATOM     11  C   UNL     1      46.766   4.587  14.447  0.00  0.00    +0.000 C 
ATOM     12  O   UNL     1      46.392   3.606  13.814  0.00  0.00    +0.000 OA
ATOM     13  H   UNL     1      46.997   6.658  14.510  0.00  0.00    +0.000 HD
ENDBRANCH   1  11
BRANCH   5  14
ATOM     14  C   UNL     1      51.029   4.901  19.315  0.00  0.00    +0.000 C 
ATOM     15  C   UNL     1      51.000   5.735  20.596  0.00  0.00    +0.000 C 
BRANCH  14  16
ATOM     16  C   UNL     1      52.242   3.972  19.300  0.00  0.00    +0.000 A 
ATOM     17  C   UNL     1      52.443   3.100  18.218  0.00  0.00    +0.000 A 
ATOM     18  C   UNL     1      53.543   2.239  18.189  0.00  0.00    +0.000 A 
ATOM     19  C   UNL     1      54.456   2.234  19.242  0.00  0.00    +0.000 A 
ATOM     20  C   UNL     1      54.267   3.084  20.328  0.00  0.00    +0.000 A 
ATOM     21  C   UNL     1      53.170   3.947  20.357  0.00  0.00    +0.000 A 
ENDBRANCH  14  16
ENDBRANCH   5  14
TORSDOF 3
ENDMDL
