MODEL 1
REMARK VINA RESULT:    -8.469      0.000      0.000
REMARK INTER + INTRA:         -11.520
REMARK INTER:                 -10.945
REMARK INTRA:                  -0.575
REMARK UNBOUND:                -0.575
REMARK  Name = 
REMARK  5 active torsions:
REMARK  status: ('A' for Active; 'I' for Inactive)
REMARK    1  A    between atoms: C_2  and  C_4
REMARK    2  A    between atoms: C_7  and  N_8
REMARK    3  A    between atoms: N_8  and  C_9
REMARK    4  A    between atoms: C_9  and  C_10
REMARK    5  A    between atoms: C_14  and  C_15
REMARK                            x       y       z     vdW  Elec       q    Type
REMARK                         _______ _______ _______ _____ _____    ______ ____
ROOT
ATOM      1  N   UNL     1      43.749   4.871   9.626  0.00  0.00    +0.000 N 
ATOM      2  H   UNL     1      44.108   5.814   9.500  0.00  0.00    +0.000 HD
ENDROOT
BRANCH   1   6
ATOM      3  C   UNL     1      46.222   2.046   7.945  0.00  0.00    +0.000 A 
ATOM      4  C   UNL     1      46.376   3.388   7.635  0.00  0.00    +0.000 A 
ATOM      5  N   UNL     1      45.581   4.361   8.165  0.00  0.00    +0.000 NA
ATOM      6  C   UNL     1      44.614   3.953   9.013  0.00  0.00    +0.000 A 
ATOM      7  C   UNL     1      44.490   2.589   9.327  0.00  0.00    +0.000 A 
ATOM      8  N   UNL     1      45.267   1.605   8.806  0.00  0.00    +0.000 NA
BRANCH   3  10
ATOM      9  N   UNL     1      46.852  -0.274   7.670  0.00  0.00    +0.000 N 
ATOM     10  C   UNL     1      47.107   1.025   7.321  0.00  0.00    +0.000 C 
ATOM     11  O   UNL     1      48.001   1.323   6.540  0.00  0.00    +0.000 OA
ATOM     12  H   UNL     1      47.407  -1.019   7.272  0.00  0.00    +0.000 HD
ATOM     13  H   UNL     1      46.093  -0.490   8.307  0.00  0.00    +0.000 HD
ENDBRANCH   3  10
ENDBRANCH   1   6
BRANCH   1  14
ATOM     14  C   UNL     1      43.439   4.604  11.026  0.00  0.00    +0.000 C 
BRANCH  14  15
ATOM     15  C   UNL     1      44.629   4.984  11.874  0.00  0.00    +0.000 A 
ATOM     16  C   UNL     1      45.038   4.187  12.934  0.00  0.00    +0.000 A 
ATOM     17  N   UNL     1      46.083   4.482  13.735  0.00  0.00    +0.000 NA
ATOM     18  C   UNL     1      46.757   5.629  13.468  0.00  0.00    +0.000 A 
ATOM     19  C   UNL     1      46.461   6.516  12.430  0.00  0.00    +0.000 A 
ATOM     20  C   UNL     1      45.359   6.160  11.634  0.00  0.00    +0.000 A 
BRANCH  19  21
ATOM     21  C   UNL     1      47.258   7.735  12.184  0.00  0.00    +0.000 A 
ATOM     22  C   UNL     1      48.625   7.691  11.874  0.00  0.00    +0.000 A 
ATOM     23  C   UNL     1      49.350   8.865  11.655  0.00  0.00    +0.000 A 
ATOM     24  C   UNL     1      48.684  10.073  11.744  0.00  0.00    +0.000 A 
ATOM     25  N   UNL     1      47.375  10.178  12.036  0.00  0.00    +0.000 NA
ATOM     26  C   UNL     1      46.703   9.019  12.252  0.00  0.00    +0.000 A 
ENDBRANCH  19  21
ENDBRANCH  14  15
ENDBRANCH   1  14
TORSDOF 5
ENDMDL
MODEL 2
REMARK VINA RESULT:    -8.331      1.962      3.400
REMARK INTER + INTRA:         -11.341
REMARK INTER:                 -10.707
REMARK INTRA:                  -0.634
REMARK UNBOUND:                -0.575
REMARK  Name = 
REMARK  5 active torsions:
REMARK  status: ('A' for Active; 'I' for Inactive)
REMARK    1  A    between atoms: C_2  and  C_4
REMARK    2  A    between atoms: C_7  and  N_8
REMARK    3  A    between atoms: N_8  and  C_9
REMARK    4  A    between atoms: C_9  and  C_10
REMARK    5  A    between atoms: C_14  and  C_15
REMARK                            x       y       z     vdW  Elec       q    Type
REMARK                         _______ _______ _______ _____ _____    ______ ____
ROOT
ATOM      1  N   UNL     1      43.785   4.816   9.761  0.00  0.00    +0.000 N 
ATOM      2  H   UNL     1      43.958   5.791   9.530  0.00  0.00    +0.000 HD
ENDROOT
BRANCH   1   6
ATOM      3  C   UNL     1      46.376   2.280   7.816  0.00  0.00    +0.000 A 
ATOM      4  C   UNL     1      46.399   3.642   7.557  0.00  0.00    +0.000 A 
ATOM      5  N   UNL     1      45.559   4.522   8.174  0.00  0.00    +0.000 NA
ATOM      6  C   UNL     1      44.685   3.999   9.059  0.00  0.00    +0.000 A 
ATOM      7  C   UNL     1      44.694   2.619   9.320  0.00  0.00    +0.000 A 
ATOM      8  N   UNL     1      45.516   1.725   8.712  0.00  0.00    +0.000 NA
BRANCH   3  10
ATOM      9  N   UNL     1      48.388   1.958   6.511  0.00  0.00    +0.000 N 
ATOM     10  C   UNL     1      47.302   1.364   7.097  0.00  0.00    +0.000 C 
ATOM     11  O   UNL     1      47.114   0.156   7.038  0.00  0.00    +0.000 OA
ATOM     12  H   UNL     1      49.065   1.392   6.018  0.00  0.00    +0.000 HD
ATOM     13  H   UNL     1      48.525   2.960   6.593  0.00  0.00    +0.000 HD
ENDBRANCH   3  10
ENDBRANCH   1   6
BRANCH   1  14
ATOM     14  C   UNL     1      43.747   4.611  11.205  0.00  0.00    +0.000 C 
BRANCH  14  15
ATOM     15  C   UNL     1      44.887   5.369  11.839  0.00  0.00    +0.000 A 
ATOM     16  C   UNL     1      45.302   6.594  11.337  0.00  0.00    +0.000 A 
ATOM     17  N   UNL     1      46.323   7.311  11.852  0.00  0.00    +0.000 NA
ATOM     18  C   UNL     1      46.965   6.781  12.923  0.00  0.00    +0.000 A 
ATOM     19  C   UNL     1      46.648   5.566  13.536  0.00  0.00    +0.000 A 
ATOM     20  C   UNL     1      45.581   4.862  12.951  0.00  0.00    +0.000 A 
BRANCH  19  21
ATOM     21  C   UNL     1      47.377   5.065  14.718  0.00  0.00    +0.000 A 
ATOM     22  C   UNL     1      47.145   3.793  15.263  0.00  0.00    +0.000 A 
ATOM     23  C   UNL     1      47.848   3.356  16.387  0.00  0.00    +0.000 A 
ATOM     24  C   UNL     1      48.785   4.203  16.947  0.00  0.00    +0.000 A 
ATOM     25  N   UNL     1      49.053   5.432  16.468  0.00  0.00    +0.000 NA
ATOM     26  C   UNL     1      48.345   5.830  15.380  0.00  0.00    +0.000 A 
ENDBRANCH  19  21
ENDBRANCH  14  15
ENDBRANCH   1  14
TORSDOF 5
ENDMDL
MODEL 3
REMARK VINA RESULT:    -8.295      1.513      1.951
REMARK INTER + INTRA:         -11.294
REMARK INTER:                 -10.632
REMARK INTRA:                  -0.662
REMARK UNBOUND:                -0.575
REMARK  Name = 
REMARK  5 active torsions:
REMARK  status: ('A' for Active; 'I' for Inactive)
REMARK    1  A    between atoms: C_2  and  C_4
REMARK    2  A    between atoms: C_7  and  N_8
REMARK    3  A    between atoms: N_8  and  C_9
REMARK    4  A    between atoms: C_9  and  C_10
REMARK    5  A    between atoms: C_14  and  C_15
REMARK                            x       y       z     vdW  Elec       q    Type
REMARK                         _______ _______ _______ _____ _____    ______ ____
ROOT
ATOM      1  N   UNL     1      43.777   3.874  10.400  0.00  0.00    +0.000 N 
ATOM      2  H   UNL     1      42.831   3.745  10.050  0.00  0.00    +0.000 HD
ENDROOT
BRANCH   1   6
ATOM      3  C   UNL     1      46.470   2.758   7.499  0.00  0.00    +0.000 A 
ATOM      4  C   UNL     1      45.937   1.814   8.363  0.00  0.00    +0.000 A 
ATOM      5  N   UNL     1      45.043   2.135   9.342  0.00  0.00    +0.000 NA
ATOM      6  C   UNL     1      44.699   3.436   9.439  0.00  0.00    +0.000 A 
ATOM      7  C   UNL     1      45.237   4.371   8.539  0.00  0.00    +0.000 A 
ATOM      8  N   UNL     1      46.133   4.073   7.563  0.00  0.00    +0.000 NA
BRANCH   3  10
ATOM      9  N   UNL     1      47.382   3.028   5.274  0.00  0.00    +0.000 N 
ATOM     10  C   UNL     1      47.458   2.352   6.463  0.00  0.00    +0.000 C 
ATOM     11  O   UNL     1      48.291   1.477   6.659  0.00  0.00    +0.000 OA
ATOM     12  H   UNL     1      48.033   2.812   4.531  0.00  0.00    +0.000 HD
ATOM     13  H   UNL     1      46.692   3.760   5.149  0.00  0.00    +0.000 HD
ENDBRANCH   3  10
ENDBRANCH   1   6
BRANCH   1  14
ATOM     14  C   UNL     1      43.979   5.233  10.891  0.00  0.00    +0.000 C 
BRANCH  14  15
ATOM     15  C   UNL     1      45.066   5.221  11.938  0.00  0.00    +0.000 A 
ATOM     16  C   UNL     1      45.002   4.366  13.029  0.00  0.00    +0.000 A 
ATOM     17  N   UNL     1      45.936   4.320  14.004  0.00  0.00    +0.000 NA
ATOM     18  C   UNL     1      46.987   5.168  13.885  0.00  0.00    +0.000 A 
ATOM     19  C   UNL     1      47.184   6.072  12.838  0.00  0.00    +0.000 A 
ATOM     20  C   UNL     1      46.176   6.079  11.858  0.00  0.00    +0.000 A 
BRANCH  19  21
ATOM     21  C   UNL     1      48.370   6.947  12.763  0.00  0.00    +0.000 A 
ATOM     22  C   UNL     1      48.719   7.645  11.597  0.00  0.00    +0.000 A 
ATOM     23  C   UNL     1      49.854   8.458  11.561  0.00  0.00    +0.000 A 
ATOM     24  C   UNL     1      50.622   8.566  12.705  0.00  0.00    +0.000 A 
ATOM     25  N   UNL     1      50.336   7.923  13.853  0.00  0.00    +0.000 NA
ATOM     26  C   UNL     1      49.232   7.134  13.851  0.00  0.00    +0.000 A 
ENDBRANCH  19  21
ENDBRANCH  14  15
ENDBRANCH   1  14
TORSDOF 5
ENDMDL
MODEL 4
REMARK VINA RESULT:    -8.154      2.821      6.779
REMARK INTER + INTRA:         -11.113
REMARK INTER:                 -10.463
REMARK INTRA:                  -0.650
REMARK UNBOUND:                -0.575
REMARK  Name = 
REMARK  5 active torsions:
REMARK  status: ('A' for Active; 'I' for Inactive)
REMARK    1  A    between atoms: C_2  and  C_4
REMARK    2  A    between atoms: C_7  and  N_8
REMARK    3  A    between atoms: N_8  and  C_9
REMARK    4  A    between atoms: C_9  and  C_10
REMARK    5  A    between atoms: C_14  and  C_15
REMARK                            x       y       z     vdW  Elec       q    Type
REMARK                         _______ _______ _______ _____ _____    ______ ____
ROOT
ATOM      1  N   UNL     1      43.841   6.365  12.544  0.00  0.00    +0.000 N 
ATOM      2  H   UNL     1      43.481   5.584  13.086  0.00  0.00    +0.000 HD
ENDROOT
BRANCH   1   6
ATOM      3  C   UNL     1      47.805   6.810  13.552  0.00  0.00    +0.000 A 
ATOM      4  C   UNL     1      47.083   7.881  13.049  0.00  0.00    +0.000 A 
ATOM      5  N   UNL     1      45.769   7.783  12.698  0.00  0.00    +0.000 NA
ATOM      6  C   UNL     1      45.192   6.574  12.859  0.00  0.00    +0.000 A 
ATOM      7  C   UNL     1      45.938   5.508  13.390  0.00  0.00    +0.000 A 
ATOM      8  N   UNL     1      47.248   5.583  13.738  0.00  0.00    +0.000 NA
BRANCH   3  10
ATOM      9  N   UNL     1      50.044   7.453  12.898  0.00  0.00    +0.000 N 
ATOM     10  C   UNL     1      49.243   6.970  13.899  0.00  0.00    +0.000 C 
ATOM     11  O   UNL     1      49.684   6.696  15.007  0.00  0.00    +0.000 OA
ATOM     12  H   UNL     1      51.029   7.599  13.070  0.00  0.00    +0.000 HD
ATOM     13  H   UNL     1      49.645   7.686  11.996  0.00  0.00    +0.000 HD
ENDBRANCH   3  10
ENDBRANCH   1   6
BRANCH   1  14
ATOM     14  C   UNL     1      43.545   6.206  11.124  0.00  0.00    +0.000 C 
BRANCH  14  15
ATOM     15  C   UNL     1      43.790   4.770  10.729  0.00  0.00    +0.000 A 
ATOM     16  C   UNL     1      43.176   3.725  11.405  0.00  0.00    +0.000 A 
ATOM     17  N   UNL     1      43.367   2.422  11.107  0.00  0.00    +0.000 NA
ATOM     18  C   UNL     1      44.213   2.145  10.083  0.00  0.00    +0.000 A 
ATOM     19  C   UNL     1      44.888   3.096   9.313  0.00  0.00    +0.000 A 
ATOM     20  C   UNL     1      44.655   4.433   9.674  0.00  0.00    +0.000 A 
BRANCH  19  21
ATOM     21  C   UNL     1      45.774   2.718   8.194  0.00  0.00    +0.000 A 
ATOM     22  C   UNL     1      46.098   3.605   7.156  0.00  0.00    +0.000 A 
ATOM     23  C   UNL     1      46.934   3.210   6.109  0.00  0.00    +0.000 A 
ATOM     24  C   UNL     1      47.442   1.925   6.124  0.00  0.00    +0.000 A 
ATOM     25  N   UNL     1      47.169   1.031   7.091  0.00  0.00    +0.000 NA
ATOM     26  C   UNL     1      46.346   1.444   8.089  0.00  0.00    +0.000 A 
ENDBRANCH  19  21
ENDBRANCH  14  15
ENDBRANCH   1  14
TORSDOF 5
ENDMDL
MODEL 5
REMARK VINA RESULT:    -7.724      3.031      7.196
REMARK INTER + INTRA:         -10.556
REMARK INTER:                 -10.304
REMARK INTRA:                  -0.253
REMARK UNBOUND:                -0.575
REMARK  Name = 
REMARK  5 active torsions:
REMARK  status: ('A' for Active; 'I' for Inactive)
REMARK    1  A    between atoms: C_2  and  C_4
REMARK    2  A    between atoms: C_7  and  N_8
REMARK    3  A    between atoms: N_8  and  C_9
REMARK    4  A    between atoms: C_9  and  C_10
REMARK    5  A    between atoms: C_14  and  C_15
REMARK                            x       y       z     vdW  Elec       q    Type
REMARK                         _______ _______ _______ _____ _____    ______ ____
ROOT
ATOM      1  N   UNL     1      46.445   6.614  11.679  0.00  0.00    +0.000 N 
ATOM      2  H   UNL     1      46.786   7.565  11.570  0.00  0.00    +0.000 HD
ENDROOT
BRANCH   1   6
ATOM      3  C   UNL     1      47.726   5.265  15.348  0.00  0.00    +0.000 A 
ATOM      4  C   UNL     1      46.683   4.631  14.691  0.00  0.00    +0.000 A 
ATOM      5  N   UNL     1      46.221   5.041  13.475  0.00  0.00    +0.000 NA
ATOM      6  C   UNL     1      46.830   6.116  12.933  0.00  0.00    +0.000 A 
ATOM      7  C   UNL     1      47.898   6.730  13.607  0.00  0.00    +0.000 A 
ATOM      8  N   UNL     1      48.368   6.342  14.821  0.00  0.00    +0.000 NA
BRANCH   3  10
ATOM      9  N   UNL     1      47.236   4.842  17.680  0.00  0.00    +0.000 N 
ATOM     10  C   UNL     1      48.174   4.786  16.683  0.00  0.00    +0.000 C 
ATOM     11  O   UNL     1      49.305   4.361  16.881  0.00  0.00    +0.000 OA
ATOM     12  H   UNL     1      47.470   4.519  18.608  0.00  0.00    +0.000 HD
ATOM     13  H   UNL     1      46.302   5.183  17.480  0.00  0.00    +0.000 HD
ENDBRANCH   3  10
ENDBRANCH   1   6
BRANCH   1  14
ATOM     14  C   UNL     1      45.020   6.523  11.378  0.00  0.00    +0.000 C 
BRANCH  14  15
ATOM     15  C   UNL     1      44.727   5.161  10.796  0.00  0.00    +0.000 A 
ATOM     16  C   UNL     1      43.705   4.370  11.302  0.00  0.00    +0.000 A 
ATOM     17  N   UNL     1      43.405   3.140  10.834  0.00  0.00    +0.000 NA
ATOM     18  C   UNL     1      44.161   2.673   9.809  0.00  0.00    +0.000 A 
ATOM     19  C   UNL     1      45.211   3.364   9.199  0.00  0.00    +0.000 A 
ATOM     20  C   UNL     1      45.480   4.636   9.733  0.00  0.00    +0.000 A 
BRANCH  19  21
ATOM     21  C   UNL     1      45.974   2.800   8.068  0.00  0.00    +0.000 A 
ATOM     22  C   UNL     1      46.302   3.553   6.930  0.00  0.00    +0.000 A 
ATOM     23  C   UNL     1      47.019   2.984   5.875  0.00  0.00    +0.000 A 
ATOM     24  C   UNL     1      47.404   1.661   5.981  0.00  0.00    +0.000 A 
ATOM     25  N   UNL     1      47.121   0.889   7.047  0.00  0.00    +0.000 NA
ATOM     26  C   UNL     1      46.415   1.471   8.051  0.00  0.00    +0.000 A 
ENDBRANCH  19  21
ENDBRANCH  14  15
ENDBRANCH   1  14
TORSDOF 5
ENDMDL
MODEL 6
REMARK VINA RESULT:    -7.046      3.998      7.574
REMARK INTER + INTRA:          -9.680
REMARK INTER:                  -9.183
REMARK INTRA:                  -0.497
REMARK UNBOUND:                -0.575
REMARK  Name = 
REMARK  5 active torsions:
REMARK  status: ('A' for Active; 'I' for Inactive)
REMARK    1  A    between atoms: C_2  and  C_4
REMARK    2  A    between atoms: C_7  and  N_8
REMARK    3  A    between atoms: N_8  and  C_9
REMARK    4  A    between atoms: C_9  and  C_10
REMARK    5  A    between atoms: C_14  and  C_15
REMARK                            x       y       z     vdW  Elec       q    Type
REMARK                         _______ _______ _______ _____ _____    ______ ____
ROOT
ATOM      1  N   UNL     1      46.765   5.296  13.271  0.00  0.00    +0.000 N 
ATOM      2  H   UNL     1      47.164   6.104  12.801  0.00  0.00    +0.000 HD
ENDROOT
BRANCH   1   6
ATOM      3  C   UNL     1      48.376   4.720  17.012  0.00  0.00    +0.000 A 
ATOM      4  C   UNL     1      48.743   5.818  16.250  0.00  0.00    +0.000 A 
ATOM      5  N   UNL     1      48.239   6.052  15.005  0.00  0.00    +0.000 NA
ATOM      6  C   UNL     1      47.356   5.146  14.534  0.00  0.00    +0.000 A 
ATOM      7  C   UNL     1      46.984   4.052  15.332  0.00  0.00    +0.000 A 
ATOM      8  N   UNL     1      47.480   3.798  16.571  0.00  0.00    +0.000 NA
BRANCH   3  10
ATOM      9  N   UNL     1      49.771   3.397  18.482  0.00  0.00    +0.000 N 
ATOM     10  C   UNL     1      48.975   4.505  18.357  0.00  0.00    +0.000 C 
ATOM     11  O   UNL     1      48.779   5.271  19.291  0.00  0.00    +0.000 OA
ATOM     12  H   UNL     1      50.220   3.199  19.366  0.00  0.00    +0.000 HD
ATOM     13  H   UNL     1      49.928   2.792  17.684  0.00  0.00    +0.000 HD
ENDBRANCH   3  10
ENDBRANCH   1   6
BRANCH   1  14
ATOM     14  C   UNL     1      45.307   5.345  13.262  0.00  0.00    +0.000 C 
BRANCH  14  15
ATOM     15  C   UNL     1      44.789   4.360  12.242  0.00  0.00    +0.000 A 
ATOM     16  C   UNL     1      43.644   3.614  12.482  0.00  0.00    +0.000 A 
ATOM     17  N   UNL     1      43.141   2.709  11.615  0.00  0.00    +0.000 NA
ATOM     18  C   UNL     1      43.813   2.538  10.450  0.00  0.00    +0.000 A 
ATOM     19  C   UNL     1      44.970   3.226  10.075  0.00  0.00    +0.000 A 
ATOM     20  C   UNL     1      45.449   4.150  11.020  0.00  0.00    +0.000 A 
BRANCH  19  21
ATOM     21  C   UNL     1      45.633   3.004   8.774  0.00  0.00    +0.000 A 
ATOM     22  C   UNL     1      46.076   1.739   8.361  0.00  0.00    +0.000 A 
ATOM     23  C   UNL     1      46.707   1.567   7.127  0.00  0.00    +0.000 A 
ATOM     24  C   UNL     1      46.877   2.674   6.317  0.00  0.00    +0.000 A 
ATOM     25  N   UNL     1      46.471   3.911   6.658  0.00  0.00    +0.000 NA
ATOM     26  C   UNL     1      45.870   4.044   7.868  0.00  0.00    +0.000 A 
ENDBRANCH  19  21
ENDBRANCH  14  15
ENDBRANCH   1  14
TORSDOF 5
ENDMDL
MODEL 7
REMARK VINA RESULT:    -6.756      1.412      2.081
REMARK INTER + INTRA:          -9.306
REMARK INTER:                  -8.615
REMARK INTRA:                  -0.691
REMARK UNBOUND:                -0.575
REMARK  Name = 
REMARK  5 active torsions:
REMARK  status: ('A' for Active; 'I' for Inactive)
REMARK    1  A    between atoms: C_2  and  C_4
REMARK    2  A    between atoms: C_7  and  N_8
REMARK    3  A    between atoms: N_8  and  C_9
REMARK    4  A    between atoms: C_9  and  C_10
REMARK    5  A    between atoms: C_14  and  C_15
REMARK                            x       y       z     vdW  Elec       q    Type
REMARK                         _______ _______ _______ _____ _____    ______ ____
ROOT
ATOM      1  N   UNL     1      44.093   4.781  11.433  0.00  0.00    +0.000 N 
ATOM      2  H   UNL     1      44.166   5.787  11.301  0.00  0.00    +0.000 HD
ENDROOT
BRANCH   1   6
ATOM      3  C   UNL     1      45.890   3.009   8.184  0.00  0.00    +0.000 A 
ATOM      4  C   UNL     1      45.259   2.236   9.147  0.00  0.00    +0.000 A 
ATOM      5  N   UNL     1      44.651   2.776  10.242  0.00  0.00    +0.000 NA
ATOM      6  C   UNL     1      44.698   4.120  10.353  0.00  0.00    +0.000 A 
ATOM      7  C   UNL     1      45.325   4.884   9.355  0.00  0.00    +0.000 A 
ATOM      8  N   UNL     1      45.942   4.365   8.262  0.00  0.00    +0.000 NA
BRANCH   3  10
ATOM      9  N   UNL     1      47.068   1.114   7.248  0.00  0.00    +0.000 N 
ATOM     10  C   UNL     1      46.554   2.363   7.020  0.00  0.00    +0.000 C 
ATOM     11  O   UNL     1      46.632   2.906   5.926  0.00  0.00    +0.000 OA
ATOM     12  H   UNL     1      47.520   0.612   6.496  0.00  0.00    +0.000 HD
ATOM     13  H   UNL     1      46.972   0.684   8.161  0.00  0.00    +0.000 HD
ENDBRANCH   3  10
ENDBRANCH   1   6
BRANCH   1  14
ATOM     14  C   UNL     1      44.562   4.384  12.756  0.00  0.00    +0.000 C 
BRANCH  14  15
ATOM     15  C   UNL     1      45.741   5.245  13.138  0.00  0.00    +0.000 A 
ATOM     16  C   UNL     1      46.800   4.729  13.871  0.00  0.00    +0.000 A 
ATOM     17  N   UNL     1      47.873   5.453  14.255  0.00  0.00    +0.000 NA
ATOM     18  C   UNL     1      47.893   6.759  13.890  0.00  0.00    +0.000 A 
ATOM     19  C   UNL     1      46.903   7.406  13.145  0.00  0.00    +0.000 A 
ATOM     20  C   UNL     1      45.808   6.603  12.781  0.00  0.00    +0.000 A 
BRANCH  19  21
ATOM     21  C   UNL     1      47.007   8.828  12.762  0.00  0.00    +0.000 A 
ATOM     22  C   UNL     1      45.972   9.508  12.103  0.00  0.00    +0.000 A 
ATOM     23  C   UNL     1      46.109  10.852  11.748  0.00  0.00    +0.000 A 
ATOM     24  C   UNL     1      47.287  11.499  12.070  0.00  0.00    +0.000 A 
ATOM     25  N   UNL     1      48.313  10.901  12.702  0.00  0.00    +0.000 NA
ATOM     26  C   UNL     1      48.151   9.592  13.024  0.00  0.00    +0.000 A 
ENDBRANCH  19  21
ENDBRANCH  14  15
ENDBRANCH   1  14
TORSDOF 5
ENDMDL
MODEL 8
REMARK VINA RESULT:    -6.351      3.756      7.533
REMARK INTER + INTRA:          -8.782
REMARK INTER:                  -8.268
REMARK INTRA:                  -0.514
REMARK UNBOUND:                -0.575
REMARK  Name = 
REMARK  5 active torsions:
REMARK  status: ('A' for Active; 'I' for Inactive)
REMARK    1  A    between atoms: C_2  and  C_4
REMARK    2  A    between atoms: C_7  and  N_8
REMARK    3  A    between atoms: N_8  and  C_9
REMARK    4  A    between atoms: C_9  and  C_10
REMARK    5  A    between atoms: C_14  and  C_15
REMARK                            x       y       z     vdW  Elec       q    Type
REMARK                         _______ _______ _______ _____ _____    ______ ____
ROOT
ATOM      1  N   UNL     1      48.232   7.642  14.728  0.00  0.00    +0.000 N 
ATOM      2  H   UNL     1      47.268   7.907  14.915  0.00  0.00    +0.000 HD
ENDROOT
BRANCH   1   6
ATOM      3  C   UNL     1      49.101   4.329  17.005  0.00  0.00    +0.000 A 
ATOM      4  C   UNL     1      49.812   5.506  17.178  0.00  0.00    +0.000 A 
ATOM      5  N   UNL     1      49.563   6.630  16.446  0.00  0.00    +0.000 NA
ATOM      6  C   UNL     1      48.581   6.542  15.525  0.00  0.00    +0.000 A 
ATOM      7  C   UNL     1      47.860   5.345  15.383  0.00  0.00    +0.000 A 
ATOM      8  N   UNL     1      48.097   4.213  16.095  0.00  0.00    +0.000 NA
BRANCH   3  10
ATOM      9  N   UNL     1      48.861   3.078  19.063  0.00  0.00    +0.000 N 
ATOM     10  C   UNL     1      49.431   3.127  17.818  0.00  0.00    +0.000 C 
ATOM     11  O   UNL     1      50.158   2.234  17.403  0.00  0.00    +0.000 OA
ATOM     12  H   UNL     1      49.033   2.282  19.663  0.00  0.00    +0.000 HD
ATOM     13  H   UNL     1      48.250   3.826  19.372  0.00  0.00    +0.000 HD
ENDBRANCH   3  10
ENDBRANCH   1   6
BRANCH   1  14
ATOM     14  C   UNL     1      48.469   7.482  13.297  0.00  0.00    +0.000 C 
BRANCH  14  15
ATOM     15  C   UNL     1      47.141   7.375  12.587  0.00  0.00    +0.000 A 
ATOM     16  C   UNL     1      46.197   8.388  12.676  0.00  0.00    +0.000 A 
ATOM     17  N   UNL     1      44.988   8.343  12.077  0.00  0.00    +0.000 NA
ATOM     18  C   UNL     1      44.705   7.233  11.351  0.00  0.00    +0.000 A 
ATOM     19  C   UNL     1      45.563   6.145  11.169  0.00  0.00    +0.000 A 
ATOM     20  C   UNL     1      46.803   6.246  11.822  0.00  0.00    +0.000 A 
BRANCH  19  21
ATOM     21  C   UNL     1      45.194   4.980  10.341  0.00  0.00    +0.000 A 
ATOM     22  C   UNL     1      45.657   4.812   9.027  0.00  0.00    +0.000 A 
ATOM     23  C   UNL     1      45.280   3.701   8.270  0.00  0.00    +0.000 A 
ATOM     24  C   UNL     1      44.446   2.764   8.849  0.00  0.00    +0.000 A 
ATOM     25  N   UNL     1      43.972   2.869  10.105  0.00  0.00    +0.000 NA
ATOM     26  C   UNL     1      44.350   3.966  10.809  0.00  0.00    +0.000 A 
ENDBRANCH  19  21
ENDBRANCH  14  15
ENDBRANCH   1  14
TORSDOF 5
ENDMDL
MODEL 9
REMARK VINA RESULT:    -6.298      4.543      7.962
REMARK INTER + INTRA:          -8.714
REMARK INTER:                  -8.114
REMARK INTRA:                  -0.600
REMARK UNBOUND:                -0.575
REMARK  Name = 
REMARK  5 active torsions:
REMARK  status: ('A' for Active; 'I' for Inactive)
REMARK    1  A    between atoms: C_2  and  C_4
REMARK    2  A    between atoms: C_7  and  N_8
REMARK    3  A    between atoms: N_8  and  C_9
REMARK    4  A    between atoms: C_9  and  C_10
REMARK    5  A    between atoms: C_14  and  C_15
REMARK                            x       y       z     vdW  Elec       q    Type
REMARK                         _______ _______ _______ _____ _____    ______ ____
ROOT
ATOM      1  N   UNL     1      48.197   6.043  16.256  0.00  0.00    +0.000 N 
ATOM      2  H   UNL     1      47.332   5.695  15.852  0.00  0.00    +0.000 HD
ENDROOT
BRANCH   1   6
ATOM      3  C   UNL     1      50.693   2.990  17.429  0.00  0.00    +0.000 A 
ATOM      4  C   UNL     1      49.391   2.722  17.035  0.00  0.00    +0.000 A 
ATOM      5  N   UNL     1      48.526   3.699  16.640  0.00  0.00    +0.000 NA
ATOM      6  C   UNL     1      48.998   4.962  16.657  0.00  0.00    +0.000 A 
ATOM      7  C   UNL     1      50.327   5.208  17.040  0.00  0.00    +0.000 A 
ATOM      8  N   UNL     1      51.202   4.251  17.443  0.00  0.00    +0.000 NA
BRANCH   3  10
ATOM      9  N   UNL     1      52.672   2.261  18.616  0.00  0.00    +0.000 N 
ATOM     10  C   UNL     1      51.586   1.885  17.870  0.00  0.00    +0.000 C 
ATOM     11  O   UNL     1      51.365   0.714  17.593  0.00  0.00    +0.000 OA
ATOM     12  H   UNL     1      53.313   1.559  18.959  0.00  0.00    +0.000 HD
ATOM     13  H   UNL     1      52.818   3.239  18.843  0.00  0.00    +0.000 HD
ENDBRANCH   3  10
ENDBRANCH   1   6
BRANCH   1  14
ATOM     14  C   UNL     1      48.843   7.011  15.376  0.00  0.00    +0.000 C 
BRANCH  14  15
ATOM     15  C   UNL     1      48.231   6.908  14.000  0.00  0.00    +0.000 A 
ATOM     16  C   UNL     1      48.702   7.678  12.946  0.00  0.00    +0.000 A 
ATOM     17  N   UNL     1      48.187   7.641  11.699  0.00  0.00    +0.000 NA
ATOM     18  C   UNL     1      47.149   6.793  11.490  0.00  0.00    +0.000 A 
ATOM     19  C   UNL     1      46.582   5.955  12.454  0.00  0.00    +0.000 A 
ATOM     20  C   UNL     1      47.156   6.043  13.734  0.00  0.00    +0.000 A 
BRANCH  19  21
ATOM     21  C   UNL     1      45.468   5.038  12.145  0.00  0.00    +0.000 A 
ATOM     22  C   UNL     1      44.901   4.946  10.864  0.00  0.00    +0.000 A 
ATOM     23  C   UNL     1      43.842   4.072  10.610  0.00  0.00    +0.000 A 
ATOM     24  C   UNL     1      43.370   3.293  11.648  0.00  0.00    +0.000 A 
ATOM     25  N   UNL     1      43.873   3.335  12.896  0.00  0.00    +0.000 NA
ATOM     26  C   UNL     1      44.896   4.202  13.111  0.00  0.00    +0.000 A 
ENDBRANCH  19  21
ENDBRANCH  14  15
ENDBRANCH   1  14
TORSDOF 5
ENDMDL
