MODEL 1
REMARK VINA RESULT:    -7.684      0.000      0.000
REMARK INTER + INTRA:         -12.503
REMARK INTER:                 -11.053
REMARK INTRA:                  -1.450
REMARK UNBOUND:                -1.450
REMARK  Name = 
REMARK  8 active torsions:
REMARK  status: ('A' for Active; 'I' for Inactive)
REMARK    1  A    between atoms: N_1  and  C_2
REMARK    2  A    between atoms: C_2  and  C_3
REMARK    3  A    between atoms: C_3  and  N_4
REMARK    4  A    between atoms: C_3  and  C_17
REMARK    5  A    between atoms: C_5  and  C_7
REMARK    6  A    between atoms: C_20  and  C_21
REMARK    7  A    between atoms: C_21  and  N_22
REMARK    8  A    between atoms: C_23  and  C_25
REMARK                            x       y       z     vdW  Elec       q    Type
REMARK                         _______ _______ _______ _____ _____    ______ ____
ROOT
ATOM      1  C   UNL     1      48.205   8.002  14.213  0.00  0.00    +0.000 C 
ENDROOT
BRANCH   1   2
ATOM      2  C   UNL     1      47.180   7.326  13.297  0.00  0.00    +0.000 A 
ATOM      3  C   UNL     1      47.127   5.928  13.202  0.00  0.00    +0.000 A 
ATOM      4  C   UNL     1      46.215   5.299  12.343  0.00  0.00    +0.000 A 
ATOM      5  C   UNL     1      45.334   6.052  11.555  0.00  0.00    +0.000 A 
ATOM      6  C   UNL     1      45.354   7.448  11.682  0.00  0.00    +0.000 A 
ATOM      7  C   UNL     1      46.265   8.077  12.540  0.00  0.00    +0.000 A 
BRANCH   5   8
ATOM      8  C   UNL     1      44.412   5.384  10.568  0.00  0.00    +0.000 C 
BRANCH   8   9
ATOM      9  N   UNL     1      45.105   4.673   9.524  0.00  0.00    +0.000 N 
ATOM     10  C   UNL     1      44.997   3.299   9.407  0.00  0.00    +0.000 C 
ATOM     11  O   UNL     1      44.324   2.608  10.164  0.00  0.00    +0.000 OA
ATOM     12  H   UNL     1      45.627   5.167   8.807  0.00  0.00    +0.000 HD
BRANCH  10  13
ATOM     13  C   UNL     1      45.773   2.687   8.278  0.00  0.00    +0.000 A 
ATOM     14  C   UNL     1      46.023   3.432   7.129  0.00  0.00    +0.000 A 
ATOM     15  C   UNL     1      46.725   2.830   6.090  0.00  0.00    +0.000 A 
ATOM     16  C   UNL     1      47.146   1.512   6.230  0.00  0.00    +0.000 A 
ATOM     17  C   UNL     1      46.853   0.846   7.411  0.00  0.00    +0.000 A 
ATOM     18  N   UNL     1      46.180   1.397   8.447  0.00  0.00    +0.000 NA
ENDBRANCH  10  13
ENDBRANCH   8   9
ENDBRANCH   5   8
ENDBRANCH   1   2
BRANCH   1  19
ATOM     19  N   UNL     1      48.146   7.366  15.522  0.00  0.00    +0.000 N 
ATOM     20  C   UNL     1      49.186   6.645  16.055  0.00  0.00    +0.000 C 
ATOM     21  O   UNL     1      50.298   6.594  15.538  0.00  0.00    +0.000 OA
ATOM     22  H   UNL     1      47.208   7.143  15.846  0.00  0.00    +0.000 HD
BRANCH  20  23
ATOM     23  C   UNL     1      48.910   5.964  17.320  0.00  0.00    +0.000 A 
ATOM     24  C   UNL     1      49.059   4.588  17.420  0.00  0.00    +0.000 A 
ATOM     25  S   UNL     1      48.651   3.971  18.959  0.00  0.00    +0.000 S 
ATOM     26  C   UNL     1      48.223   5.518  19.526  0.00  0.00    +0.000 A 
ATOM     27  N   UNL     1      47.724   5.697  20.779  0.00  0.00    +0.000 NA
ATOM     28  C   UNL     1      47.412   6.919  21.059  0.00  0.00    +0.000 A 
ATOM     29  N   UNL     1      47.576   7.983  20.212  0.00  0.00    +0.000 N 
ATOM     30  C   UNL     1      48.126   7.859  18.958  0.00  0.00    +0.000 A 
ATOM     31  O   UNL     1      48.351   8.841  18.262  0.00  0.00    +0.000 OA
ATOM     32  C   UNL     1      48.441   6.496  18.574  0.00  0.00    +0.000 A 
ATOM     33  H   UNL     1      47.349   8.922  20.502  0.00  0.00    +0.000 HD
ENDBRANCH  20  23
ENDBRANCH   1  19
BRANCH   1  34
ATOM     34  C   UNL     1      47.985   9.546  14.293  0.00  0.00    +0.000 C 
BRANCH  34  35
ATOM     35  N   UNL     1      48.431  10.162  15.550  0.00  0.00    +0.000 NA
ATOM     36  H   UNL     1      49.445  10.078  15.612  0.00  0.00    +0.000 HD
ATOM     37  H   UNL     1      48.051   9.638  16.339  0.00  0.00    +0.000 HD
ENDBRANCH  34  35
ENDBRANCH   1  34
TORSDOF 8
ENDMDL
MODEL 2
REMARK VINA RESULT:    -7.523      1.831      2.280
REMARK INTER + INTRA:         -12.272
REMARK INTER:                 -10.823
REMARK INTRA:                  -1.449
REMARK UNBOUND:                -1.450
REMARK  Name = 
REMARK  8 active torsions:
REMARK  status: ('A' for Active; 'I' for Inactive)
REMARK    1  A    between atoms: N_1  and  C_2
REMARK    2  A    between atoms: C_2  and  C_3
REMARK    3  A    between atoms: C_3  and  N_4
REMARK    4  A    between atoms: C_3  and  C_17
REMARK    5  A    between atoms: C_5  and  C_7
REMARK    6  A    between atoms: C_20  and  C_21
REMARK    7  A    between atoms: C_21  and  N_22
REMARK    8  A    between atoms: C_23  and  C_25
REMARK                            x       y       z     vdW  Elec       q    Type
REMARK                         _______ _______ _______ _____ _____    ______ ____
ROOT
ATOM      1  C   UNL     1      48.637   8.617  14.192  0.00  0.00    +0.000 C 
ENDROOT
BRANCH   1   2
ATOM      2  C   UNL     1      47.645   7.983  13.211  0.00  0.00    +0.000 A 
ATOM      3  C   UNL     1      46.284   8.319  13.262  0.00  0.00    +0.000 A 
ATOM      4  C   UNL     1      45.363   7.722  12.391  0.00  0.00    +0.000 A 
ATOM      5  C   UNL     1      45.777   6.772  11.448  0.00  0.00    +0.000 A 
ATOM      6  C   UNL     1      47.142   6.467  11.365  0.00  0.00    +0.000 A 
ATOM      7  C   UNL     1      48.064   7.063  12.235  0.00  0.00    +0.000 A 
BRANCH   5   8
ATOM      8  C   UNL     1      44.778   6.065  10.569  0.00  0.00    +0.000 C 
BRANCH   8   9
ATOM      9  N   UNL     1      45.384   5.180   9.606  0.00  0.00    +0.000 N 
ATOM     10  C   UNL     1      44.991   3.859   9.508  0.00  0.00    +0.000 C 
ATOM     11  O   UNL     1      44.123   3.358  10.216  0.00  0.00    +0.000 OA
ATOM     12  H   UNL     1      46.059   5.522   8.928  0.00  0.00    +0.000 HD
BRANCH  10  13
ATOM     13  C   UNL     1      45.706   3.049   8.466  0.00  0.00    +0.000 A 
ATOM     14  C   UNL     1      46.088   3.649   7.269  0.00  0.00    +0.000 A 
ATOM     15  C   UNL     1      46.729   2.868   6.313  0.00  0.00    +0.000 A 
ATOM     16  C   UNL     1      46.961   1.523   6.580  0.00  0.00    +0.000 A 
ATOM     17  C   UNL     1      46.546   1.010   7.801  0.00  0.00    +0.000 A 
ATOM     18  N   UNL     1      45.927   1.737   8.759  0.00  0.00    +0.000 NA
ENDBRANCH  10  13
ENDBRANCH   8   9
ENDBRANCH   5   8
ENDBRANCH   1   2
BRANCH   1  19
ATOM     19  N   UNL     1      48.707   7.783  15.384  0.00  0.00    +0.000 N 
ATOM     20  C   UNL     1      49.822   7.065  15.734  0.00  0.00    +0.000 C 
ATOM     21  O   UNL     1      50.898   7.174  15.153  0.00  0.00    +0.000 OA
ATOM     22  H   UNL     1      47.807   7.446  15.722  0.00  0.00    +0.000 HD
BRANCH  20  23
ATOM     23  C   UNL     1      49.675   6.177  16.889  0.00  0.00    +0.000 A 
ATOM     24  C   UNL     1      50.460   6.362  18.017  0.00  0.00    +0.000 A 
ATOM     25  S   UNL     1      50.175   5.205  19.240  0.00  0.00    +0.000 S 
ATOM     26  C   UNL     1      49.023   4.397  18.282  0.00  0.00    +0.000 A 
ATOM     27  N   UNL     1      48.418   3.259  18.717  0.00  0.00    +0.000 NA
ATOM     28  C   UNL     1      47.593   2.737  17.871  0.00  0.00    +0.000 A 
ATOM     29  N   UNL     1      47.298   3.261  16.640  0.00  0.00    +0.000 N 
ATOM     30  C   UNL     1      47.843   4.437  16.181  0.00  0.00    +0.000 A 
ATOM     31  O   UNL     1      47.486   4.931  15.119  0.00  0.00    +0.000 OA
ATOM     32  C   UNL     1      48.820   5.032  17.071  0.00  0.00    +0.000 A 
ATOM     33  H   UNL     1      46.614   2.828  16.038  0.00  0.00    +0.000 HD
ENDBRANCH  20  23
ENDBRANCH   1  19
BRANCH   1  34
ATOM     34  C   UNL     1      48.262  10.096  14.524  0.00  0.00    +0.000 C 
BRANCH  34  35
ATOM     35  N   UNL     1      48.251  10.417  15.957  0.00  0.00    +0.000 NA
ATOM     36  H   UNL     1      49.108  10.060  16.378  0.00  0.00    +0.000 HD
ATOM     37  H   UNL     1      47.480   9.923  16.409  0.00  0.00    +0.000 HD
ENDBRANCH  34  35
ENDBRANCH   1  34
TORSDOF 8
ENDMDL
MODEL 3
REMARK VINA RESULT:    -7.246      1.602      2.096
REMARK INTER + INTRA:         -11.874
REMARK INTER:                 -10.786
REMARK INTRA:                  -1.088
REMARK UNBOUND:                -1.450
REMARK  Name = 
REMARK  8 active torsions:
REMARK  status: ('A' for Active; 'I' for Inactive)
REMARK    1  A    between atoms: N_1  and  C_2
REMARK    2  A    between atoms: C_2  and  C_3
REMARK    3  A    between atoms: C_3  and  N_4
REMARK    4  A    between atoms: C_3  and  C_17
REMARK    5  A    between atoms: C_5  and  C_7
REMARK    6  A    between atoms: C_20  and  C_21
REMARK    7  A    between atoms: C_21  and  N_22
REMARK    8  A    between atoms: C_23  and  C_25
REMARK                            x       y       z     vdW  Elec       q    Type
REMARK                         _______ _______ _______ _____ _____    ______ ____
ROOT
ATOM      1  C   UNL     1      47.589   8.246  13.323  0.00  0.00    +0.000 C 
ENDROOT
BRANCH   1   2
ATOM      2  C   UNL     1      46.652   7.160  12.786  0.00  0.00    +0.000 A 
ATOM      3  C   UNL     1      46.845   5.817  13.142  0.00  0.00    +0.000 A 
ATOM      4  C   UNL     1      46.013   4.811  12.632  0.00  0.00    +0.000 A 
ATOM      5  C   UNL     1      44.969   5.121  11.750  0.00  0.00    +0.000 A 
ATOM      6  C   UNL     1      44.745   6.467  11.429  0.00  0.00    +0.000 A 
ATOM      7  C   UNL     1      45.576   7.473  11.938  0.00  0.00    +0.000 A 
BRANCH   5   8
ATOM      8  C   UNL     1      44.127   4.034  11.133  0.00  0.00    +0.000 C 
BRANCH   8   9
ATOM      9  N   UNL     1      44.852   3.202  10.207  0.00  0.00    +0.000 N 
ATOM     10  C   UNL     1      45.156   3.649   8.935  0.00  0.00    +0.000 C 
ATOM     11  O   UNL     1      44.836   4.757   8.515  0.00  0.00    +0.000 OA
ATOM     12  H   UNL     1      45.221   2.299  10.489  0.00  0.00    +0.000 HD
BRANCH  10  13
ATOM     13  C   UNL     1      45.911   2.680   8.074  0.00  0.00    +0.000 A 
ATOM     14  C   UNL     1      46.478   3.116   6.879  0.00  0.00    +0.000 A 
ATOM     15  C   UNL     1      47.153   2.189   6.091  0.00  0.00    +0.000 A 
ATOM     16  C   UNL     1      47.235   0.868   6.517  0.00  0.00    +0.000 A 
ATOM     17  C   UNL     1      46.640   0.523   7.723  0.00  0.00    +0.000 A 
ATOM     18  N   UNL     1      45.982   1.395   8.520  0.00  0.00    +0.000 NA
ENDBRANCH  10  13
ENDBRANCH   8   9
ENDBRANCH   5   8
ENDBRANCH   1   2
BRANCH   1  19
ATOM     19  N   UNL     1      47.638   8.140  14.774  0.00  0.00    +0.000 N 
ATOM     20  C   UNL     1      48.801   7.934  15.474  0.00  0.00    +0.000 C 
ATOM     21  O   UNL     1      49.911   7.964  14.951  0.00  0.00    +0.000 OA
ATOM     22  H   UNL     1      46.770   7.835  15.209  0.00  0.00    +0.000 HD
BRANCH  20  23
ATOM     23  C   UNL     1      48.651   7.719  16.914  0.00  0.00    +0.000 A 
ATOM     24  C   UNL     1      48.581   8.801  17.779  0.00  0.00    +0.000 A 
ATOM     25  S   UNL     1      48.451   8.350  19.421  0.00  0.00    +0.000 S 
ATOM     26  C   UNL     1      48.524   6.695  19.029  0.00  0.00    +0.000 A 
ATOM     27  N   UNL     1      48.521   5.740  19.997  0.00  0.00    +0.000 NA
ATOM     28  C   UNL     1      48.617   4.531  19.554  0.00  0.00    +0.000 A 
ATOM     29  N   UNL     1      48.690   4.185  18.231  0.00  0.00    +0.000 N 
ATOM     30  C   UNL     1      48.642   5.112  17.216  0.00  0.00    +0.000 A 
ATOM     31  O   UNL     1      48.610   4.767  16.041  0.00  0.00    +0.000 OA
ATOM     32  C   UNL     1      48.593   6.490  17.664  0.00  0.00    +0.000 A 
ATOM     33  H   UNL     1      48.724   3.219  17.944  0.00  0.00    +0.000 HD
ENDBRANCH  20  23
ENDBRANCH   1  19
BRANCH   1  34
ATOM     34  C   UNL     1      47.163   9.671  12.847  0.00  0.00    +0.000 C 
BRANCH  34  35
ATOM     35  N   UNL     1      47.937  10.771  13.438  0.00  0.00    +0.000 NA
ATOM     36  H   UNL     1      48.756  10.380  13.901  0.00  0.00    +0.000 HD
ATOM     37  H   UNL     1      47.382  11.223  14.166  0.00  0.00    +0.000 HD
ENDBRANCH  34  35
ENDBRANCH   1  34
TORSDOF 8
ENDMDL
MODEL 4
REMARK VINA RESULT:    -6.922      2.763      4.066
REMARK INTER + INTRA:         -11.408
REMARK INTER:                 -10.230
REMARK INTRA:                  -1.178
REMARK UNBOUND:                -1.450
REMARK  Name = 
REMARK  8 active torsions:
REMARK  status: ('A' for Active; 'I' for Inactive)
REMARK    1  A    between atoms: N_1  and  C_2
REMARK    2  A    between atoms: C_2  and  C_3
REMARK    3  A    between atoms: C_3  and  N_4
REMARK    4  A    between atoms: C_3  and  C_17
REMARK    5  A    between atoms: C_5  and  C_7
REMARK    6  A    between atoms: C_20  and  C_21
REMARK    7  A    between atoms: C_21  and  N_22
REMARK    8  A    between atoms: C_23  and  C_25
REMARK                            x       y       z     vdW  Elec       q    Type
REMARK                         _______ _______ _______ _____ _____    ______ ____
ROOT
ATOM      1  C   UNL     1      47.389   5.076  15.824  0.00  0.00    +0.000 C 
ENDROOT
BRANCH   1   2
ATOM      2  C   UNL     1      46.832   5.222  14.404  0.00  0.00    +0.000 A 
ATOM      3  C   UNL     1      47.156   6.344  13.627  0.00  0.00    +0.000 A 
ATOM      4  C   UNL     1      46.627   6.504  12.339  0.00  0.00    +0.000 A 
ATOM      5  C   UNL     1      45.759   5.548  11.795  0.00  0.00    +0.000 A 
ATOM      6  C   UNL     1      45.470   4.404  12.551  0.00  0.00    +0.000 A 
ATOM      7  C   UNL     1      45.997   4.243  13.839  0.00  0.00    +0.000 A 
BRANCH   5   8
ATOM      8  C   UNL     1      45.120   5.757  10.446  0.00  0.00    +0.000 C 
BRANCH   8   9
ATOM      9  N   UNL     1      45.749   5.006   9.390  0.00  0.00    +0.000 N 
ATOM     10  C   UNL     1      45.236   3.789   8.980  0.00  0.00    +0.000 C 
ATOM     11  O   UNL     1      44.238   3.276   9.475  0.00  0.00    +0.000 OA
ATOM     12  H   UNL     1      46.537   5.383   8.871  0.00  0.00    +0.000 HD
BRANCH  10  13
ATOM     13  C   UNL     1      45.991   3.112   7.873  0.00  0.00    +0.000 A 
ATOM     14  C   UNL     1      46.377   1.782   8.015  0.00  0.00    +0.000 A 
ATOM     15  C   UNL     1      47.094   1.188   6.982  0.00  0.00    +0.000 A 
ATOM     16  C   UNL     1      47.405   1.938   5.853  0.00  0.00    +0.000 A 
ATOM     17  C   UNL     1      46.979   3.258   5.797  0.00  0.00    +0.000 A 
ATOM     18  N   UNL     1      46.273   3.869   6.776  0.00  0.00    +0.000 NA
ENDBRANCH  10  13
ENDBRANCH   8   9
ENDBRANCH   5   8
ENDBRANCH   1   2
BRANCH   1  19
ATOM     19  N   UNL     1      48.642   5.814  15.908  0.00  0.00    +0.000 N 
ATOM     20  C   UNL     1      48.940   6.674  16.935  0.00  0.00    +0.000 C 
ATOM     21  O   UNL     1      48.240   6.788  17.937  0.00  0.00    +0.000 OA
ATOM     22  H   UNL     1      49.104   5.972  15.015  0.00  0.00    +0.000 HD
BRANCH  20  23
ATOM     23  C   UNL     1      50.184   7.433  16.793  0.00  0.00    +0.000 A 
ATOM     24  C   UNL     1      50.147   8.798  16.552  0.00  0.00    +0.000 A 
ATOM     25  S   UNL     1      51.694   9.499  16.376  0.00  0.00    +0.000 S 
ATOM     26  C   UNL     1      52.459   7.991  16.576  0.00  0.00    +0.000 A 
ATOM     27  N   UNL     1      53.810   7.868  16.478  0.00  0.00    +0.000 NA
ATOM     28  C   UNL     1      54.247   6.661  16.617  0.00  0.00    +0.000 A 
ATOM     29  N   UNL     1      53.461   5.568  16.870  0.00  0.00    +0.000 N 
ATOM     30  C   UNL     1      52.098   5.653  17.032  0.00  0.00    +0.000 A 
ATOM     31  O   UNL     1      51.433   4.676  17.355  0.00  0.00    +0.000 OA
ATOM     32  C   UNL     1      51.551   6.980  16.827  0.00  0.00    +0.000 A 
ATOM     33  H   UNL     1      53.864   4.654  17.008  0.00  0.00    +0.000 HD
ENDBRANCH  20  23
ENDBRANCH   1  19
BRANCH   1  34
ATOM     34  C   UNL     1      47.554   3.579  16.234  0.00  0.00    +0.000 C 
BRANCH  34  35
ATOM     35  N   UNL     1      46.768   3.176  17.408  0.00  0.00    +0.000 NA
ATOM     36  H   UNL     1      46.944   3.840  18.161  0.00  0.00    +0.000 HD
ATOM     37  H   UNL     1      47.098   2.269  17.742  0.00  0.00    +0.000 HD
ENDBRANCH  34  35
ENDBRANCH   1  34
TORSDOF 8
ENDMDL
MODEL 5
REMARK VINA RESULT:    -6.760      2.480      4.052
REMARK INTER + INTRA:         -11.174
REMARK INTER:                  -9.852
REMARK INTRA:                  -1.321
REMARK UNBOUND:                -1.450
REMARK  Name = 
REMARK  8 active torsions:
REMARK  status: ('A' for Active; 'I' for Inactive)
REMARK    1  A    between atoms: N_1  and  C_2
REMARK    2  A    between atoms: C_2  and  C_3
REMARK    3  A    between atoms: C_3  and  N_4
REMARK    4  A    between atoms: C_3  and  C_17
REMARK    5  A    between atoms: C_5  and  C_7
REMARK    6  A    between atoms: C_20  and  C_21
REMARK    7  A    between atoms: C_21  and  N_22
REMARK    8  A    between atoms: C_23  and  C_25
REMARK                            x       y       z     vdW  Elec       q    Type
REMARK                         _______ _______ _______ _____ _____    ______ ____
ROOT
ATOM      1  C   UNL     1      47.499   5.063  15.768  0.00  0.00    +0.000 C 
ENDROOT
BRANCH   1   2
ATOM      2  C   UNL     1      46.857   5.149  14.380  0.00  0.00    +0.000 A 
ATOM      3  C   UNL     1      47.077   6.269  13.565  0.00  0.00    +0.000 A 
ATOM      4  C   UNL     1      46.470   6.372  12.305  0.00  0.00    +0.000 A 
ATOM      5  C   UNL     1      45.625   5.361  11.830  0.00  0.00    +0.000 A 
ATOM      6  C   UNL     1      45.439   4.220  12.623  0.00  0.00    +0.000 A 
ATOM      7  C   UNL     1      46.046   4.116  13.881  0.00  0.00    +0.000 A 
BRANCH   5   8
ATOM      8  C   UNL     1      44.903   5.507  10.515  0.00  0.00    +0.000 C 
BRANCH   8   9
ATOM      9  N   UNL     1      45.570   4.855   9.417  0.00  0.00    +0.000 N 
ATOM     10  C   UNL     1      45.214   3.578   9.026  0.00  0.00    +0.000 C 
ATOM     11  O   UNL     1      44.331   2.925   9.574  0.00  0.00    +0.000 OA
ATOM     12  H   UNL     1      46.263   5.343   8.857  0.00  0.00    +0.000 HD
BRANCH  10  13
ATOM     13  C   UNL     1      45.992   3.018   7.871  0.00  0.00    +0.000 A 
ATOM     14  C   UNL     1      46.438   1.699   7.915  0.00  0.00    +0.000 A 
ATOM     15  C   UNL     1      47.175   1.215   6.839  0.00  0.00    +0.000 A 
ATOM     16  C   UNL     1      47.445   2.058   5.767  0.00  0.00    +0.000 A 
ATOM     17  C   UNL     1      46.960   3.358   5.809  0.00  0.00    +0.000 A 
ATOM     18  N   UNL     1      46.233   3.864   6.831  0.00  0.00    +0.000 NA
ENDBRANCH  10  13
ENDBRANCH   8   9
ENDBRANCH   5   8
ENDBRANCH   1   2
BRANCH   1  19
ATOM     19  N   UNL     1      48.884   5.500  15.666  0.00  0.00    +0.000 N 
ATOM     20  C   UNL     1      49.604   5.973  16.734  0.00  0.00    +0.000 C 
ATOM     21  O   UNL     1      49.190   5.935  17.889  0.00  0.00    +0.000 OA
ATOM     22  H   UNL     1      49.167   5.808  14.738  0.00  0.00    +0.000 HD
BRANCH  20  23
ATOM     23  C   UNL     1      50.937   6.493  16.428  0.00  0.00    +0.000 A 
ATOM     24  C   UNL     1      52.066   5.858  16.925  0.00  0.00    +0.000 A 
ATOM     25  S   UNL     1      53.525   6.635  16.496  0.00  0.00    +0.000 S 
ATOM     26  C   UNL     1      52.690   7.866  15.668  0.00  0.00    +0.000 A 
ATOM     27  N   UNL     1      53.354   8.909  15.100  0.00  0.00    +0.000 NA
ATOM     28  C   UNL     1      52.589   9.783  14.537  0.00  0.00    +0.000 A 
ATOM     29  N   UNL     1      51.223   9.701  14.467  0.00  0.00    +0.000 N 
ATOM     30  C   UNL     1      50.515   8.640  14.978  0.00  0.00    +0.000 A 
ATOM     31  O   UNL     1      49.305   8.545  14.815  0.00  0.00    +0.000 OA
ATOM     32  C   UNL     1      51.324   7.657  15.673  0.00  0.00    +0.000 A 
ATOM     33  H   UNL     1      50.681  10.398  13.979  0.00  0.00    +0.000 HD
ENDBRANCH  20  23
ENDBRANCH   1  19
BRANCH   1  34
ATOM     34  C   UNL     1      47.372   3.633  16.381  0.00  0.00    +0.000 C 
BRANCH  34  35
ATOM     35  N   UNL     1      46.834   3.598  17.748  0.00  0.00    +0.000 NA
ATOM     36  H   UNL     1      47.359   2.910  18.287  0.00  0.00    +0.000 HD
ATOM     37  H   UNL     1      45.868   3.268  17.724  0.00  0.00    +0.000 HD
ENDBRANCH  34  35
ENDBRANCH   1  34
TORSDOF 8
ENDMDL
MODEL 6
REMARK VINA RESULT:    -6.626      3.866      5.533
REMARK INTER + INTRA:         -10.982
REMARK INTER:                  -9.759
REMARK INTRA:                  -1.223
REMARK UNBOUND:                -1.450
REMARK  Name = 
REMARK  8 active torsions:
REMARK  status: ('A' for Active; 'I' for Inactive)
REMARK    1  A    between atoms: N_1  and  C_2
REMARK    2  A    between atoms: C_2  and  C_3
REMARK    3  A    between atoms: C_3  and  N_4
REMARK    4  A    between atoms: C_3  and  C_17
REMARK    5  A    between atoms: C_5  and  C_7
REMARK    6  A    between atoms: C_20  and  C_21
REMARK    7  A    between atoms: C_21  and  N_22
REMARK    8  A    between atoms: C_23  and  C_25
REMARK                            x       y       z     vdW  Elec       q    Type
REMARK                         _______ _______ _______ _____ _____    ______ ____
ROOT
ATOM      1  C   UNL     1      48.798   4.746  17.687  0.00  0.00    +0.000 C 
ENDROOT
BRANCH   1   2
ATOM      2  C   UNL     1      48.371   5.282  16.317  0.00  0.00    +0.000 A 
ATOM      3  C   UNL     1      48.859   6.513  15.853  0.00  0.00    +0.000 A 
ATOM      4  C   UNL     1      48.451   7.028  14.615  0.00  0.00    +0.000 A 
ATOM      5  C   UNL     1      47.543   6.328  13.810  0.00  0.00    +0.000 A 
ATOM      6  C   UNL     1      47.088   5.077  14.250  0.00  0.00    +0.000 A 
ATOM      7  C   UNL     1      47.495   4.562  15.487  0.00  0.00    +0.000 A 
BRANCH   5   8
ATOM      8  C   UNL     1      47.035   6.918  12.519  0.00  0.00    +0.000 C 
BRANCH   8   9
ATOM      9  N   UNL     1      46.709   5.928  11.524  0.00  0.00    +0.000 N 
ATOM     10  C   UNL     1      45.414   5.784  11.062  0.00  0.00    +0.000 C 
ATOM     11  O   UNL     1      44.475   6.468  11.459  0.00  0.00    +0.000 OA
ATOM     12  H   UNL     1      47.431   5.365  11.084  0.00  0.00    +0.000 HD
BRANCH  10  13
ATOM     13  C   UNL     1      45.213   4.714  10.029  0.00  0.00    +0.000 A 
ATOM     14  C   UNL     1      44.559   3.535  10.376  0.00  0.00    +0.000 A 
ATOM     15  C   UNL     1      44.409   2.552   9.403  0.00  0.00    +0.000 A 
ATOM     16  C   UNL     1      44.917   2.775   8.128  0.00  0.00    +0.000 A 
ATOM     17  C   UNL     1      45.554   3.982   7.872  0.00  0.00    +0.000 A 
ATOM     18  N   UNL     1      45.714   4.965   8.787  0.00  0.00    +0.000 NA
ENDBRANCH  10  13
ENDBRANCH   8   9
ENDBRANCH   5   8
ENDBRANCH   1   2
BRANCH   1  19
ATOM     19  N   UNL     1      50.133   4.176  17.566  0.00  0.00    +0.000 N 
ATOM     20  C   UNL     1      51.084   4.274  18.550  0.00  0.00    +0.000 C 
ATOM     21  O   UNL     1      50.847   4.725  19.667  0.00  0.00    +0.000 OA
ATOM     22  H   UNL     1      50.459   4.054  16.609  0.00  0.00    +0.000 HD
BRANCH  20  23
ATOM     23  C   UNL     1      52.412   3.762  18.210  0.00  0.00    +0.000 A 
ATOM     24  C   UNL     1      53.520   4.594  18.272  0.00  0.00    +0.000 A 
ATOM     25  S   UNL     1      54.971   3.829  17.800  0.00  0.00    +0.000 S 
ATOM     26  C   UNL     1      54.157   2.374  17.459  0.00  0.00    +0.000 A 
ATOM     27  N   UNL     1      54.817   1.299  16.949  0.00  0.00    +0.000 NA
ATOM     28  C   UNL     1      54.066   0.277  16.709  0.00  0.00    +0.000 A 
ATOM     29  N   UNL     1      52.719   0.220  16.952  0.00  0.00    +0.000 N 
ATOM     30  C   UNL     1      52.020   1.261  17.516  0.00  0.00    +0.000 A 
ATOM     31  O   UNL     1      50.837   1.146  17.813  0.00  0.00    +0.000 OA
ATOM     32  C   UNL     1      52.809   2.454  17.753  0.00  0.00    +0.000 A 
ATOM     33  H   UNL     1      52.191  -0.622  16.779  0.00  0.00    +0.000 HD
ENDBRANCH  20  23
ENDBRANCH   1  19
BRANCH   1  34
ATOM     34  C   UNL     1      47.766   3.724  18.259  0.00  0.00    +0.000 C 
BRANCH  34  35
ATOM     35  N   UNL     1      48.272   2.898  19.364  0.00  0.00    +0.000 NA
ATOM     36  H   UNL     1      49.188   2.534  19.106  0.00  0.00    +0.000 HD
ATOM     37  H   UNL     1      47.665   2.086  19.487  0.00  0.00    +0.000 HD
ENDBRANCH  34  35
ENDBRANCH   1  34
TORSDOF 8
ENDMDL
MODEL 7
REMARK VINA RESULT:    -6.195      4.785      8.240
REMARK INTER + INTRA:         -10.362
REMARK INTER:                  -9.685
REMARK INTRA:                  -0.676
REMARK UNBOUND:                -1.450
REMARK  Name = 
REMARK  8 active torsions:
REMARK  status: ('A' for Active; 'I' for Inactive)
REMARK    1  A    between atoms: N_1  and  C_2
REMARK    2  A    between atoms: C_2  and  C_3
REMARK    3  A    between atoms: C_3  and  N_4
REMARK    4  A    between atoms: C_3  and  C_17
REMARK    5  A    between atoms: C_5  and  C_7
REMARK    6  A    between atoms: C_20  and  C_21
REMARK    7  A    between atoms: C_21  and  N_22
REMARK    8  A    between atoms: C_23  and  C_25
REMARK                            x       y       z     vdW  Elec       q    Type
REMARK                         _______ _______ _______ _____ _____    ______ ____
ROOT
ATOM      1  C   UNL     1      45.968   7.971  12.495  0.00  0.00    +0.000 C 
ENDROOT
BRANCH   1   2
ATOM      2  C   UNL     1      47.491   8.132  12.455  0.00  0.00    +0.000 A 
ATOM      3  C   UNL     1      48.073   9.189  11.741  0.00  0.00    +0.000 A 
ATOM      4  C   UNL     1      49.467   9.328  11.670  0.00  0.00    +0.000 A 
ATOM      5  C   UNL     1      50.313   8.413  12.309  0.00  0.00    +0.000 A 
ATOM      6  C   UNL     1      49.733   7.382  13.061  0.00  0.00    +0.000 A 
ATOM      7  C   UNL     1      48.341   7.242  13.132  0.00  0.00    +0.000 A 
BRANCH   5   8
ATOM      8  C   UNL     1      51.810   8.508  12.165  0.00  0.00    +0.000 C 
BRANCH   8   9
ATOM      9  N   UNL     1      52.356   7.578  11.211  0.00  0.00    +0.000 N 
ATOM     10  C   UNL     1      52.838   8.011   9.989  0.00  0.00    +0.000 C 
ATOM     11  O   UNL     1      52.832   9.187   9.640  0.00  0.00    +0.000 OA
ATOM     12  H   UNL     1      52.470   6.595  11.439  0.00  0.00    +0.000 HD
BRANCH  10  13
ATOM     13  C   UNL     1      53.376   6.936   9.090  0.00  0.00    +0.000 A 
ATOM     14  C   UNL     1      52.636   6.529   7.983  0.00  0.00    +0.000 A 
ATOM     15  C   UNL     1      53.150   5.515   7.182  0.00  0.00    +0.000 A 
ATOM     16  C   UNL     1      54.372   4.942   7.513  0.00  0.00    +0.000 A 
ATOM     17  C   UNL     1      55.041   5.411   8.635  0.00  0.00    +0.000 A 
ATOM     18  N   UNL     1      54.580   6.399   9.435  0.00  0.00    +0.000 NA
ENDBRANCH  10  13
ENDBRANCH   8   9
ENDBRANCH   5   8
ENDBRANCH   1   2
BRANCH   1  19
ATOM     19  N   UNL     1      45.629   6.646  11.997  0.00  0.00    +0.000 N 
ATOM     20  C   UNL     1      44.367   6.299  11.581  0.00  0.00    +0.000 C 
ATOM     21  O   UNL     1      43.456   7.113  11.460  0.00  0.00    +0.000 OA
ATOM     22  H   UNL     1      46.234   5.897  12.328  0.00  0.00    +0.000 HD
BRANCH  20  23
ATOM     23  C   UNL     1      44.171   4.890  11.237  0.00  0.00    +0.000 A 
ATOM     24  C   UNL     1      43.399   4.073  12.051  0.00  0.00    +0.000 A 
ATOM     25  S   UNL     1      43.321   2.456  11.510  0.00  0.00    +0.000 S 
ATOM     26  C   UNL     1      44.350   2.789  10.195  0.00  0.00    +0.000 A 
ATOM     27  N   UNL     1      44.747   1.805   9.343  0.00  0.00    +0.000 NA
ATOM     28  C   UNL     1      45.553   2.197   8.415  0.00  0.00    +0.000 A 
ATOM     29  N   UNL     1      45.983   3.487   8.243  0.00  0.00    +0.000 N 
ATOM     30  C   UNL     1      45.566   4.523   9.045  0.00  0.00    +0.000 A 
ATOM     31  O   UNL     1      45.888   5.680   8.808  0.00  0.00    +0.000 OA
ATOM     32  C   UNL     1      44.703   4.124  10.140  0.00  0.00    +0.000 A 
ATOM     33  H   UNL     1      46.584   3.740   7.474  0.00  0.00    +0.000 HD
ENDBRANCH  20  23
ENDBRANCH   1  19
BRANCH   1  34
ATOM     34  C   UNL     1      45.242   9.105  11.706  0.00  0.00    +0.000 C 
BRANCH  34  35
ATOM     35  N   UNL     1      44.397   9.980  12.529  0.00  0.00    +0.000 NA
ATOM     36  H   UNL     1      43.720   9.404  13.029  0.00  0.00    +0.000 HD
ATOM     37  H   UNL     1      43.856  10.599  11.923  0.00  0.00    +0.000 HD
ENDBRANCH  34  35
ENDBRANCH   1  34
TORSDOF 8
ENDMDL
MODEL 8
REMARK VINA RESULT:    -6.030      3.094      4.705
REMARK INTER + INTRA:         -10.124
REMARK INTER:                  -8.877
REMARK INTRA:                  -1.247
REMARK UNBOUND:                -1.450
REMARK  Name = 
REMARK  8 active torsions:
REMARK  status: ('A' for Active; 'I' for Inactive)
REMARK    1  A    between atoms: N_1  and  C_2
REMARK    2  A    between atoms: C_2  and  C_3
REMARK    3  A    between atoms: C_3  and  N_4
REMARK    4  A    between atoms: C_3  and  C_17
REMARK    5  A    between atoms: C_5  and  C_7
REMARK    6  A    between atoms: C_20  and  C_21
REMARK    7  A    between atoms: C_21  and  N_22
REMARK    8  A    between atoms: C_23  and  C_25
REMARK                            x       y       z     vdW  Elec       q    Type
REMARK                         _______ _______ _______ _____ _____    ______ ____
ROOT
ATOM      1  C   UNL     1      49.022   7.336  17.707  0.00  0.00    +0.000 C 
ENDROOT
BRANCH   1   2
ATOM      2  C   UNL     1      48.666   7.525  16.229  0.00  0.00    +0.000 A 
ATOM      3  C   UNL     1      48.320   8.793  15.740  0.00  0.00    +0.000 A 
ATOM      4  C   UNL     1      47.963   8.973  14.396  0.00  0.00    +0.000 A 
ATOM      5  C   UNL     1      47.939   7.889  13.509  0.00  0.00    +0.000 A 
ATOM      6  C   UNL     1      48.327   6.629  13.984  0.00  0.00    +0.000 A 
ATOM      7  C   UNL     1      48.685   6.449  15.326  0.00  0.00    +0.000 A 
BRANCH   5   8
ATOM      8  C   UNL     1      47.472   8.061  12.086  0.00  0.00    +0.000 C 
BRANCH   8   9
ATOM      9  N   UNL     1      47.007   6.839  11.481  0.00  0.00    +0.000 N 
ATOM     10  C   UNL     1      45.657   6.601  11.304  0.00  0.00    +0.000 C 
ATOM     11  O   UNL     1      44.782   7.392  11.644  0.00  0.00    +0.000 OA
ATOM     12  H   UNL     1      47.659   6.158  11.102  0.00  0.00    +0.000 HD
BRANCH  10  13
ATOM     13  C   UNL     1      45.312   5.288  10.665  0.00  0.00    +0.000 A 
ATOM     14  C   UNL     1      45.624   5.070   9.326  0.00  0.00    +0.000 A 
ATOM     15  C   UNL     1      45.272   3.852   8.754  0.00  0.00    +0.000 A 
ATOM     16  C   UNL     1      44.620   2.901   9.532  0.00  0.00    +0.000 A 
ATOM     17  C   UNL     1      44.350   3.204  10.859  0.00  0.00    +0.000 A 
ATOM     18  N   UNL     1      44.682   4.372  11.454  0.00  0.00    +0.000 NA
ENDBRANCH  10  13
ENDBRANCH   8   9
ENDBRANCH   5   8
ENDBRANCH   1   2
BRANCH   1  19
ATOM     19  N   UNL     1      49.937   6.209  17.823  0.00  0.00    +0.000 N 
ATOM     20  C   UNL     1      50.814   6.058  18.868  0.00  0.00    +0.000 C 
ATOM     21  O   UNL     1      50.803   6.780  19.861  0.00  0.00    +0.000 OA
ATOM     22  H   UNL     1      50.180   5.764  16.940  0.00  0.00    +0.000 HD
BRANCH  20  23
ATOM     23  C   UNL     1      51.753   4.941  18.759  0.00  0.00    +0.000 A 
ATOM     24  C   UNL     1      53.073   5.095  19.157  0.00  0.00    +0.000 A 
ATOM     25  S   UNL     1      54.023   3.698  18.915  0.00  0.00    +0.000 S 
ATOM     26  C   UNL     1      52.710   2.857  18.232  0.00  0.00    +0.000 A 
ATOM     27  N   UNL     1      52.856   1.594  17.747  0.00  0.00    +0.000 NA
ATOM     28  C   UNL     1      51.785   1.095  17.228  0.00  0.00    +0.000 A 
ATOM     29  N   UNL     1      50.573   1.731  17.170  0.00  0.00    +0.000 N 
ATOM     30  C   UNL     1      50.364   2.984  17.696  0.00  0.00    +0.000 A 
ATOM     31  O   UNL     1      49.247   3.487  17.717  0.00  0.00    +0.000 OA
ATOM     32  C   UNL     1      51.552   3.612  18.240  0.00  0.00    +0.000 A 
ATOM     33  H   UNL     1      49.760   1.274  16.786  0.00  0.00    +0.000 HD
ENDBRANCH  20  23
ENDBRANCH   1  19
BRANCH   1  34
ATOM     34  C   UNL     1      47.749   7.159  18.594  0.00  0.00    +0.000 C 
BRANCH  34  35
ATOM     35  N   UNL     1      47.134   5.827  18.523  0.00  0.00    +0.000 NA
ATOM     36  H   UNL     1      47.871   5.124  18.583  0.00  0.00    +0.000 HD
ATOM     37  H   UNL     1      46.693   5.705  17.611  0.00  0.00    +0.000 HD
ENDBRANCH  34  35
ENDBRANCH   1  34
TORSDOF 8
ENDMDL
MODEL 9
REMARK VINA RESULT:    -5.947      5.333      7.413
REMARK INTER + INTRA:         -10.005
REMARK INTER:                  -9.549
REMARK INTRA:                  -0.457
REMARK UNBOUND:                -1.450
REMARK  Name = 
REMARK  8 active torsions:
REMARK  status: ('A' for Active; 'I' for Inactive)
REMARK    1  A    between atoms: N_1  and  C_2
REMARK    2  A    between atoms: C_2  and  C_3
REMARK    3  A    between atoms: C_3  and  N_4
REMARK    4  A    between atoms: C_3  and  C_17
REMARK    5  A    between atoms: C_5  and  C_7
REMARK    6  A    between atoms: C_20  and  C_21
REMARK    7  A    between atoms: C_21  and  N_22
REMARK    8  A    between atoms: C_23  and  C_25
REMARK                            x       y       z     vdW  Elec       q    Type
REMARK                         _______ _______ _______ _____ _____    ______ ____
ROOT
ATOM      1  C   UNL     1      49.088   7.612  14.148  0.00  0.00    +0.000 C 
ENDROOT
BRANCH   1   2
ATOM      2  C   UNL     1      50.103   7.937  13.047  0.00  0.00    +0.000 A 
ATOM      3  C   UNL     1      49.937   7.420  11.754  0.00  0.00    +0.000 A 
ATOM      4  C   UNL     1      50.876   7.685  10.748  0.00  0.00    +0.000 A 
ATOM      5  C   UNL     1      52.006   8.471  11.008  0.00  0.00    +0.000 A 
ATOM      6  C   UNL     1      52.150   9.027  12.287  0.00  0.00    +0.000 A 
ATOM      7  C   UNL     1      51.213   8.763  13.293  0.00  0.00    +0.000 A 
BRANCH   5   8
ATOM      8  C   UNL     1      53.061   8.688   9.954  0.00  0.00    +0.000 C 
BRANCH   8   9
ATOM      9  N   UNL     1      53.574   7.463   9.394  0.00  0.00    +0.000 N 
ATOM     10  C   UNL     1      53.363   7.145   8.065  0.00  0.00    +0.000 C 
ATOM     11  O   UNL     1      52.740   7.863   7.290  0.00  0.00    +0.000 OA
ATOM     12  H   UNL     1      54.164   6.841   9.939  0.00  0.00    +0.000 HD
BRANCH  10  13
ATOM     13  C   UNL     1      53.949   5.839   7.615  0.00  0.00    +0.000 A 
ATOM     14  C   UNL     1      55.098   5.350   8.231  0.00  0.00    +0.000 A 
ATOM     15  C   UNL     1      55.631   4.148   7.776  0.00  0.00    +0.000 A 
ATOM     16  C   UNL     1      55.007   3.483   6.726  0.00  0.00    +0.000 A 
ATOM     17  C   UNL     1      53.865   4.045   6.173  0.00  0.00    +0.000 A 
ATOM     18  N   UNL     1      53.312   5.206   6.590  0.00  0.00    +0.000 NA
ENDBRANCH  10  13
ENDBRANCH   8   9
ENDBRANCH   5   8
ENDBRANCH   1   2
BRANCH   1  19
ATOM     19  N   UNL     1      47.800   7.340  13.525  0.00  0.00    +0.000 N 
ATOM     20  C   UNL     1      47.130   6.152  13.673  0.00  0.00    +0.000 C 
ATOM     21  O   UNL     1      47.487   5.274  14.454  0.00  0.00    +0.000 OA
ATOM     22  H   UNL     1      47.609   7.884  12.686  0.00  0.00    +0.000 HD
BRANCH  20  23
ATOM     23  C   UNL     1      45.915   5.998  12.871  0.00  0.00    +0.000 A 
ATOM     24  C   UNL     1      45.256   7.115  12.378  0.00  0.00    +0.000 A 
ATOM     25  S   UNL     1      43.840   6.737  11.504  0.00  0.00    +0.000 S 
ATOM     26  C   UNL     1      44.041   5.071  11.791  0.00  0.00    +0.000 A 
ATOM     27  N   UNL     1      43.125   4.165  11.357  0.00  0.00    +0.000 NA
ATOM     28  C   UNL     1      43.391   2.942  11.677  0.00  0.00    +0.000 A 
ATOM     29  N   UNL     1      44.501   2.538  12.371  0.00  0.00    +0.000 N 
ATOM     30  C   UNL     1      45.480   3.411  12.782  0.00  0.00    +0.000 A 
ATOM     31  O   UNL     1      46.508   3.009  13.313  0.00  0.00    +0.000 OA
ATOM     32  C   UNL     1      45.199   4.805  12.497  0.00  0.00    +0.000 A 
ATOM     33  H   UNL     1      44.674   1.562  12.558  0.00  0.00    +0.000 HD
ENDBRANCH  20  23
ENDBRANCH   1  19
BRANCH   1  34
ATOM     34  C   UNL     1      49.002   8.749  15.215  0.00  0.00    +0.000 C 
BRANCH  34  35
ATOM     35  N   UNL     1      47.635   9.173  15.548  0.00  0.00    +0.000 NA
ATOM     36  H   UNL     1      47.518  10.145  15.266  0.00  0.00    +0.000 HD
ATOM     37  H   UNL     1      47.511   9.150  16.561  0.00  0.00    +0.000 HD
ENDBRANCH  34  35
ENDBRANCH   1  34
TORSDOF 8
ENDMDL
