MODEL 1
REMARK VINA RESULT:    -8.640      0.000      0.000
REMARK INTER + INTRA:         -14.199
REMARK INTER:                 -13.438
REMARK INTRA:                  -0.760
REMARK UNBOUND:                -0.760
REMARK  Name = 
REMARK  11 active torsions:
REMARK  status: ('A' for Active; 'I' for Inactive)
REMARK    1  A    between atoms: C_1  and  C_2
REMARK    2  A    between atoms: C_2  and  N_3
REMARK    3  A    between atoms: C_2  and  C_22
REMARK    4  A    between atoms: N_3  and  C_4
REMARK    5  A    between atoms: C_4  and  C_5
REMARK    6  A    between atoms: C_8  and  C_9
REMARK    7  A    between atoms: C_9  and  N_10
REMARK    8  A    between atoms: N_10  and  CA_11
REMARK    9  A    between atoms: CA_11  and  C_12
REMARK   10  A    between atoms: CA_11  and  C_14
REMARK   11  A    between atoms: C_12  and  O_13
REMARK                            x       y       z     vdW  Elec       q    Type
REMARK                         _______ _______ _______ _____ _____    ______ ____
ROOT
ATOM      1  C   UNL     1      47.262   5.417  13.980  0.00  0.00    +0.000 A 
ATOM      2  C   UNL     1      47.244   4.017  13.936  0.00  0.00    +0.000 A 
ATOM      3  C   UNL     1      46.278   3.342  13.185  0.00  0.00    +0.000 A 
ATOM      4  C   UNL     1      45.296   4.050  12.474  0.00  0.00    +0.000 A 
ATOM      5  C   UNL     1      45.304   5.449  12.531  0.00  0.00    +0.000 A 
ATOM      6  C   UNL     1      46.277   6.123  13.272  0.00  0.00    +0.000 A 
ENDROOT
BRANCH   1   7
ATOM      7  C   UNL     1      48.278   6.164  14.814  0.00  0.00    +0.000 C 
BRANCH   7   8
ATOM      8  N   UNL     1      48.033   6.027  16.251  0.00  0.00    +0.000 NA
ATOM      9  H   UNL     1      48.707   6.606  16.748  0.00  0.00    +0.000 HD
BRANCH   8  11
ATOM     10  C   UNL     1      47.110   4.217  17.710  0.00  0.00    +0.000 C 
ATOM     11  C   UNL     1      48.198   4.642  16.716  0.00  0.00    +0.000 C 
BRANCH  11  12
ATOM     12  C   UNL     1      49.573   4.550  17.354  0.00  0.00    +0.000 A 
ATOM     13  C   UNL     1      50.192   5.598  18.019  0.00  0.00    +0.000 A 
ATOM     14  S   UNL     1      51.704   5.180  18.690  0.00  0.00    +0.000 S 
ATOM     15  C   UNL     1      51.593   3.590  18.091  0.00  0.00    +0.000 A 
ATOM     16  N   UNL     1      52.583   2.681  18.321  0.00  0.00    +0.000 NA
ATOM     17  C   UNL     1      52.367   1.522  17.803  0.00  0.00    +0.000 A 
ATOM     18  N   UNL     1      51.255   1.182  17.067  0.00  0.00    +0.000 N 
ATOM     19  C   UNL     1      50.232   2.067  16.805  0.00  0.00    +0.000 A 
ATOM     20  O   UNL     1      49.266   1.733  16.127  0.00  0.00    +0.000 OA
ATOM     21  C   UNL     1      50.425   3.382  17.382  0.00  0.00    +0.000 A 
ATOM     22  H   UNL     1      51.157   0.259  16.677  0.00  0.00    +0.000 HD
ENDBRANCH  11  12
ENDBRANCH   8  11
ENDBRANCH   7   8
ENDBRANCH   1   7
BRANCH   4  23
ATOM     23  C   UNL     1      44.276   3.321  11.629  0.00  0.00    +0.000 C 
BRANCH  23  24
ATOM     24  N   UNL     1      44.930   2.590  10.548  0.00  0.00    +0.000 NA
ATOM     25  H   UNL     1      44.693   1.602  10.657  0.00  0.00    +0.000 HD
BRANCH  24  26
ATOM     26  CA  UNL     1      44.500   3.010   9.195  0.00  0.00    +0.000 C 
BRANCH  26  27
ATOM     27  C   UNL     1      45.557   2.637   8.145  0.00  0.00    +0.000 A 
ATOM     28  C   UNL     1      46.242   1.420   8.194  0.00  0.00    +0.000 A 
ATOM     29  C   UNL     1      47.186   1.135   7.212  0.00  0.00    +0.000 A 
ATOM     30  C   UNL     1      47.440   2.070   6.217  0.00  0.00    +0.000 A 
ATOM     31  C   UNL     1      46.742   3.264   6.250  0.00  0.00    +0.000 A 
ATOM     32  N   UNL     1      45.821   3.572   7.192  0.00  0.00    +0.000 NA
ENDBRANCH  26  27
BRANCH  26  33
ATOM     33  C   UNL     1      44.191   4.525   9.061  0.00  0.00    +0.000 C 
BRANCH  33  34
ATOM     34  O   UNL     1      45.362   5.347   9.102  0.00  0.00    +0.000 OA
ATOM     35  H   UNL     1      46.100   4.785   9.413  0.00  0.00    +0.000 HD
ENDBRANCH  33  34
ENDBRANCH  26  33
ENDBRANCH  24  26
ENDBRANCH  23  24
ENDBRANCH   4  23
TORSDOF 10
ENDMDL
MODEL 2
REMARK VINA RESULT:    -8.328      1.340      1.957
REMARK INTER + INTRA:         -13.714
REMARK INTER:                 -12.868
REMARK INTRA:                  -0.846
REMARK UNBOUND:                -0.760
REMARK  Name = 
REMARK  11 active torsions:
REMARK  status: ('A' for Active; 'I' for Inactive)
REMARK    1  A    between atoms: C_1  and  C_2
REMARK    2  A    between atoms: C_2  and  N_3
REMARK    3  A    between atoms: C_2  and  C_22
REMARK    4  A    between atoms: N_3  and  C_4
REMARK    5  A    between atoms: C_4  and  C_5
REMARK    6  A    between atoms: C_8  and  C_9
REMARK    7  A    between atoms: C_9  and  N_10
REMARK    8  A    between atoms: N_10  and  CA_11
REMARK    9  A    between atoms: CA_11  and  C_12
REMARK   10  A    between atoms: CA_11  and  C_14
REMARK   11  A    between atoms: C_12  and  O_13
REMARK                            x       y       z     vdW  Elec       q    Type
REMARK                         _______ _______ _______ _____ _____    ______ ____
ROOT
ATOM      1  C   UNL     1      47.226   6.075  13.716  0.00  0.00    +0.000 A 
ATOM      2  C   UNL     1      47.162   6.899  12.585  0.00  0.00    +0.000 A 
ATOM      3  C   UNL     1      46.004   6.945  11.805  0.00  0.00    +0.000 A 
ATOM      4  C   UNL     1      44.888   6.156  12.126  0.00  0.00    +0.000 A 
ATOM      5  C   UNL     1      44.957   5.320  13.248  0.00  0.00    +0.000 A 
ATOM      6  C   UNL     1      46.111   5.284  14.034  0.00  0.00    +0.000 A 
ENDROOT
BRANCH   1   7
ATOM      7  C   UNL     1      48.481   5.986  14.554  0.00  0.00    +0.000 C 
BRANCH   7   8
ATOM      8  N   UNL     1      48.201   6.031  15.990  0.00  0.00    +0.000 NA
ATOM      9  H   UNL     1      48.899   6.624  16.436  0.00  0.00    +0.000 HD
BRANCH   8  11
ATOM     10  C   UNL     1      47.156   4.465  17.637  0.00  0.00    +0.000 C 
ATOM     11  C   UNL     1      48.274   4.702  16.614  0.00  0.00    +0.000 C 
BRANCH  11  12
ATOM     12  C   UNL     1      49.637   4.597  17.276  0.00  0.00    +0.000 A 
ATOM     13  C   UNL     1      50.269   5.650  17.921  0.00  0.00    +0.000 A 
ATOM     14  S   UNL     1      51.761   5.218  18.627  0.00  0.00    +0.000 S 
ATOM     15  C   UNL     1      51.624   3.614  18.071  0.00  0.00    +0.000 A 
ATOM     16  N   UNL     1      52.589   2.691  18.343  0.00  0.00    +0.000 NA
ATOM     17  C   UNL     1      52.354   1.522  17.853  0.00  0.00    +0.000 A 
ATOM     18  N   UNL     1      51.246   1.186  17.111  0.00  0.00    +0.000 N 
ATOM     19  C   UNL     1      50.248   2.086  16.808  0.00  0.00    +0.000 A 
ATOM     20  O   UNL     1      49.285   1.754  16.124  0.00  0.00    +0.000 OA
ATOM     21  C   UNL     1      50.462   3.412  17.351  0.00  0.00    +0.000 A 
ATOM     22  H   UNL     1      51.134   0.255  16.745  0.00  0.00    +0.000 HD
ENDBRANCH  11  12
ENDBRANCH   8  11
ENDBRANCH   7   8
ENDBRANCH   1   7
BRANCH   4  23
ATOM     23  C   UNL     1      43.621   6.237  11.305  0.00  0.00    +0.000 C 
BRANCH  23  24
ATOM     24  N   UNL     1      43.634   5.241  10.237  0.00  0.00    +0.000 NA
ATOM     25  H   UNL     1      44.129   5.650   9.441  0.00  0.00    +0.000 HD
BRANCH  24  26
ATOM     26  CA  UNL     1      44.326   3.983  10.599  0.00  0.00    +0.000 C 
BRANCH  26  27
ATOM     27  C   UNL     1      45.122   3.434   9.406  0.00  0.00    +0.000 A 
ATOM     28  C   UNL     1      45.625   4.276   8.411  0.00  0.00    +0.000 A 
ATOM     29  C   UNL     1      46.345   3.723   7.356  0.00  0.00    +0.000 A 
ATOM     30  C   UNL     1      46.531   2.347   7.303  0.00  0.00    +0.000 A 
ATOM     31  C   UNL     1      45.978   1.576   8.310  0.00  0.00    +0.000 A 
ATOM     32  N   UNL     1      45.273   2.084   9.347  0.00  0.00    +0.000 NA
ENDBRANCH  26  27
BRANCH  26  33
ATOM     33  C   UNL     1      43.386   2.861  11.117  0.00  0.00    +0.000 C 
BRANCH  33  34
ATOM     34  O   UNL     1      43.861   2.233  12.313  0.00  0.00    +0.000 OA
ATOM     35  H   UNL     1      44.647   1.703  12.069  0.00  0.00    +0.000 HD
ENDBRANCH  33  34
ENDBRANCH  26  33
ENDBRANCH  24  26
ENDBRANCH  23  24
ENDBRANCH   4  23
TORSDOF 10
ENDMDL
MODEL 3
REMARK VINA RESULT:    -7.754      1.781      2.148
REMARK INTER + INTRA:         -12.821
REMARK INTER:                 -11.850
REMARK INTRA:                  -0.970
REMARK UNBOUND:                -0.760
REMARK  Name = 
REMARK  11 active torsions:
REMARK  status: ('A' for Active; 'I' for Inactive)
REMARK    1  A    between atoms: C_1  and  C_2
REMARK    2  A    between atoms: C_2  and  N_3
REMARK    3  A    between atoms: C_2  and  C_22
REMARK    4  A    between atoms: N_3  and  C_4
REMARK    5  A    between atoms: C_4  and  C_5
REMARK    6  A    between atoms: C_8  and  C_9
REMARK    7  A    between atoms: C_9  and  N_10
REMARK    8  A    between atoms: N_10  and  CA_11
REMARK    9  A    between atoms: CA_11  and  C_12
REMARK   10  A    between atoms: CA_11  and  C_14
REMARK   11  A    between atoms: C_12  and  O_13
REMARK                            x       y       z     vdW  Elec       q    Type
REMARK                         _______ _______ _______ _____ _____    ______ ____
ROOT
ATOM      1  C   UNL     1      47.209   6.118  13.128  0.00  0.00    +0.000 A 
ATOM      2  C   UNL     1      46.264   5.182  13.567  0.00  0.00    +0.000 A 
ATOM      3  C   UNL     1      45.162   4.857  12.770  0.00  0.00    +0.000 A 
ATOM      4  C   UNL     1      44.971   5.473  11.523  0.00  0.00    +0.000 A 
ATOM      5  C   UNL     1      45.907   6.421  11.091  0.00  0.00    +0.000 A 
ATOM      6  C   UNL     1      47.014   6.735  11.883  0.00  0.00    +0.000 A 
ENDROOT
BRANCH   1   7
ATOM      7  C   UNL     1      48.388   6.507  13.990  0.00  0.00    +0.000 C 
BRANCH   7   8
ATOM      8  N   UNL     1      48.281   5.984  15.354  0.00  0.00    +0.000 NA
ATOM      9  H   UNL     1      47.295   5.863  15.575  0.00  0.00    +0.000 HD
BRANCH   8  11
ATOM     10  C   UNL     1      48.711   8.375  15.950  0.00  0.00    +0.000 C 
ATOM     11  C   UNL     1      48.856   6.901  16.349  0.00  0.00    +0.000 C 
BRANCH  11  12
ATOM     12  C   UNL     1      50.320   6.529  16.501  0.00  0.00    +0.000 A 
ATOM     13  C   UNL     1      51.370   7.287  16.002  0.00  0.00    +0.000 A 
ATOM     14  S   UNL     1      52.907   6.654  16.384  0.00  0.00    +0.000 S 
ATOM     15  C   UNL     1      52.221   5.331  17.207  0.00  0.00    +0.000 A 
ATOM     16  N   UNL     1      53.006   4.384  17.795  0.00  0.00    +0.000 NA
ATOM     17  C   UNL     1      52.350   3.439  18.374  0.00  0.00    +0.000 A 
ATOM     18  N   UNL     1      50.978   3.345  18.419  0.00  0.00    +0.000 N 
ATOM     19  C   UNL     1      50.145   4.274  17.837  0.00  0.00    +0.000 A 
ATOM     20  O   UNL     1      48.925   4.144  17.880  0.00  0.00    +0.000 OA
ATOM     21  C   UNL     1      50.840   5.365  17.185  0.00  0.00    +0.000 A 
ATOM     22  H   UNL     1      50.529   2.568  18.878  0.00  0.00    +0.000 HD
ENDBRANCH  11  12
ENDBRANCH   8  11
ENDBRANCH   7   8
ENDBRANCH   1   7
BRANCH   4  23
ATOM     23  C   UNL     1      43.801   5.092  10.644  0.00  0.00    +0.000 C 
BRANCH  23  24
ATOM     24  N   UNL     1      44.268   4.505   9.391  0.00  0.00    +0.000 NA
ATOM     25  H   UNL     1      44.907   5.175   8.957  0.00  0.00    +0.000 HD
BRANCH  24  26
ATOM     26  CA  UNL     1      45.000   3.230   9.562  0.00  0.00    +0.000 C 
BRANCH  26  27
ATOM     27  C   UNL     1      45.814   2.894   8.304  0.00  0.00    +0.000 A 
ATOM     28  C   UNL     1      46.368   1.626   8.107  0.00  0.00    +0.000 A 
ATOM     29  C   UNL     1      47.092   1.377   6.944  0.00  0.00    +0.000 A 
ATOM     30  C   UNL     1      47.263   2.396   6.015  0.00  0.00    +0.000 A 
ATOM     31  C   UNL     1      46.709   3.632   6.293  0.00  0.00    +0.000 A 
ATOM     32  N   UNL     1      46.002   3.906   7.415  0.00  0.00    +0.000 NA
ENDBRANCH  26  27
BRANCH  26  33
ATOM     33  C   UNL     1      44.098   2.013   9.901  0.00  0.00    +0.000 C 
BRANCH  33  34
ATOM     34  O   UNL     1      43.427   2.138  11.159  0.00  0.00    +0.000 OA
ATOM     35  H   UNL     1      43.171   1.237  11.442  0.00  0.00    +0.000 HD
ENDBRANCH  33  34
ENDBRANCH  26  33
ENDBRANCH  24  26
ENDBRANCH  23  24
ENDBRANCH   4  23
TORSDOF 10
ENDMDL
MODEL 4
REMARK VINA RESULT:    -7.601      2.778      3.824
REMARK INTER + INTRA:         -12.583
REMARK INTER:                 -11.548
REMARK INTRA:                  -1.036
REMARK UNBOUND:                -0.760
REMARK  Name = 
REMARK  11 active torsions:
REMARK  status: ('A' for Active; 'I' for Inactive)
REMARK    1  A    between atoms: C_1  and  C_2
REMARK    2  A    between atoms: C_2  and  N_3
REMARK    3  A    between atoms: C_2  and  C_22
REMARK    4  A    between atoms: N_3  and  C_4
REMARK    5  A    between atoms: C_4  and  C_5
REMARK    6  A    between atoms: C_8  and  C_9
REMARK    7  A    between atoms: C_9  and  N_10
REMARK    8  A    between atoms: N_10  and  CA_11
REMARK    9  A    between atoms: CA_11  and  C_12
REMARK   10  A    between atoms: CA_11  and  C_14
REMARK   11  A    between atoms: C_12  and  O_13
REMARK                            x       y       z     vdW  Elec       q    Type
REMARK                         _______ _______ _______ _____ _____    ______ ____
ROOT
ATOM      1  C   UNL     1      47.078   6.535  13.009  0.00  0.00    +0.000 A 
ATOM      2  C   UNL     1      46.096   5.777  13.659  0.00  0.00    +0.000 A 
ATOM      3  C   UNL     1      44.875   5.509  13.035  0.00  0.00    +0.000 A 
ATOM      4  C   UNL     1      44.599   6.006  11.752  0.00  0.00    +0.000 A 
ATOM      5  C   UNL     1      45.574   6.779  11.107  0.00  0.00    +0.000 A 
ATOM      6  C   UNL     1      46.799   7.036  11.728  0.00  0.00    +0.000 A 
ENDROOT
BRANCH   1   7
ATOM      7  C   UNL     1      48.391   6.865  13.681  0.00  0.00    +0.000 C 
BRANCH   7   8
ATOM      8  N   UNL     1      48.660   6.005  14.836  0.00  0.00    +0.000 NA
ATOM      9  H   UNL     1      47.784   5.574  15.126  0.00  0.00    +0.000 HD
BRANCH   8  11
ATOM     10  C   UNL     1      50.702   7.008  15.875  0.00  0.00    +0.000 C 
ATOM     11  C   UNL     1      49.191   6.759  15.981  0.00  0.00    +0.000 C 
BRANCH  11  12
ATOM     12  C   UNL     1      48.866   5.958  17.229  0.00  0.00    +0.000 A 
ATOM     13  C   UNL     1      49.047   4.587  17.340  0.00  0.00    +0.000 A 
ATOM     14  S   UNL     1      48.657   3.973  18.884  0.00  0.00    +0.000 S 
ATOM     15  C   UNL     1      48.208   5.516  19.446  0.00  0.00    +0.000 A 
ATOM     16  N   UNL     1      47.771   5.698  20.724  0.00  0.00    +0.000 NA
ATOM     17  C   UNL     1      47.460   6.916  21.008  0.00  0.00    +0.000 A 
ATOM     18  N   UNL     1      47.538   7.974  20.131  0.00  0.00    +0.000 N 
ATOM     19  C   UNL     1      47.969   7.837  18.830  0.00  0.00    +0.000 A 
ATOM     20  O   UNL     1      48.005   8.801  18.071  0.00  0.00    +0.000 OA
ATOM     21  C   UNL     1      48.345   6.485  18.471  0.00  0.00    +0.000 A 
ATOM     22  H   UNL     1      47.264   8.900  20.415  0.00  0.00    +0.000 HD
ENDBRANCH  11  12
ENDBRANCH   8  11
ENDBRANCH   7   8
ENDBRANCH   1   7
BRANCH   4  23
ATOM     23  C   UNL     1      43.294   5.682  11.060  0.00  0.00    +0.000 C 
BRANCH  23  24
ATOM     24  N   UNL     1      43.508   4.724   9.980  0.00  0.00    +0.000 NA
ATOM     25  H   UNL     1      43.949   5.226   9.206  0.00  0.00    +0.000 HD
BRANCH  24  26
ATOM     26  CA  UNL     1      44.392   3.595  10.346  0.00  0.00    +0.000 C 
BRANCH  26  27
ATOM     27  C   UNL     1      45.222   3.135   9.137  0.00  0.00    +0.000 A 
ATOM     28  C   UNL     1      45.577   4.018   8.114  0.00  0.00    +0.000 A 
ATOM     29  C   UNL     1      46.335   3.546   7.046  0.00  0.00    +0.000 A 
ATOM     30  C   UNL     1      46.703   2.207   7.009  0.00  0.00    +0.000 A 
ATOM     31  C   UNL     1      46.290   1.388   8.044  0.00  0.00    +0.000 A 
ATOM     32  N   UNL     1      45.552   1.816   9.094  0.00  0.00    +0.000 NA
ENDBRANCH  26  27
BRANCH  26  33
ATOM     33  C   UNL     1      43.650   2.361  10.927  0.00  0.00    +0.000 C 
BRANCH  33  34
ATOM     34  O   UNL     1      43.706   2.288  12.355  0.00  0.00    +0.000 OA
ATOM     35  H   UNL     1      42.993   1.681  12.642  0.00  0.00    +0.000 HD
ENDBRANCH  33  34
ENDBRANCH  26  33
ENDBRANCH  24  26
ENDBRANCH  23  24
ENDBRANCH   4  23
TORSDOF 10
ENDMDL
MODEL 5
REMARK VINA RESULT:    -7.524      2.553      3.649
REMARK INTER + INTRA:         -12.463
REMARK INTER:                 -11.236
REMARK INTRA:                  -1.227
REMARK UNBOUND:                -0.760
REMARK  Name = 
REMARK  11 active torsions:
REMARK  status: ('A' for Active; 'I' for Inactive)
REMARK    1  A    between atoms: C_1  and  C_2
REMARK    2  A    between atoms: C_2  and  N_3
REMARK    3  A    between atoms: C_2  and  C_22
REMARK    4  A    between atoms: N_3  and  C_4
REMARK    5  A    between atoms: C_4  and  C_5
REMARK    6  A    between atoms: C_8  and  C_9
REMARK    7  A    between atoms: C_9  and  N_10
REMARK    8  A    between atoms: N_10  and  CA_11
REMARK    9  A    between atoms: CA_11  and  C_12
REMARK   10  A    between atoms: CA_11  and  C_14
REMARK   11  A    between atoms: C_12  and  O_13
REMARK                            x       y       z     vdW  Elec       q    Type
REMARK                         _______ _______ _______ _____ _____    ______ ____
ROOT
ATOM      1  C   UNL     1      48.696   7.966  13.162  0.00  0.00    +0.000 A 
ATOM      2  C   UNL     1      48.285   7.048  12.188  0.00  0.00    +0.000 A 
ATOM      3  C   UNL     1      46.961   7.030  11.742  0.00  0.00    +0.000 A 
ATOM      4  C   UNL     1      46.012   7.917  12.272  0.00  0.00    +0.000 A 
ATOM      5  C   UNL     1      46.418   8.824  13.259  0.00  0.00    +0.000 A 
ATOM      6  C   UNL     1      47.744   8.850  13.695  0.00  0.00    +0.000 A 
ENDROOT
BRANCH   1   7
ATOM      7  C   UNL     1      50.116   7.979  13.682  0.00  0.00    +0.000 C 
BRANCH   7   8
ATOM      8  N   UNL     1      50.325   7.012  14.762  0.00  0.00    +0.000 NA
ATOM      9  H   UNL     1      49.842   6.149  14.518  0.00  0.00    +0.000 HD
BRANCH   8  11
ATOM     10  C   UNL     1      50.579   8.662  16.624  0.00  0.00    +0.000 C 
ATOM     11  C   UNL     1      49.785   7.484  16.045  0.00  0.00    +0.000 C 
BRANCH  11  12
ATOM     12  C   UNL     1      49.810   6.301  16.998  0.00  0.00    +0.000 A 
ATOM     13  C   UNL     1      50.699   6.174  18.055  0.00  0.00    +0.000 A 
ATOM     14  S   UNL     1      50.444   4.771  18.992  0.00  0.00    +0.000 S 
ATOM     15  C   UNL     1      49.153   4.274  18.000  0.00  0.00    +0.000 A 
ATOM     16  N   UNL     1      48.471   3.122  18.258  0.00  0.00    +0.000 NA
ATOM     17  C   UNL     1      47.525   2.869  17.421  0.00  0.00    +0.000 A 
ATOM     18  N   UNL     1      47.197   3.656  16.342  0.00  0.00    +0.000 N 
ATOM     19  C   UNL     1      47.860   4.826  16.039  0.00  0.00    +0.000 A 
ATOM     20  O   UNL     1      47.551   5.490  15.055  0.00  0.00    +0.000 OA
ATOM     21  C   UNL     1      48.924   5.159  16.964  0.00  0.00    +0.000 A 
ATOM     22  H   UNL     1      46.453   3.390  15.717  0.00  0.00    +0.000 HD
ENDBRANCH  11  12
ENDBRANCH   8  11
ENDBRANCH   7   8
ENDBRANCH   1   7
BRANCH   4  23
ATOM     23  C   UNL     1      44.588   7.924  11.760  0.00  0.00    +0.000 C 
BRANCH  23  24
ATOM     24  N   UNL     1      44.395   6.879  10.760  0.00  0.00    +0.000 NA
ATOM     25  H   UNL     1      45.223   6.871  10.159  0.00  0.00    +0.000 HD
BRANCH  24  26
ATOM     26  CA  UNL     1      44.241   5.522  11.332  0.00  0.00    +0.000 C 
BRANCH  26  27
ATOM     27  C   UNL     1      44.622   4.448  10.302  0.00  0.00    +0.000 A 
ATOM     28  C   UNL     1      45.328   4.765   9.139  0.00  0.00    +0.000 A 
ATOM     29  C   UNL     1      45.650   3.749   8.244  0.00  0.00    +0.000 A 
ATOM     30  C   UNL     1      45.247   2.447   8.516  0.00  0.00    +0.000 A 
ATOM     31  C   UNL     1      44.526   2.216   9.673  0.00  0.00    +0.000 A 
ATOM     32  N   UNL     1      44.196   3.182  10.561  0.00  0.00    +0.000 NA
ENDBRANCH  26  27
BRANCH  26  33
ATOM     33  C   UNL     1      42.816   5.208  11.862  0.00  0.00    +0.000 C 
BRANCH  33  34
ATOM     34  O   UNL     1      42.650   5.513  13.251  0.00  0.00    +0.000 OA
ATOM     35  H   UNL     1      42.198   6.380  13.305  0.00  0.00    +0.000 HD
ENDBRANCH  33  34
ENDBRANCH  26  33
ENDBRANCH  24  26
ENDBRANCH  23  24
ENDBRANCH   4  23
TORSDOF 10
ENDMDL
MODEL 6
REMARK VINA RESULT:    -7.307      1.716      2.651
REMARK INTER + INTRA:         -12.126
REMARK INTER:                 -11.090
REMARK INTRA:                  -1.036
REMARK UNBOUND:                -0.760
REMARK  Name = 
REMARK  11 active torsions:
REMARK  status: ('A' for Active; 'I' for Inactive)
REMARK    1  A    between atoms: C_1  and  C_2
REMARK    2  A    between atoms: C_2  and  N_3
REMARK    3  A    between atoms: C_2  and  C_22
REMARK    4  A    between atoms: N_3  and  C_4
REMARK    5  A    between atoms: C_4  and  C_5
REMARK    6  A    between atoms: C_8  and  C_9
REMARK    7  A    between atoms: C_9  and  N_10
REMARK    8  A    between atoms: N_10  and  CA_11
REMARK    9  A    between atoms: CA_11  and  C_12
REMARK   10  A    between atoms: CA_11  and  C_14
REMARK   11  A    between atoms: C_12  and  O_13
REMARK                            x       y       z     vdW  Elec       q    Type
REMARK                         _______ _______ _______ _____ _____    ______ ____
ROOT
ATOM      1  C   UNL     1      48.277   5.469  15.800  0.00  0.00    +0.000 A 
ATOM      2  C   UNL     1      48.361   6.424  14.779  0.00  0.00    +0.000 A 
ATOM      3  C   UNL     1      47.532   6.339  13.658  0.00  0.00    +0.000 A 
ATOM      4  C   UNL     1      46.611   5.289  13.522  0.00  0.00    +0.000 A 
ATOM      5  C   UNL     1      46.538   4.324  14.535  0.00  0.00    +0.000 A 
ATOM      6  C   UNL     1      47.359   4.417  15.661  0.00  0.00    +0.000 A 
ENDROOT
BRANCH   1   7
ATOM      7  C   UNL     1      49.188   5.525  17.006  0.00  0.00    +0.000 C 
BRANCH   7   8
ATOM      8  N   UNL     1      50.115   4.392  17.059  0.00  0.00    +0.000 NA
ATOM      9  H   UNL     1      49.628   3.563  16.723  0.00  0.00    +0.000 HD
BRANCH   8  11
ATOM     10  C   UNL     1      50.353   5.298  19.378  0.00  0.00    +0.000 C 
ATOM     11  C   UNL     1      50.582   4.118  18.426  0.00  0.00    +0.000 C 
BRANCH  11  12
ATOM     12  C   UNL     1      52.061   3.786  18.330  0.00  0.00    +0.000 A 
ATOM     13  C   UNL     1      53.078   4.671  18.655  0.00  0.00    +0.000 A 
ATOM     14  S   UNL     1      54.638   3.997  18.513  0.00  0.00    +0.000 S 
ATOM     15  C   UNL     1      54.007   2.505  17.986  0.00  0.00    +0.000 A 
ATOM     16  N   UNL     1      54.829   1.460  17.689  0.00  0.00    +0.000 NA
ATOM     17  C   UNL     1      54.213   0.398  17.297  0.00  0.00    +0.000 A 
ATOM     18  N   UNL     1      52.848   0.281  17.168  0.00  0.00    +0.000 N 
ATOM     19  C   UNL     1      51.979   1.312  17.452  0.00  0.00    +0.000 A 
ATOM     20  O   UNL     1      50.768   1.176  17.304  0.00  0.00    +0.000 OA
ATOM     21  C   UNL     1      52.627   2.523  17.912  0.00  0.00    +0.000 A 
ATOM     22  H   UNL     1      52.433  -0.576  16.840  0.00  0.00    +0.000 HD
ENDBRANCH  11  12
ENDBRANCH   8  11
ENDBRANCH   7   8
ENDBRANCH   1   7
BRANCH   4  23
ATOM     23  C   UNL     1      45.686   5.220  12.327  0.00  0.00    +0.000 C 
BRANCH  23  24
ATOM     24  N   UNL     1      45.245   3.848  12.095  0.00  0.00    +0.000 NA
ATOM     25  H   UNL     1      44.777   3.527  12.945  0.00  0.00    +0.000 HD
BRANCH  24  26
ATOM     26  CA  UNL     1      44.289   3.706  10.974  0.00  0.00    +0.000 C 
BRANCH  26  27
ATOM     27  C   UNL     1      45.024   3.371   9.667  0.00  0.00    +0.000 A 
ATOM     28  C   UNL     1      45.382   4.365   8.753  0.00  0.00    +0.000 A 
ATOM     29  C   UNL     1      46.052   4.002   7.588  0.00  0.00    +0.000 A 
ATOM     30  C   UNL     1      46.332   2.663   7.350  0.00  0.00    +0.000 A 
ATOM     31  C   UNL     1      45.921   1.734   8.288  0.00  0.00    +0.000 A 
ATOM     32  N   UNL     1      45.267   2.054   9.429  0.00  0.00    +0.000 NA
ENDBRANCH  26  27
BRANCH  26  33
ATOM     33  C   UNL     1      43.399   4.955  10.728  0.00  0.00    +0.000 C 
BRANCH  33  34
ATOM     34  O   UNL     1      42.250   5.007  11.579  0.00  0.00    +0.000 OA
ATOM     35  H   UNL     1      42.337   5.808  12.136  0.00  0.00    +0.000 HD
ENDBRANCH  33  34
ENDBRANCH  26  33
ENDBRANCH  24  26
ENDBRANCH  23  24
ENDBRANCH   4  23
TORSDOF 10
ENDMDL
MODEL 7
REMARK VINA RESULT:    -7.247      2.636      3.576
REMARK INTER + INTRA:         -12.032
REMARK INTER:                 -11.705
REMARK INTRA:                  -0.327
REMARK UNBOUND:                -0.760
REMARK  Name = 
REMARK  11 active torsions:
REMARK  status: ('A' for Active; 'I' for Inactive)
REMARK    1  A    between atoms: C_1  and  C_2
REMARK    2  A    between atoms: C_2  and  N_3
REMARK    3  A    between atoms: C_2  and  C_22
REMARK    4  A    between atoms: N_3  and  C_4
REMARK    5  A    between atoms: C_4  and  C_5
REMARK    6  A    between atoms: C_8  and  C_9
REMARK    7  A    between atoms: C_9  and  N_10
REMARK    8  A    between atoms: N_10  and  CA_11
REMARK    9  A    between atoms: CA_11  and  C_12
REMARK   10  A    between atoms: CA_11  and  C_14
REMARK   11  A    between atoms: C_12  and  O_13
REMARK                            x       y       z     vdW  Elec       q    Type
REMARK                         _______ _______ _______ _____ _____    ______ ____
ROOT
ATOM      1  C   UNL     1      46.452   7.947  12.985  0.00  0.00    +0.000 A 
ATOM      2  C   UNL     1      45.654   8.638  12.065  0.00  0.00    +0.000 A 
ATOM      3  C   UNL     1      44.565   8.009  11.456  0.00  0.00    +0.000 A 
ATOM      4  C   UNL     1      44.258   6.668  11.739  0.00  0.00    +0.000 A 
ATOM      5  C   UNL     1      45.066   5.972  12.647  0.00  0.00    +0.000 A 
ATOM      6  C   UNL     1      46.147   6.606  13.264  0.00  0.00    +0.000 A 
ENDROOT
BRANCH   1   7
ATOM      7  C   UNL     1      47.654   8.600  13.629  0.00  0.00    +0.000 C 
BRANCH   7   8
ATOM      8  N   UNL     1      47.500   8.753  15.077  0.00  0.00    +0.000 NA
ATOM      9  H   UNL     1      46.853   9.520  15.252  0.00  0.00    +0.000 HD
BRANCH   8  11
ATOM     10  C   UNL     1      49.993   8.597  14.948  0.00  0.00    +0.000 C 
ATOM     11  C   UNL     1      48.770   9.075  15.743  0.00  0.00    +0.000 C 
BRANCH  11  12
ATOM     12  C   UNL     1      48.732   8.420  17.112  0.00  0.00    +0.000 A 
ATOM     13  C   UNL     1      48.742   9.121  18.309  0.00  0.00    +0.000 A 
ATOM     14  S   UNL     1      48.624   8.119  19.685  0.00  0.00    +0.000 S 
ATOM     15  C   UNL     1      48.582   6.712  18.727  0.00  0.00    +0.000 A 
ATOM     16  N   UNL     1      48.480   5.477  19.295  0.00  0.00    +0.000 NA
ATOM     17  C   UNL     1      48.467   4.505  18.449  0.00  0.00    +0.000 A 
ATOM     18  N   UNL     1      48.553   4.649  17.083  0.00  0.00    +0.000 N 
ATOM     19  C   UNL     1      48.662   5.875  16.465  0.00  0.00    +0.000 A 
ATOM     20  O   UNL     1      48.758   5.960  15.244  0.00  0.00    +0.000 OA
ATOM     21  C   UNL     1      48.666   6.999  17.378  0.00  0.00    +0.000 A 
ATOM     22  H   UNL     1      48.553   3.842  16.479  0.00  0.00    +0.000 HD
ENDBRANCH  11  12
ENDBRANCH   8  11
ENDBRANCH   7   8
ENDBRANCH   1   7
BRANCH   4  23
ATOM     23  C   UNL     1      43.056   6.000  11.111  0.00  0.00    +0.000 C 
BRANCH  23  24
ATOM     24  N   UNL     1      43.468   5.108  10.031  0.00  0.00    +0.000 NA
ATOM     25  H   UNL     1      43.994   5.666   9.354  0.00  0.00    +0.000 HD
BRANCH  24  26
ATOM     26  CA  UNL     1      44.340   3.996  10.471  0.00  0.00    +0.000 C 
BRANCH  26  27
ATOM     27  C   UNL     1      45.181   3.463   9.301  0.00  0.00    +0.000 A 
ATOM     28  C   UNL     1      45.418   2.097   9.132  0.00  0.00    +0.000 A 
ATOM     29  C   UNL     1      46.182   1.672   8.049  0.00  0.00    +0.000 A 
ATOM     30  C   UNL     1      46.708   2.613   7.173  0.00  0.00    +0.000 A 
ATOM     31  C   UNL     1      46.455   3.949   7.423  0.00  0.00    +0.000 A 
ATOM     32  N   UNL     1      45.717   4.394   8.467  0.00  0.00    +0.000 NA
ENDBRANCH  26  27
BRANCH  26  33
ATOM     33  C   UNL     1      43.583   2.802  11.113  0.00  0.00    +0.000 C 
BRANCH  33  34
ATOM     34  O   UNL     1      44.047   2.478  12.427  0.00  0.00    +0.000 OA
ATOM     35  H   UNL     1      44.109   3.317  12.928  0.00  0.00    +0.000 HD
ENDBRANCH  33  34
ENDBRANCH  26  33
ENDBRANCH  24  26
ENDBRANCH  23  24
ENDBRANCH   4  23
TORSDOF 10
ENDMDL
MODEL 8
REMARK VINA RESULT:    -7.231      3.058      9.065
REMARK INTER + INTRA:         -12.007
REMARK INTER:                 -10.326
REMARK INTRA:                  -1.681
REMARK UNBOUND:                -0.760
REMARK  Name = 
REMARK  11 active torsions:
REMARK  status: ('A' for Active; 'I' for Inactive)
REMARK    1  A    between atoms: C_1  and  C_2
REMARK    2  A    between atoms: C_2  and  N_3
REMARK    3  A    between atoms: C_2  and  C_22
REMARK    4  A    between atoms: N_3  and  C_4
REMARK    5  A    between atoms: C_4  and  C_5
REMARK    6  A    between atoms: C_8  and  C_9
REMARK    7  A    between atoms: C_9  and  N_10
REMARK    8  A    between atoms: N_10  and  CA_11
REMARK    9  A    between atoms: CA_11  and  C_12
REMARK   10  A    between atoms: CA_11  and  C_14
REMARK   11  A    between atoms: C_12  and  O_13
REMARK                            x       y       z     vdW  Elec       q    Type
REMARK                         _______ _______ _______ _____ _____    ______ ____
ROOT
ATOM      1  C   UNL     1      48.445   7.950  13.991  0.00  0.00    +0.000 A 
ATOM      2  C   UNL     1      47.922   8.794  14.978  0.00  0.00    +0.000 A 
ATOM      3  C   UNL     1      48.356   8.696  16.302  0.00  0.00    +0.000 A 
ATOM      4  C   UNL     1      49.312   7.738  16.675  0.00  0.00    +0.000 A 
ATOM      5  C   UNL     1      49.824   6.881  15.692  0.00  0.00    +0.000 A 
ATOM      6  C   UNL     1      49.398   6.990  14.367  0.00  0.00    +0.000 A 
ENDROOT
BRANCH   1   7
ATOM      7  C   UNL     1      47.963   8.019  12.560  0.00  0.00    +0.000 C 
BRANCH   7   8
ATOM      8  N   UNL     1      47.334   6.772  12.120  0.00  0.00    +0.000 NA
ATOM      9  H   UNL     1      47.909   6.364  11.385  0.00  0.00    +0.000 HD
BRANCH   8  11
ATOM     10  C   UNL     1      45.222   8.100  12.303  0.00  0.00    +0.000 C 
ATOM     11  C   UNL     1      45.988   6.990  11.571  0.00  0.00    +0.000 C 
BRANCH  11  12
ATOM     12  C   UNL     1      45.247   5.668  11.678  0.00  0.00    +0.000 A 
ATOM     13  C   UNL     1      44.612   5.224  12.829  0.00  0.00    +0.000 A 
ATOM     14  S   UNL     1      43.806   3.734  12.629  0.00  0.00    +0.000 S 
ATOM     15  C   UNL     1      44.302   3.619  11.004  0.00  0.00    +0.000 A 
ATOM     16  N   UNL     1      43.939   2.556  10.232  0.00  0.00    +0.000 NA
ATOM     17  C   UNL     1      44.392   2.600   9.026  0.00  0.00    +0.000 A 
ATOM     18  N   UNL     1      45.181   3.605   8.517  0.00  0.00    +0.000 N 
ATOM     19  C   UNL     1      45.576   4.696   9.260  0.00  0.00    +0.000 A 
ATOM     20  O   UNL     1      46.298   5.562   8.776  0.00  0.00    +0.000 OA
ATOM     21  C   UNL     1      45.077   4.696  10.620  0.00  0.00    +0.000 A 
ATOM     22  H   UNL     1      45.513   3.568   7.567  0.00  0.00    +0.000 HD
ENDBRANCH  11  12
ENDBRANCH   8  11
ENDBRANCH   7   8
ENDBRANCH   1   7
BRANCH   4  23
ATOM     23  C   UNL     1      49.812   7.658  18.100  0.00  0.00    +0.000 C 
BRANCH  23  24
ATOM     24  N   UNL     1      48.947   6.798  18.902  0.00  0.00    +0.000 NA
ATOM     25  H   UNL     1      48.117   6.588  18.343  0.00  0.00    +0.000 HD
BRANCH  24  26
ATOM     26  CA  UNL     1      49.569   5.510  19.284  0.00  0.00    +0.000 C 
BRANCH  26  27
ATOM     27  C   UNL     1      49.158   4.394  18.312  0.00  0.00    +0.000 A 
ATOM     28  C   UNL     1      50.085   3.468  17.826  0.00  0.00    +0.000 A 
ATOM     29  C   UNL     1      49.653   2.475  16.951  0.00  0.00    +0.000 A 
ATOM     30  C   UNL     1      48.319   2.436  16.566  0.00  0.00    +0.000 A 
ATOM     31  C   UNL     1      47.467   3.404  17.068  0.00  0.00    +0.000 A 
ATOM     32  N   UNL     1      47.856   4.382  17.917  0.00  0.00    +0.000 NA
ENDBRANCH  26  27
BRANCH  26  33
ATOM     33  C   UNL     1      49.243   5.044  20.729  0.00  0.00    +0.000 C 
BRANCH  33  34
ATOM     34  O   UNL     1      48.386   3.899  20.775  0.00  0.00    +0.000 OA
ATOM     35  H   UNL     1      48.116   3.702  19.854  0.00  0.00    +0.000 HD
ENDBRANCH  33  34
ENDBRANCH  26  33
ENDBRANCH  24  26
ENDBRANCH  23  24
ENDBRANCH   4  23
TORSDOF 10
ENDMDL
MODEL 9
REMARK VINA RESULT:    -7.090      2.603      3.662
REMARK INTER + INTRA:         -11.787
REMARK INTER:                 -10.410
REMARK INTRA:                  -1.377
REMARK UNBOUND:                -0.760
REMARK  Name = 
REMARK  11 active torsions:
REMARK  status: ('A' for Active; 'I' for Inactive)
REMARK    1  A    between atoms: C_1  and  C_2
REMARK    2  A    between atoms: C_2  and  N_3
REMARK    3  A    between atoms: C_2  and  C_22
REMARK    4  A    between atoms: N_3  and  C_4
REMARK    5  A    between atoms: C_4  and  C_5
REMARK    6  A    between atoms: C_8  and  C_9
REMARK    7  A    between atoms: C_9  and  N_10
REMARK    8  A    between atoms: N_10  and  CA_11
REMARK    9  A    between atoms: CA_11  and  C_12
REMARK   10  A    between atoms: CA_11  and  C_14
REMARK   11  A    between atoms: C_12  and  O_13
REMARK                            x       y       z     vdW  Elec       q    Type
REMARK                         _______ _______ _______ _____ _____    ______ ____
ROOT
ATOM      1  C   UNL     1      47.661   7.057  14.078  0.00  0.00    +0.000 A 
ATOM      2  C   UNL     1      46.826   7.142  12.957  0.00  0.00    +0.000 A 
ATOM      3  C   UNL     1      46.169   6.008  12.472  0.00  0.00    +0.000 A 
ATOM      4  C   UNL     1      46.345   4.758  13.086  0.00  0.00    +0.000 A 
ATOM      5  C   UNL     1      47.193   4.669  14.197  0.00  0.00    +0.000 A 
ATOM      6  C   UNL     1      47.840   5.805  14.688  0.00  0.00    +0.000 A 
ENDROOT
BRANCH   1   7
ATOM      7  C   UNL     1      48.406   8.266  14.597  0.00  0.00    +0.000 C 
BRANCH   7   8
ATOM      8  N   UNL     1      48.056   8.588  15.982  0.00  0.00    +0.000 NA
ATOM      9  H   UNL     1      47.509   9.447  15.983  0.00  0.00    +0.000 HD
BRANCH   8  11
ATOM     10  C   UNL     1      50.311   9.660  16.123  0.00  0.00    +0.000 C 
ATOM     11  C   UNL     1      49.243   8.808  16.821  0.00  0.00    +0.000 C 
BRANCH  11  12
ATOM     12  C   UNL     1      49.796   7.439  17.174  0.00  0.00    +0.000 A 
ATOM     13  C   UNL     1      50.954   6.904  16.629  0.00  0.00    +0.000 A 
ATOM     14  S   UNL     1      51.364   5.376  17.265  0.00  0.00    +0.000 S 
ATOM     15  C   UNL     1      49.991   5.364  18.273  0.00  0.00    +0.000 A 
ATOM     16  N   UNL     1      49.739   4.316  19.106  0.00  0.00    +0.000 NA
ATOM     17  C   UNL     1      48.662   4.442  19.803  0.00  0.00    +0.000 A 
ATOM     18  N   UNL     1      47.806   5.517  19.743  0.00  0.00    +0.000 N 
ATOM     19  C   UNL     1      48.017   6.597  18.914  0.00  0.00    +0.000 A 
ATOM     20  O   UNL     1      47.219   7.528  18.874  0.00  0.00    +0.000 OA
ATOM     21  C   UNL     1      49.226   6.505  18.121  0.00  0.00    +0.000 A 
ATOM     22  H   UNL     1      46.972   5.543  20.307  0.00  0.00    +0.000 HD
ENDBRANCH  11  12
ENDBRANCH   8  11
ENDBRANCH   7   8
ENDBRANCH   1   7
BRANCH   4  23
ATOM     23  C   UNL     1      45.603   3.538  12.586  0.00  0.00    +0.000 C 
BRANCH  23  24
ATOM     24  N   UNL     1      44.193   3.607  12.956  0.00  0.00    +0.000 NA
ATOM     25  H   UNL     1      44.073   4.419  13.564  0.00  0.00    +0.000 HD
BRANCH  24  26
ATOM     26  CA  UNL     1      43.278   3.768  11.803  0.00  0.00    +0.000 C 
BRANCH  26  27
ATOM     27  C   UNL     1      44.017   3.523  10.479  0.00  0.00    +0.000 A 
ATOM     28  C   UNL     1      44.519   4.578   9.714  0.00  0.00    +0.000 A 
ATOM     29  C   UNL     1      45.185   4.295   8.525  0.00  0.00    +0.000 A 
ATOM     30  C   UNL     1      45.319   2.974   8.115  0.00  0.00    +0.000 A 
ATOM     31  C   UNL     1      44.770   1.985   8.912  0.00  0.00    +0.000 A 
ATOM     32  N   UNL     1      44.116   2.229  10.071  0.00  0.00    +0.000 NA
ENDBRANCH  26  27
BRANCH  26  33
ATOM     33  C   UNL     1      42.583   5.155  11.726  0.00  0.00    +0.000 C 
BRANCH  33  34
ATOM     34  O   UNL     1      42.606   5.870  12.965  0.00  0.00    +0.000 OA
ATOM     35  H   UNL     1      41.841   5.561  13.492  0.00  0.00    +0.000 HD
ENDBRANCH  33  34
ENDBRANCH  26  33
ENDBRANCH  24  26
ENDBRANCH  23  24
ENDBRANCH   4  23
TORSDOF 10
ENDMDL
