MODEL 1
REMARK VINA RESULT:    -6.665      0.000      0.000
REMARK INTER + INTRA:         -11.646
REMARK INTER:                  -9.781
REMARK INTRA:                  -1.865
REMARK UNBOUND:                -1.865
REMARK  Name = 
REMARK  11 active torsions:
REMARK  status: ('A' for Active; 'I' for Inactive)
REMARK    1  A    between atoms: C_1  and  O_2
REMARK    2  A    between atoms: O_2  and  C_3
REMARK    3  A    between atoms: C_10  and  C_11
REMARK    4  A    between atoms: N_13  and  C_14
REMARK    5  A    between atoms: C_14  and  C_15
REMARK    6  A    between atoms: C_18  and  C_19
REMARK    7  A    between atoms: C_19  and  N_20
REMARK    8  A    between atoms: N_20  and  C_21
REMARK    9  A    between atoms: N_20  and  C_22
REMARK   10  A    between atoms: C_22  and  C_23
REMARK   11  A    between atoms: C_22  and  C_24
REMARK                            x       y       z     vdW  Elec       q    Type
REMARK                         _______ _______ _______ _____ _____    ______ ____
ROOT
ATOM      1  C   UNL     1      48.469   8.008  13.451  0.00  0.00    +0.000 A 
ATOM      2  C   UNL     1      47.820   8.957  14.251  0.00  0.00    +0.000 A 
ATOM      3  C   UNL     1      47.911   8.896  15.644  0.00  0.00    +0.000 A 
ATOM      4  C   UNL     1      48.659   7.888  16.268  0.00  0.00    +0.000 A 
ATOM      5  C   UNL     1      49.316   6.944  15.466  0.00  0.00    +0.000 A 
ATOM      6  C   UNL     1      49.224   7.005  14.072  0.00  0.00    +0.000 A 
ENDROOT
BRANCH   1   7
ATOM      7  C   UNL     1      48.423   8.113  11.947  0.00  0.00    +0.000 C 
BRANCH   7  10
ATOM      8  C   UNL     1      46.330   6.966  11.333  0.00  0.00    +0.000 C 
ATOM      9  O   UNL     1      45.651   7.905  11.743  0.00  0.00    +0.000 OA
ATOM     10  N   UNL     1      47.694   7.000  11.389  0.00  0.00    +0.000 N 
ATOM     11  H   UNL     1      48.237   6.247  10.991  0.00  0.00    +0.000 HD
BRANCH   8  19
ATOM     12  C   UNL     1      44.568   4.367  12.751  0.00  0.00    +0.000 A 
ATOM     13  N   UNL     1      43.781   3.306  13.022  0.00  0.00    +0.000 NA
ATOM     14  C   UNL     1      43.376   2.548  11.996  0.00  0.00    +0.000 A 
ATOM     15  N   UNL     1      43.679   2.707  10.712  0.00  0.00    +0.000 NA
ATOM     16  C   UNL     1      44.459   3.778  10.486  0.00  0.00    +0.000 A 
ATOM     17  S   UNL     1      44.964   4.126   8.903  0.00  0.00    +0.000 S 
ATOM     18  C   UNL     1      45.797   5.513   9.420  0.00  0.00    +0.000 A 
ATOM     19  C   UNL     1      45.704   5.748  10.787  0.00  0.00    +0.000 A 
ATOM     20  C   UNL     1      44.938   4.682  11.431  0.00  0.00    +0.000 A 
BRANCH  12  22
ATOM     21  C   UNL     1      46.339   4.783  14.248  0.00  0.00    +0.000 C 
ATOM     22  O   UNL     1      45.028   5.128  13.806  0.00  0.00    +0.000 OA
ENDBRANCH  12  22
ENDBRANCH   8  19
ENDBRANCH   7  10
ENDBRANCH   1   7
BRANCH   4  23
ATOM     23  C   UNL     1      48.758   7.817  17.785  0.00  0.00    +0.000 C 
BRANCH  23  24
ATOM     24  N   UNL     1      49.786   6.876  18.272  0.00  0.00    +0.000 NA
ATOM     25  C   UNL     1      50.804   7.565  19.072  0.00  0.00    +0.000 C 
BRANCH  24  26
ATOM     26  C   UNL     1      49.204   5.730  19.029  0.00  0.00    +0.000 C 
ATOM     27  C   UNL     1      47.827   5.983  19.675  0.00  0.00    +0.000 C 
BRANCH  26  28
ATOM     28  C   UNL     1      49.162   4.414  18.238  0.00  0.00    +0.000 A 
ATOM     29  C   UNL     1      47.988   4.020  17.596  0.00  0.00    +0.000 A 
ATOM     30  C   UNL     1      48.003   2.875  16.803  0.00  0.00    +0.000 A 
ATOM     31  C   UNL     1      49.176   2.141  16.685  0.00  0.00    +0.000 A 
ATOM     32  C   UNL     1      50.289   2.574  17.382  0.00  0.00    +0.000 A 
ATOM     33  N   UNL     1      50.307   3.683  18.152  0.00  0.00    +0.000 NA
ENDBRANCH  26  28
ENDBRANCH  24  26
ENDBRANCH  23  24
ENDBRANCH   4  23
TORSDOF 8
ENDMDL
MODEL 2
REMARK VINA RESULT:    -6.552      3.421      8.427
REMARK INTER + INTRA:         -11.481
REMARK INTER:                 -10.111
REMARK INTRA:                  -1.370
REMARK UNBOUND:                -1.865
REMARK  Name = 
REMARK  11 active torsions:
REMARK  status: ('A' for Active; 'I' for Inactive)
REMARK    1  A    between atoms: C_1  and  O_2
REMARK    2  A    between atoms: O_2  and  C_3
REMARK    3  A    between atoms: C_10  and  C_11
REMARK    4  A    between atoms: N_13  and  C_14
REMARK    5  A    between atoms: C_14  and  C_15
REMARK    6  A    between atoms: C_18  and  C_19
REMARK    7  A    between atoms: C_19  and  N_20
REMARK    8  A    between atoms: N_20  and  C_21
REMARK    9  A    between atoms: N_20  and  C_22
REMARK   10  A    between atoms: C_22  and  C_23
REMARK   11  A    between atoms: C_22  and  C_24
REMARK                            x       y       z     vdW  Elec       q    Type
REMARK                         _______ _______ _______ _____ _____    ______ ____
ROOT
ATOM      1  C   UNL     1      48.318   6.716  13.144  0.00  0.00    +0.000 A 
ATOM      2  C   UNL     1      47.828   7.149  11.905  0.00  0.00    +0.000 A 
ATOM      3  C   UNL     1      46.689   6.562  11.345  0.00  0.00    +0.000 A 
ATOM      4  C   UNL     1      46.012   5.535  12.016  0.00  0.00    +0.000 A 
ATOM      5  C   UNL     1      46.498   5.109  13.260  0.00  0.00    +0.000 A 
ATOM      6  C   UNL     1      47.637   5.696  13.820  0.00  0.00    +0.000 A 
ENDROOT
BRANCH   1   7
ATOM      7  C   UNL     1      49.508   7.393  13.777  0.00  0.00    +0.000 C 
BRANCH   7  10
ATOM      8  C   UNL     1      50.510   7.192  16.018  0.00  0.00    +0.000 C 
ATOM      9  O   UNL     1      51.644   7.134  15.548  0.00  0.00    +0.000 OA
ATOM     10  N   UNL     1      49.415   7.331  15.215  0.00  0.00    +0.000 N 
ATOM     11  H   UNL     1      48.497   7.439  15.623  0.00  0.00    +0.000 HD
BRANCH   8  19
ATOM     12  C   UNL     1      49.049   4.795  18.017  0.00  0.00    +0.000 A 
ATOM     13  N   UNL     1      48.634   3.995  19.021  0.00  0.00    +0.000 NA
ATOM     14  C   UNL     1      48.816   4.419  20.277  0.00  0.00    +0.000 A 
ATOM     15  N   UNL     1      49.353   5.571  20.665  0.00  0.00    +0.000 NA
ATOM     16  C   UNL     1      49.757   6.334  19.636  0.00  0.00    +0.000 A 
ATOM     17  S   UNL     1      50.450   7.853  19.942  0.00  0.00    +0.000 S 
ATOM     18  C   UNL     1      50.698   8.131  18.285  0.00  0.00    +0.000 A 
ATOM     19  C   UNL     1      50.276   7.087  17.470  0.00  0.00    +0.000 A 
ATOM     20  C   UNL     1      49.672   6.029  18.280  0.00  0.00    +0.000 A 
BRANCH  12  22
ATOM     21  C   UNL     1      48.004   3.227  16.603  0.00  0.00    +0.000 C 
ATOM     22  O   UNL     1      48.825   4.388  16.719  0.00  0.00    +0.000 OA
ENDBRANCH  12  22
ENDBRANCH   8  19
ENDBRANCH   7  10
ENDBRANCH   1   7
BRANCH   4  23
ATOM     23  C   UNL     1      44.773   4.892  11.408  0.00  0.00    +0.000 C 
BRANCH  23  24
ATOM     24  N   UNL     1      45.001   3.526  10.897  0.00  0.00    +0.000 NA
ATOM     25  C   UNL     1      44.414   2.518  11.787  0.00  0.00    +0.000 C 
BRANCH  24  26
ATOM     26  C   UNL     1      44.512   3.347   9.499  0.00  0.00    +0.000 C 
ATOM     27  C   UNL     1      43.924   4.603   8.827  0.00  0.00    +0.000 C 
BRANCH  26  28
ATOM     28  C   UNL     1      45.536   2.696   8.557  0.00  0.00    +0.000 A 
ATOM     29  C   UNL     1      46.288   3.487   7.687  0.00  0.00    +0.000 A 
ATOM     30  C   UNL     1      47.280   2.887   6.916  0.00  0.00    +0.000 A 
ATOM     31  C   UNL     1      47.484   1.516   7.011  0.00  0.00    +0.000 A 
ATOM     32  C   UNL     1      46.674   0.794   7.867  0.00  0.00    +0.000 A 
ATOM     33  N   UNL     1      45.710   1.348   8.634  0.00  0.00    +0.000 NA
ENDBRANCH  26  28
ENDBRANCH  24  26
ENDBRANCH  23  24
ENDBRANCH   4  23
TORSDOF 8
ENDMDL
MODEL 3
REMARK VINA RESULT:    -6.516      3.175      5.394
REMARK INTER + INTRA:         -11.428
REMARK INTER:                  -9.946
REMARK INTRA:                  -1.482
REMARK UNBOUND:                -1.865
REMARK  Name = 
REMARK  11 active torsions:
REMARK  status: ('A' for Active; 'I' for Inactive)
REMARK    1  A    between atoms: C_1  and  O_2
REMARK    2  A    between atoms: O_2  and  C_3
REMARK    3  A    between atoms: C_10  and  C_11
REMARK    4  A    between atoms: N_13  and  C_14
REMARK    5  A    between atoms: C_14  and  C_15
REMARK    6  A    between atoms: C_18  and  C_19
REMARK    7  A    between atoms: C_19  and  N_20
REMARK    8  A    between atoms: N_20  and  C_21
REMARK    9  A    between atoms: N_20  and  C_22
REMARK   10  A    between atoms: C_22  and  C_23
REMARK   11  A    between atoms: C_22  and  C_24
REMARK                            x       y       z     vdW  Elec       q    Type
REMARK                         _______ _______ _______ _____ _____    ______ ____
ROOT
ATOM      1  C   UNL     1      48.725   3.258  17.388  0.00  0.00    +0.000 A 
ATOM      2  C   UNL     1      49.367   4.359  17.970  0.00  0.00    +0.000 A 
ATOM      3  C   UNL     1      50.747   4.343  18.192  0.00  0.00    +0.000 A 
ATOM      4  C   UNL     1      51.516   3.228  17.832  0.00  0.00    +0.000 A 
ATOM      5  C   UNL     1      50.874   2.131  17.241  0.00  0.00    +0.000 A 
ATOM      6  C   UNL     1      49.493   2.146  17.019  0.00  0.00    +0.000 A 
ENDROOT
BRANCH   1   7
ATOM      7  C   UNL     1      47.247   3.302  17.090  0.00  0.00    +0.000 C 
BRANCH   7  10
ATOM      8  C   UNL     1      47.123   4.135  14.775  0.00  0.00    +0.000 C 
ATOM      9  O   UNL     1      47.505   3.056  14.325  0.00  0.00    +0.000 OA
ATOM     10  N   UNL     1      46.962   4.328  16.117  0.00  0.00    +0.000 N 
ATOM     11  H   UNL     1      46.590   5.200  16.463  0.00  0.00    +0.000 HD
BRANCH   8  19
ATOM     12  C   UNL     1      44.512   4.934  12.672  0.00  0.00    +0.000 A 
ATOM     13  N   UNL     1      43.602   5.529  11.875  0.00  0.00    +0.000 NA
ATOM     14  C   UNL     1      43.875   6.757  11.418  0.00  0.00    +0.000 A 
ATOM     15  N   UNL     1      44.972   7.471  11.645  0.00  0.00    +0.000 NA
ATOM     16  C   UNL     1      45.849   6.846  12.447  0.00  0.00    +0.000 A 
ATOM     17  S   UNL     1      47.320   7.602  12.830  0.00  0.00    +0.000 S 
ATOM     18  C   UNL     1      47.789   6.302  13.817  0.00  0.00    +0.000 A 
ATOM     19  C   UNL     1      46.849   5.281  13.888  0.00  0.00    +0.000 A 
ATOM     20  C   UNL     1      45.705   5.589  13.030  0.00  0.00    +0.000 A 
BRANCH  12  22
ATOM     21  C   UNL     1      43.525   2.851  12.189  0.00  0.00    +0.000 C 
ATOM     22  O   UNL     1      44.261   3.651  13.111  0.00  0.00    +0.000 OA
ENDBRANCH  12  22
ENDBRANCH   8  19
ENDBRANCH   7  10
ENDBRANCH   1   7
BRANCH   4  23
ATOM     23  C   UNL     1      53.018   3.206  18.075  0.00  0.00    +0.000 C 
BRANCH  23  24
ATOM     24  N   UNL     1      53.598   4.536  18.344  0.00  0.00    +0.000 NA
ATOM     25  C   UNL     1      54.094   4.633  19.722  0.00  0.00    +0.000 C 
BRANCH  24  26
ATOM     26  C   UNL     1      54.664   4.907  17.370  0.00  0.00    +0.000 C 
ATOM     27  C   UNL     1      55.402   3.729  16.702  0.00  0.00    +0.000 C 
BRANCH  26  28
ATOM     28  C   UNL     1      54.210   5.903  16.293  0.00  0.00    +0.000 A 
ATOM     29  C   UNL     1      52.990   6.567  16.424  0.00  0.00    +0.000 A 
ATOM     30  C   UNL     1      52.646   7.539  15.488  0.00  0.00    +0.000 A 
ATOM     31  C   UNL     1      53.511   7.810  14.435  0.00  0.00    +0.000 A 
ATOM     32  C   UNL     1      54.684   7.083  14.351  0.00  0.00    +0.000 A 
ATOM     33  N   UNL     1      55.049   6.141  15.248  0.00  0.00    +0.000 NA
ENDBRANCH  26  28
ENDBRANCH  24  26
ENDBRANCH  23  24
ENDBRANCH   4  23
TORSDOF 8
ENDMDL
MODEL 4
REMARK VINA RESULT:    -6.375      3.147      8.022
REMARK INTER + INTRA:         -11.222
REMARK INTER:                  -9.997
REMARK INTRA:                  -1.225
REMARK UNBOUND:                -1.865
REMARK  Name = 
REMARK  11 active torsions:
REMARK  status: ('A' for Active; 'I' for Inactive)
REMARK    1  A    between atoms: C_1  and  O_2
REMARK    2  A    between atoms: O_2  and  C_3
REMARK    3  A    between atoms: C_10  and  C_11
REMARK    4  A    between atoms: N_13  and  C_14
REMARK    5  A    between atoms: C_14  and  C_15
REMARK    6  A    between atoms: C_18  and  C_19
REMARK    7  A    between atoms: C_19  and  N_20
REMARK    8  A    between atoms: N_20  and  C_21
REMARK    9  A    between atoms: N_20  and  C_22
REMARK   10  A    between atoms: C_22  and  C_23
REMARK   11  A    between atoms: C_22  and  C_24
REMARK                            x       y       z     vdW  Elec       q    Type
REMARK                         _______ _______ _______ _____ _____    ______ ____
ROOT
ATOM      1  C   UNL     1      47.818   7.232  13.276  0.00  0.00    +0.000 A 
ATOM      2  C   UNL     1      46.612   7.862  12.944  0.00  0.00    +0.000 A 
ATOM      3  C   UNL     1      45.432   7.122  12.820  0.00  0.00    +0.000 A 
ATOM      4  C   UNL     1      45.432   5.737  13.032  0.00  0.00    +0.000 A 
ATOM      5  C   UNL     1      46.638   5.109  13.374  0.00  0.00    +0.000 A 
ATOM      6  C   UNL     1      47.818   5.849  13.498  0.00  0.00    +0.000 A 
ENDROOT
BRANCH   1   7
ATOM      7  C   UNL     1      49.076   8.040  13.473  0.00  0.00    +0.000 C 
BRANCH   7  10
ATOM      8  C   UNL     1      50.044   7.449  15.660  0.00  0.00    +0.000 C 
ATOM      9  O   UNL     1      49.252   8.181  16.251  0.00  0.00    +0.000 OA
ATOM     10  N   UNL     1      50.011   7.319  14.301  0.00  0.00    +0.000 N 
ATOM     11  H   UNL     1      50.628   6.667  13.839  0.00  0.00    +0.000 HD
BRANCH   8  19
ATOM     12  C   UNL     1      50.137   4.321  17.104  0.00  0.00    +0.000 A 
ATOM     13  N   UNL     1      50.474   3.134  17.648  0.00  0.00    +0.000 NA
ATOM     14  C   UNL     1      51.735   2.972  18.066  0.00  0.00    +0.000 A 
ATOM     15  N   UNL     1      52.715   3.869  18.027  0.00  0.00    +0.000 NA
ATOM     16  C   UNL     1      52.338   5.033  17.473  0.00  0.00    +0.000 A 
ATOM     17  S   UNL     1      53.456   6.305  17.358  0.00  0.00    +0.000 S 
ATOM     18  C   UNL     1      52.319   7.302  16.584  0.00  0.00    +0.000 A 
ATOM     19  C   UNL     1      51.083   6.698  16.388  0.00  0.00    +0.000 A 
ATOM     20  C   UNL     1      51.083   5.352  16.961  0.00  0.00    +0.000 A 
BRANCH  12  22
ATOM     21  C   UNL     1      48.028   3.334  16.743  0.00  0.00    +0.000 C 
ATOM     22  O   UNL     1      48.829   4.514  16.712  0.00  0.00    +0.000 OA
ENDBRANCH  12  22
ENDBRANCH   8  19
ENDBRANCH   7  10
ENDBRANCH   1   7
BRANCH   4  23
ATOM     23  C   UNL     1      44.150   4.927  12.895  0.00  0.00    +0.000 C 
BRANCH  23  24
ATOM     24  N   UNL     1      44.277   3.756  12.006  0.00  0.00    +0.000 NA
ATOM     25  C   UNL     1      43.609   2.580  12.574  0.00  0.00    +0.000 C 
BRANCH  24  26
ATOM     26  C   UNL     1      43.786   4.028  10.624  0.00  0.00    +0.000 C 
ATOM     27  C   UNL     1      43.403   5.491  10.323  0.00  0.00    +0.000 C 
BRANCH  26  28
ATOM     28  C   UNL     1      44.712   3.504   9.516  0.00  0.00    +0.000 A 
ATOM     29  C   UNL     1      45.376   4.401   8.678  0.00  0.00    +0.000 A 
ATOM     30  C   UNL     1      46.288   3.906   7.748  0.00  0.00    +0.000 A 
ATOM     31  C   UNL     1      46.500   2.537   7.660  0.00  0.00    +0.000 A 
ATOM     32  C   UNL     1      45.776   1.710   8.499  0.00  0.00    +0.000 A 
ATOM     33  N   UNL     1      44.892   2.159   9.416  0.00  0.00    +0.000 NA
ENDBRANCH  26  28
ENDBRANCH  24  26
ENDBRANCH  23  24
ENDBRANCH   4  23
TORSDOF 8
ENDMDL
MODEL 5
REMARK VINA RESULT:    -6.347      3.558      8.428
REMARK INTER + INTRA:         -11.180
REMARK INTER:                 -10.373
REMARK INTRA:                  -0.807
REMARK UNBOUND:                -1.865
REMARK  Name = 
REMARK  11 active torsions:
REMARK  status: ('A' for Active; 'I' for Inactive)
REMARK    1  A    between atoms: C_1  and  O_2
REMARK    2  A    between atoms: O_2  and  C_3
REMARK    3  A    between atoms: C_10  and  C_11
REMARK    4  A    between atoms: N_13  and  C_14
REMARK    5  A    between atoms: C_14  and  C_15
REMARK    6  A    between atoms: C_18  and  C_19
REMARK    7  A    between atoms: C_19  and  N_20
REMARK    8  A    between atoms: N_20  and  C_21
REMARK    9  A    between atoms: N_20  and  C_22
REMARK   10  A    between atoms: C_22  and  C_23
REMARK   11  A    between atoms: C_22  and  C_24
REMARK                            x       y       z     vdW  Elec       q    Type
REMARK                         _______ _______ _______ _____ _____    ______ ____
ROOT
ATOM      1  C   UNL     1      49.088   6.645  15.099  0.00  0.00    +0.000 A 
ATOM      2  C   UNL     1      48.163   5.710  15.580  0.00  0.00    +0.000 A 
ATOM      3  C   UNL     1      47.189   5.172  14.735  0.00  0.00    +0.000 A 
ATOM      4  C   UNL     1      47.123   5.552  13.387  0.00  0.00    +0.000 A 
ATOM      5  C   UNL     1      48.055   6.481  12.905  0.00  0.00    +0.000 A 
ATOM      6  C   UNL     1      49.030   7.020  13.751  0.00  0.00    +0.000 A 
ENDROOT
BRANCH   1   7
ATOM      7  C   UNL     1      50.179   7.176  15.995  0.00  0.00    +0.000 C 
BRANCH   7  10
ATOM      8  C   UNL     1      51.054   5.862  17.886  0.00  0.00    +0.000 C 
ATOM      9  O   UNL     1      50.468   6.572  18.701  0.00  0.00    +0.000 OA
ATOM     10  N   UNL     1      50.951   6.088  16.544  0.00  0.00    +0.000 N 
ATOM     11  H   UNL     1      51.390   5.458  15.888  0.00  0.00    +0.000 HD
BRANCH   8  19
ATOM     12  C   UNL     1      50.991   2.459  17.345  0.00  0.00    +0.000 A 
ATOM     13  N   UNL     1      51.259   1.144  17.214  0.00  0.00    +0.000 NA
ATOM     14  C   UNL     1      52.375   0.672  17.783  0.00  0.00    +0.000 A 
ATOM     15  N   UNL     1      53.263   1.356  18.496  0.00  0.00    +0.000 NA
ATOM     16  C   UNL     1      52.962   2.661  18.596  0.00  0.00    +0.000 A 
ATOM     17  S   UNL     1      53.976   3.688  19.490  0.00  0.00    +0.000 S 
ATOM     18  C   UNL     1      53.013   5.039  19.127  0.00  0.00    +0.000 A 
ATOM     19  C   UNL     1      51.918   4.749  18.321  0.00  0.00    +0.000 A 
ATOM     20  C   UNL     1      51.865   3.315  18.041  0.00  0.00    +0.000 A 
BRANCH  12  22
ATOM     21  C   UNL     1      48.695   2.869  17.672  0.00  0.00    +0.000 C 
ATOM     22  O   UNL     1      49.821   2.946  16.801  0.00  0.00    +0.000 OA
ENDBRANCH  12  22
ENDBRANCH   8  19
ENDBRANCH   7  10
ENDBRANCH   1   7
BRANCH   4  23
ATOM     23  C   UNL     1      46.061   4.971  12.465  0.00  0.00    +0.000 C 
BRANCH  23  24
ATOM     24  N   UNL     1      44.704   5.497  12.711  0.00  0.00    +0.000 NA
ATOM     25  C   UNL     1      44.633   6.937  12.432  0.00  0.00    +0.000 C 
BRANCH  24  26
ATOM     26  C   UNL     1      43.655   4.759  11.952  0.00  0.00    +0.000 C 
ATOM     27  C   UNL     1      42.358   5.542  11.664  0.00  0.00    +0.000 C 
BRANCH  26  28
ATOM     28  C   UNL     1      44.159   4.113  10.653  0.00  0.00    +0.000 A 
ATOM     29  C   UNL     1      44.716   4.905   9.648  0.00  0.00    +0.000 A 
ATOM     30  C   UNL     1      45.259   4.286   8.524  0.00  0.00    +0.000 A 
ATOM     31  C   UNL     1      45.215   2.902   8.417  0.00  0.00    +0.000 A 
ATOM     32  C   UNL     1      44.612   2.189   9.436  0.00  0.00    +0.000 A 
ATOM     33  N   UNL     1      44.086   2.758  10.541  0.00  0.00    +0.000 NA
ENDBRANCH  26  28
ENDBRANCH  24  26
ENDBRANCH  23  24
ENDBRANCH   4  23
TORSDOF 8
ENDMDL
MODEL 6
REMARK VINA RESULT:    -6.231      1.798      2.728
REMARK INTER + INTRA:         -11.010
REMARK INTER:                  -9.308
REMARK INTRA:                  -1.702
REMARK UNBOUND:                -1.865
REMARK  Name = 
REMARK  11 active torsions:
REMARK  status: ('A' for Active; 'I' for Inactive)
REMARK    1  A    between atoms: C_1  and  O_2
REMARK    2  A    between atoms: O_2  and  C_3
REMARK    3  A    between atoms: C_10  and  C_11
REMARK    4  A    between atoms: N_13  and  C_14
REMARK    5  A    between atoms: C_14  and  C_15
REMARK    6  A    between atoms: C_18  and  C_19
REMARK    7  A    between atoms: C_19  and  N_20
REMARK    8  A    between atoms: N_20  and  C_21
REMARK    9  A    between atoms: N_20  and  C_22
REMARK   10  A    between atoms: C_22  and  C_23
REMARK   11  A    between atoms: C_22  and  C_24
REMARK                            x       y       z     vdW  Elec       q    Type
REMARK                         _______ _______ _______ _____ _____    ______ ____
ROOT
ATOM      1  C   UNL     1      48.958   7.704  12.789  0.00  0.00    +0.000 A 
ATOM      2  C   UNL     1      50.265   8.209  12.802  0.00  0.00    +0.000 A 
ATOM      3  C   UNL     1      51.047   8.131  13.958  0.00  0.00    +0.000 A 
ATOM      4  C   UNL     1      50.541   7.540  15.124  0.00  0.00    +0.000 A 
ATOM      5  C   UNL     1      49.237   7.027  15.107  0.00  0.00    +0.000 A 
ATOM      6  C   UNL     1      48.454   7.106  13.951  0.00  0.00    +0.000 A 
ENDROOT
BRANCH   1   7
ATOM      7  C   UNL     1      48.138   7.731  11.524  0.00  0.00    +0.000 C 
BRANCH   7  10
ATOM      8  C   UNL     1      45.841   6.843  11.608  0.00  0.00    +0.000 C 
ATOM      9  O   UNL     1      45.366   7.975  11.679  0.00  0.00    +0.000 OA
ATOM     10  N   UNL     1      47.189   6.644  11.518  0.00  0.00    +0.000 N 
ATOM     11  H   UNL     1      47.557   5.712  11.398  0.00  0.00    +0.000 HD
BRANCH   8  19
ATOM     12  C   UNL     1      45.307   4.238   9.417  0.00  0.00    +0.000 A 
ATOM     13  N   UNL     1      44.990   3.077   8.807  0.00  0.00    +0.000 NA
ATOM     14  C   UNL     1      44.171   2.235   9.448  0.00  0.00    +0.000 A 
ATOM     15  N   UNL     1      43.601   2.418  10.634  0.00  0.00    +0.000 NA
ATOM     16  C   UNL     1      43.948   3.581  11.209  0.00  0.00    +0.000 A 
ATOM     17  S   UNL     1      43.298   3.993  12.723  0.00  0.00    +0.000 S 
ATOM     18  C   UNL     1      44.176   5.446  12.761  0.00  0.00    +0.000 A 
ATOM     19  C   UNL     1      44.981   5.647  11.645  0.00  0.00    +0.000 A 
ATOM     20  C   UNL     1      44.808   4.548  10.696  0.00  0.00    +0.000 A 
BRANCH  12  22
ATOM     21  C   UNL     1      46.795   4.577   7.623  0.00  0.00    +0.000 C 
ATOM     22  O   UNL     1      46.114   5.132   8.746  0.00  0.00    +0.000 OA
ENDBRANCH  12  22
ENDBRANCH   8  19
ENDBRANCH   7  10
ENDBRANCH   1   7
BRANCH   4  23
ATOM     23  C   UNL     1      51.390   7.456  16.386  0.00  0.00    +0.000 C 
BRANCH  23  24
ATOM     24  N   UNL     1      51.748   6.077  16.771  0.00  0.00    +0.000 NA
ATOM     25  C   UNL     1      53.204   5.911  16.862  0.00  0.00    +0.000 C 
BRANCH  24  26
ATOM     26  C   UNL     1      51.087   5.643  18.035  0.00  0.00    +0.000 C 
ATOM     27  C   UNL     1      50.929   6.729  19.118  0.00  0.00    +0.000 C 
BRANCH  26  28
ATOM     28  C   UNL     1      49.741   4.933  17.825  0.00  0.00    +0.000 A 
ATOM     29  C   UNL     1      48.569   5.489  18.338  0.00  0.00    +0.000 A 
ATOM     30  C   UNL     1      47.350   4.881  18.048  0.00  0.00    +0.000 A 
ATOM     31  C   UNL     1      47.328   3.726  17.277  0.00  0.00    +0.000 A 
ATOM     32  C   UNL     1      48.535   3.214  16.836  0.00  0.00    +0.000 A 
ATOM     33  N   UNL     1      49.731   3.785  17.093  0.00  0.00    +0.000 NA
ENDBRANCH  26  28
ENDBRANCH  24  26
ENDBRANCH  23  24
ENDBRANCH   4  23
TORSDOF 8
ENDMDL
MODEL 7
REMARK VINA RESULT:    -6.036      3.443      8.512
REMARK INTER + INTRA:         -10.724
REMARK INTER:                  -9.536
REMARK INTRA:                  -1.189
REMARK UNBOUND:                -1.865
REMARK  Name = 
REMARK  11 active torsions:
REMARK  status: ('A' for Active; 'I' for Inactive)
REMARK    1  A    between atoms: C_1  and  O_2
REMARK    2  A    between atoms: O_2  and  C_3
REMARK    3  A    between atoms: C_10  and  C_11
REMARK    4  A    between atoms: N_13  and  C_14
REMARK    5  A    between atoms: C_14  and  C_15
REMARK    6  A    between atoms: C_18  and  C_19
REMARK    7  A    between atoms: C_19  and  N_20
REMARK    8  A    between atoms: N_20  and  C_21
REMARK    9  A    between atoms: N_20  and  C_22
REMARK   10  A    between atoms: C_22  and  C_23
REMARK   11  A    between atoms: C_22  and  C_24
REMARK                            x       y       z     vdW  Elec       q    Type
REMARK                         _______ _______ _______ _____ _____    ______ ____
ROOT
ATOM      1  C   UNL     1      47.757   6.621  13.811  0.00  0.00    +0.000 A 
ATOM      2  C   UNL     1      47.511   5.294  14.190  0.00  0.00    +0.000 A 
ATOM      3  C   UNL     1      46.320   4.660  13.828  0.00  0.00    +0.000 A 
ATOM      4  C   UNL     1      45.351   5.335  13.073  0.00  0.00    +0.000 A 
ATOM      5  C   UNL     1      45.603   6.659  12.686  0.00  0.00    +0.000 A 
ATOM      6  C   UNL     1      46.795   7.294  13.049  0.00  0.00    +0.000 A 
ENDROOT
BRANCH   1   7
ATOM      7  C   UNL     1      49.070   7.283  14.147  0.00  0.00    +0.000 C 
BRANCH   7  10
ATOM      8  C   UNL     1      50.868   7.027  15.813  0.00  0.00    +0.000 C 
ATOM      9  O   UNL     1      51.602   7.794  15.194  0.00  0.00    +0.000 OA
ATOM     10  N   UNL     1      49.609   6.737  15.369  0.00  0.00    +0.000 N 
ATOM     11  H   UNL     1      48.998   6.154  15.922  0.00  0.00    +0.000 HD
BRANCH   8  19
ATOM     12  C   UNL     1      49.340   6.317  18.820  0.00  0.00    +0.000 A 
ATOM     13  N   UNL     1      48.968   5.836  20.023  0.00  0.00    +0.000 NA
ATOM     14  C   UNL     1      49.860   5.119  20.715  0.00  0.00    +0.000 A 
ATOM     15  N   UNL     1      51.108   4.832  20.360  0.00  0.00    +0.000 NA
ATOM     16  C   UNL     1      51.436   5.324  19.154  0.00  0.00    +0.000 A 
ATOM     17  S   UNL     1      53.001   5.072  18.545  0.00  0.00    +0.000 S 
ATOM     18  C   UNL     1      52.627   5.893  17.106  0.00  0.00    +0.000 A 
ATOM     19  C   UNL     1      51.320   6.362  17.049  0.00  0.00    +0.000 A 
ATOM     20  C   UNL     1      50.621   6.058  18.297  0.00  0.00    +0.000 A 
BRANCH  12  22
ATOM     21  C   UNL     1      47.677   7.982  18.931  0.00  0.00    +0.000 C 
ATOM     22  O   UNL     1      48.444   7.096  18.119  0.00  0.00    +0.000 OA
ENDBRANCH  12  22
ENDBRANCH   8  19
ENDBRANCH   7  10
ENDBRANCH   1   7
BRANCH   4  23
ATOM     23  C   UNL     1      44.051   4.648  12.679  0.00  0.00    +0.000 C 
BRANCH  23  24
ATOM     24  N   UNL     1      44.233   3.523  11.741  0.00  0.00    +0.000 NA
ATOM     25  C   UNL     1      43.477   2.341  12.174  0.00  0.00    +0.000 C 
BRANCH  24  26
ATOM     26  C   UNL     1      43.890   3.884  10.336  0.00  0.00    +0.000 C 
ATOM     27  C   UNL     1      43.515   5.360  10.094  0.00  0.00    +0.000 C 
BRANCH  26  28
ATOM     28  C   UNL     1      44.942   3.450   9.303  0.00  0.00    +0.000 A 
ATOM     29  C   UNL     1      45.261   2.099   9.156  0.00  0.00    +0.000 A 
ATOM     30  C   UNL     1      46.142   1.721   8.146  0.00  0.00    +0.000 A 
ATOM     31  C   UNL     1      46.698   2.692   7.324  0.00  0.00    +0.000 A 
ATOM     32  C   UNL     1      46.362   4.013   7.556  0.00  0.00    +0.000 A 
ATOM     33  N   UNL     1      45.505   4.411   8.521  0.00  0.00    +0.000 NA
ENDBRANCH  26  28
ENDBRANCH  24  26
ENDBRANCH  23  24
ENDBRANCH   4  23
TORSDOF 8
ENDMDL
MODEL 8
REMARK VINA RESULT:    -5.959      4.880      8.237
REMARK INTER + INTRA:         -10.611
REMARK INTER:                  -9.478
REMARK INTRA:                  -1.133
REMARK UNBOUND:                -1.865
REMARK  Name = 
REMARK  11 active torsions:
REMARK  status: ('A' for Active; 'I' for Inactive)
REMARK    1  A    between atoms: C_1  and  O_2
REMARK    2  A    between atoms: O_2  and  C_3
REMARK    3  A    between atoms: C_10  and  C_11
REMARK    4  A    between atoms: N_13  and  C_14
REMARK    5  A    between atoms: C_14  and  C_15
REMARK    6  A    between atoms: C_18  and  C_19
REMARK    7  A    between atoms: C_19  and  N_20
REMARK    8  A    between atoms: N_20  and  C_21
REMARK    9  A    between atoms: N_20  and  C_22
REMARK   10  A    between atoms: C_22  and  C_23
REMARK   11  A    between atoms: C_22  and  C_24
REMARK                            x       y       z     vdW  Elec       q    Type
REMARK                         _______ _______ _______ _____ _____    ______ ____
ROOT
ATOM      1  C   UNL     1      49.464   8.773  12.088  0.00  0.00    +0.000 A 
ATOM      2  C   UNL     1      49.430   7.400  12.368  0.00  0.00    +0.000 A 
ATOM      3  C   UNL     1      48.212   6.743  12.564  0.00  0.00    +0.000 A 
ATOM      4  C   UNL     1      47.001   7.443  12.478  0.00  0.00    +0.000 A 
ATOM      5  C   UNL     1      47.036   8.814  12.189  0.00  0.00    +0.000 A 
ATOM      6  C   UNL     1      48.254   9.472  11.993  0.00  0.00    +0.000 A 
ENDROOT
BRANCH   1   7
ATOM      7  C   UNL     1      50.774   9.467  11.813  0.00  0.00    +0.000 C 
BRANCH   7  10
ATOM      8  C   UNL     1      52.516   8.630  10.284  0.00  0.00    +0.000 C 
ATOM      9  O   UNL     1      53.296   8.439  11.215  0.00  0.00    +0.000 OA
ATOM     10  N   UNL     1      51.259   9.120  10.499  0.00  0.00    +0.000 N 
ATOM     11  H   UNL     1      50.612   9.212   9.730  0.00  0.00    +0.000 HD
BRANCH   8  19
ATOM     12  C   UNL     1      53.557   5.804   8.609  0.00  0.00    +0.000 A 
ATOM     13  N   UNL     1      53.882   4.856   7.707  0.00  0.00    +0.000 NA
ATOM     14  C   UNL     1      53.990   5.221   6.424  0.00  0.00    +0.000 A 
ATOM     15  N   UNL     1      53.832   6.441   5.921  0.00  0.00    +0.000 NA
ATOM     16  C   UNL     1      53.504   7.353   6.852  0.00  0.00    +0.000 A 
ATOM     17  S   UNL     1      53.281   8.973   6.394  0.00  0.00    +0.000 S 
ATOM     18  C   UNL     1      52.891   9.422   7.984  0.00  0.00    +0.000 A 
ATOM     19  C   UNL     1      52.909   8.366   8.888  0.00  0.00    +0.000 A 
ATOM     20  C   UNL     1      53.320   7.134   8.214  0.00  0.00    +0.000 A 
BRANCH  12  22
ATOM     21  C   UNL     1      54.746   5.115  10.522  0.00  0.00    +0.000 C 
ATOM     22  O   UNL     1      53.488   5.447   9.939  0.00  0.00    +0.000 OA
ENDBRANCH  12  22
ENDBRANCH   8  19
ENDBRANCH   7  10
ENDBRANCH   1   7
BRANCH   4  23
ATOM     23  C   UNL     1      45.672   6.732  12.694  0.00  0.00    +0.000 C 
BRANCH  23  24
ATOM     24  N   UNL     1      45.699   5.300  12.336  0.00  0.00    +0.000 NA
ATOM     25  C   UNL     1      45.840   4.455  13.528  0.00  0.00    +0.000 C 
BRANCH  24  26
ATOM     26  C   UNL     1      44.513   4.886  11.532  0.00  0.00    +0.000 C 
ATOM     27  C   UNL     1      43.487   5.997  11.229  0.00  0.00    +0.000 C 
BRANCH  26  28
ATOM     28  C   UNL     1      44.864   4.148  10.232  0.00  0.00    +0.000 A 
ATOM     29  C   UNL     1      45.533   4.817   9.206  0.00  0.00    +0.000 A 
ATOM     30  C   UNL     1      45.931   4.101   8.080  0.00  0.00    +0.000 A 
ATOM     31  C   UNL     1      45.635   2.746   7.991  0.00  0.00    +0.000 A 
ATOM     32  C   UNL     1      44.937   2.163   9.032  0.00  0.00    +0.000 A 
ATOM     33  N   UNL     1      44.545   2.828  10.140  0.00  0.00    +0.000 NA
ENDBRANCH  26  28
ENDBRANCH  24  26
ENDBRANCH  23  24
ENDBRANCH   4  23
TORSDOF 8
ENDMDL
MODEL 9
REMARK VINA RESULT:    -5.843      1.619      2.004
REMARK INTER + INTRA:         -10.440
REMARK INTER:                  -8.692
REMARK INTRA:                  -1.747
REMARK UNBOUND:                -1.865
REMARK  Name = 
REMARK  11 active torsions:
REMARK  status: ('A' for Active; 'I' for Inactive)
REMARK    1  A    between atoms: C_1  and  O_2
REMARK    2  A    between atoms: O_2  and  C_3
REMARK    3  A    between atoms: C_10  and  C_11
REMARK    4  A    between atoms: N_13  and  C_14
REMARK    5  A    between atoms: C_14  and  C_15
REMARK    6  A    between atoms: C_18  and  C_19
REMARK    7  A    between atoms: C_19  and  N_20
REMARK    8  A    between atoms: N_20  and  C_21
REMARK    9  A    between atoms: N_20  and  C_22
REMARK   10  A    between atoms: C_22  and  C_23
REMARK   11  A    between atoms: C_22  and  C_24
REMARK                            x       y       z     vdW  Elec       q    Type
REMARK                         _______ _______ _______ _____ _____    ______ ____
ROOT
ATOM      1  C   UNL     1      48.401   8.640  15.458  0.00  0.00    +0.000 A 
ATOM      2  C   UNL     1      47.910   9.286  16.600  0.00  0.00    +0.000 A 
ATOM      3  C   UNL     1      48.345   8.908  17.873  0.00  0.00    +0.000 A 
ATOM      4  C   UNL     1      49.286   7.881  18.032  0.00  0.00    +0.000 A 
ATOM      5  C   UNL     1      49.783   7.242  16.888  0.00  0.00    +0.000 A 
ATOM      6  C   UNL     1      49.348   7.619  15.614  0.00  0.00    +0.000 A 
ENDROOT
BRANCH   1   7
ATOM      7  C   UNL     1      47.981   9.091  14.082  0.00  0.00    +0.000 C 
BRANCH   7  10
ATOM      8  C   UNL     1      46.846   7.597  12.484  0.00  0.00    +0.000 C 
ATOM      9  O   UNL     1      47.850   7.525  11.779  0.00  0.00    +0.000 OA
ATOM     10  N   UNL     1      46.837   8.335  13.633  0.00  0.00    +0.000 N 
ATOM     11  H   UNL     1      46.023   8.332  14.231  0.00  0.00    +0.000 HD
BRANCH   8  19
ATOM     12  C   UNL     1      45.691   4.375  12.888  0.00  0.00    +0.000 A 
ATOM     13  N   UNL     1      44.968   3.243  12.999  0.00  0.00    +0.000 NA
ATOM     14  C   UNL     1      43.710   3.255  12.543  0.00  0.00    +0.000 A 
ATOM     15  N   UNL     1      43.077   4.269  11.961  0.00  0.00    +0.000 NA
ATOM     16  C   UNL     1      43.831   5.377  11.876  0.00  0.00    +0.000 A 
ATOM     17  S   UNL     1      43.192   6.769  11.142  0.00  0.00    +0.000 S 
ATOM     18  C   UNL     1      44.617   7.643  11.443  0.00  0.00    +0.000 A 
ATOM     19  C   UNL     1      45.595   6.913  12.108  0.00  0.00    +0.000 A 
ATOM     20  C   UNL     1      45.137   5.542  12.328  0.00  0.00    +0.000 A 
BRANCH  12  22
ATOM     21  C   UNL     1      47.181   4.744  14.675  0.00  0.00    +0.000 C 
ATOM     22  O   UNL     1      47.003   4.360  13.313  0.00  0.00    +0.000 OA
ENDBRANCH  12  22
ENDBRANCH   8  19
ENDBRANCH   7  10
ENDBRANCH   1   7
BRANCH   4  23
ATOM     23  C   UNL     1      49.759   7.465  19.418  0.00  0.00    +0.000 C 
BRANCH  23  24
ATOM     24  N   UNL     1      50.563   6.228  19.427  0.00  0.00    +0.000 NA
ATOM     25  C   UNL     1      51.752   6.371  20.275  0.00  0.00    +0.000 C 
BRANCH  24  26
ATOM     26  C   UNL     1      49.770   5.029  19.825  0.00  0.00    +0.000 C 
ATOM     27  C   UNL     1      48.449   5.315  20.567  0.00  0.00    +0.000 C 
BRANCH  26  28
ATOM     28  C   UNL     1      49.508   4.043  18.677  0.00  0.00    +0.000 A 
ATOM     29  C   UNL     1      50.578   3.432  18.021  0.00  0.00    +0.000 A 
ATOM     30  C   UNL     1      50.314   2.466  17.054  0.00  0.00    +0.000 A 
ATOM     31  C   UNL     1      48.997   2.148  16.746  0.00  0.00    +0.000 A 
ATOM     32  C   UNL     1      47.991   2.823  17.413  0.00  0.00    +0.000 A 
ATOM     33  N   UNL     1      48.215   3.758  18.361  0.00  0.00    +0.000 NA
ENDBRANCH  26  28
ENDBRANCH  24  26
ENDBRANCH  23  24
ENDBRANCH   4  23
TORSDOF 8
ENDMDL
