MODEL 1
REMARK VINA RESULT:    -8.890      0.000      0.000
REMARK INTER + INTRA:         -12.697
REMARK INTER:                 -12.008
REMARK INTRA:                  -0.689
REMARK UNBOUND:                -0.689
REMARK  Name = 
REMARK  6 active torsions:
REMARK  status: ('A' for Active; 'I' for Inactive)
REMARK    1  A    between atoms: C_2  and  C_4
REMARK    2  A    between atoms: N_8  and  C_9
REMARK    3  A    between atoms: C_9  and  C_10
REMARK    4  A    between atoms: C_10  and  C_11
REMARK    5  A    between atoms: C_15  and  O_16
REMARK    6  A    between atoms: O_16  and  C_17
REMARK                            x       y       z     vdW  Elec       q    Type
REMARK                         _______ _______ _______ _____ _____    ______ ____
ROOT
ATOM      1  C   UNL     1      43.353   4.502  11.202  0.00  0.00    +0.000 C 
ENDROOT
BRANCH   1   6
ATOM      2  C   UNL     1      46.483   2.551   7.702  0.00  0.00    +0.000 A 
ATOM      3  C   UNL     1      45.621   1.898   8.576  0.00  0.00    +0.000 A 
ATOM      4  C   UNL     1      44.707   2.647   9.318  0.00  0.00    +0.000 A 
ATOM      5  C   UNL     1      44.684   4.033   9.196  0.00  0.00    +0.000 A 
ATOM      6  N   UNL     1      43.752   4.834   9.838  0.00  0.00    +0.000 N 
ATOM      7  N   UNL     1      45.540   4.681   8.376  0.00  0.00    +0.000 NA
ATOM      8  C   UNL     1      46.418   3.935   7.653  0.00  0.00    +0.000 A 
ATOM      9  H   UNL     1      44.045   5.798   9.686  0.00  0.00    +0.000 HD
BRANCH   2  11
ATOM     10  N   UNL     1      48.519   2.552   6.379  0.00  0.00    +0.000 N 
ATOM     11  C   UNL     1      47.447   1.837   6.840  0.00  0.00    +0.000 C 
ATOM     12  O   UNL     1      47.318   0.649   6.578  0.00  0.00    +0.000 OA
ATOM     13  H   UNL     1      49.232   2.030   5.883  0.00  0.00    +0.000 HD
ATOM     14  H   UNL     1      48.791   3.442   6.775  0.00  0.00    +0.000 HD
ENDBRANCH   2  11
ENDBRANCH   1   6
BRANCH   1  15
ATOM     15  C   UNL     1      43.595   5.696  12.134  0.00  0.00    +0.000 C 
BRANCH  15  16
ATOM     16  C   UNL     1      44.991   5.703  12.715  0.00  0.00    +0.000 A 
ATOM     17  C   UNL     1      45.892   6.721  12.381  0.00  0.00    +0.000 A 
ATOM     18  C   UNL     1      47.176   6.734  12.931  0.00  0.00    +0.000 A 
ATOM     19  C   UNL     1      47.581   5.727  13.809  0.00  0.00    +0.000 A 
ATOM     20  C   UNL     1      46.702   4.697  14.132  0.00  0.00    +0.000 A 
ATOM     21  C   UNL     1      45.411   4.689  13.591  0.00  0.00    +0.000 A 
BRANCH  20  22
ATOM     22  O   UNL     1      46.989   3.669  14.997  0.00  0.00    +0.000 OA
BRANCH  22  23
ATOM     23  C   UNL     1      47.793   3.949  16.168  0.00  0.00    +0.000 C 
ATOM     24  C   UNL     1      48.232   2.752  17.038  0.00  0.00    +0.000 C 
ATOM     25  N   UNL     1      47.782   3.461  18.250  0.00  0.00    +0.000 NA
ATOM     26  C   UNL     1      47.003   4.394  17.417  0.00  0.00    +0.000 C 
ATOM     27  H   UNL     1      48.535   3.907  18.773  0.00  0.00    +0.000 HD
ENDBRANCH  22  23
ENDBRANCH  20  22
ENDBRANCH  15  16
ENDBRANCH   1  15
TORSDOF 6
ENDMDL
MODEL 2
REMARK VINA RESULT:    -7.640      2.710      4.392
REMARK INTER + INTRA:         -11.010
REMARK INTER:                 -10.264
REMARK INTRA:                  -0.745
REMARK UNBOUND:                -0.689
REMARK  Name = 
REMARK  6 active torsions:
REMARK  status: ('A' for Active; 'I' for Inactive)
REMARK    1  A    between atoms: C_2  and  C_4
REMARK    2  A    between atoms: N_8  and  C_9
REMARK    3  A    between atoms: C_9  and  C_10
REMARK    4  A    between atoms: C_10  and  C_11
REMARK    5  A    between atoms: C_15  and  O_16
REMARK    6  A    between atoms: O_16  and  C_17
REMARK                            x       y       z     vdW  Elec       q    Type
REMARK                         _______ _______ _______ _____ _____    ______ ____
ROOT
ATOM      1  C   UNL     1      43.210   3.891  11.256  0.00  0.00    +0.000 C 
ENDROOT
BRANCH   1   6
ATOM      2  C   UNL     1      46.414   2.931   7.428  0.00  0.00    +0.000 A 
ATOM      3  C   UNL     1      46.072   4.148   8.006  0.00  0.00    +0.000 A 
ATOM      4  C   UNL     1      45.317   4.156   9.180  0.00  0.00    +0.000 A 
ATOM      5  C   UNL     1      44.897   2.954   9.743  0.00  0.00    +0.000 A 
ATOM      6  N   UNL     1      44.217   2.881  10.949  0.00  0.00    +0.000 N 
ATOM      7  N   UNL     1      45.195   1.767   9.171  0.00  0.00    +0.000 NA
ATOM      8  C   UNL     1      45.940   1.777   8.033  0.00  0.00    +0.000 A 
ATOM      9  H   UNL     1      43.918   1.913  11.054  0.00  0.00    +0.000 HD
BRANCH   2  11
ATOM     10  N   UNL     1      48.584   2.567   6.399  0.00  0.00    +0.000 N 
ATOM     11  C   UNL     1      47.252   2.824   6.215  0.00  0.00    +0.000 C 
ATOM     12  O   UNL     1      46.775   2.923   5.093  0.00  0.00    +0.000 OA
ATOM     13  H   UNL     1      49.129   2.385   5.564  0.00  0.00    +0.000 HD
ATOM     14  H   UNL     1      48.957   2.231   7.277  0.00  0.00    +0.000 HD
ENDBRANCH   2  11
ENDBRANCH   1   6
BRANCH   1  15
ATOM     15  C   UNL     1      43.389   4.405  12.690  0.00  0.00    +0.000 C 
BRANCH  15  16
ATOM     16  C   UNL     1      44.690   5.153  12.879  0.00  0.00    +0.000 A 
ATOM     17  C   UNL     1      45.727   4.591  13.634  0.00  0.00    +0.000 A 
ATOM     18  C   UNL     1      46.933   5.277  13.794  0.00  0.00    +0.000 A 
ATOM     19  C   UNL     1      47.116   6.534  13.214  0.00  0.00    +0.000 A 
ATOM     20  C   UNL     1      46.084   7.113  12.479  0.00  0.00    +0.000 A 
ATOM     21  C   UNL     1      44.880   6.421  12.309  0.00  0.00    +0.000 A 
BRANCH  20  22
ATOM     22  O   UNL     1      46.163   8.332  11.852  0.00  0.00    +0.000 OA
BRANCH  22  23
ATOM     23  C   UNL     1      45.144   9.323  12.126  0.00  0.00    +0.000 C 
ATOM     24  C   UNL     1      44.035   9.520  11.070  0.00  0.00    +0.000 C 
ATOM     25  N   UNL     1      44.236  10.979  11.123  0.00  0.00    +0.000 NA
ATOM     26  C   UNL     1      45.535  10.778  11.790  0.00  0.00    +0.000 C 
ATOM     27  H   UNL     1      43.552  11.472  11.696  0.00  0.00    +0.000 HD
ENDBRANCH  22  23
ENDBRANCH  20  22
ENDBRANCH  15  16
ENDBRANCH   1  15
TORSDOF 6
ENDMDL
MODEL 3
REMARK VINA RESULT:    -7.512      2.068      8.117
REMARK INTER + INTRA:         -10.836
REMARK INTER:                 -10.205
REMARK INTRA:                  -0.631
REMARK UNBOUND:                -0.689
REMARK  Name = 
REMARK  6 active torsions:
REMARK  status: ('A' for Active; 'I' for Inactive)
REMARK    1  A    between atoms: C_2  and  C_4
REMARK    2  A    between atoms: N_8  and  C_9
REMARK    3  A    between atoms: C_9  and  C_10
REMARK    4  A    between atoms: C_10  and  C_11
REMARK    5  A    between atoms: C_15  and  O_16
REMARK    6  A    between atoms: O_16  and  C_17
REMARK                            x       y       z     vdW  Elec       q    Type
REMARK                         _______ _______ _______ _____ _____    ______ ____
ROOT
ATOM      1  C   UNL     1      45.709   6.258  12.526  0.00  0.00    +0.000 C 
ENDROOT
BRANCH   1   6
ATOM      2  C   UNL     1      48.197   4.415  16.559  0.00  0.00    +0.000 A 
ATOM      3  C   UNL     1      47.217   3.813  15.778  0.00  0.00    +0.000 A 
ATOM      4  C   UNL     1      46.811   4.434  14.595  0.00  0.00    +0.000 A 
ATOM      5  C   UNL     1      47.372   5.653  14.225  0.00  0.00    +0.000 A 
ATOM      6  N   UNL     1      47.079   6.287  13.026  0.00  0.00    +0.000 N 
ATOM      7  N   UNL     1      48.300   6.264  14.994  0.00  0.00    +0.000 NA
ATOM      8  C   UNL     1      48.690   5.640  16.138  0.00  0.00    +0.000 A 
ATOM      9  H   UNL     1      47.512   7.208  13.073  0.00  0.00    +0.000 HD
BRANCH   2  11
ATOM     10  N   UNL     1      48.133   4.180  18.975  0.00  0.00    +0.000 N 
ATOM     11  C   UNL     1      48.723   3.806  17.798  0.00  0.00    +0.000 C 
ATOM     12  O   UNL     1      49.620   2.975  17.776  0.00  0.00    +0.000 OA
ATOM     13  H   UNL     1      48.422   3.677  19.806  0.00  0.00    +0.000 HD
ATOM     14  H   UNL     1      47.241   4.655  19.010  0.00  0.00    +0.000 HD
ENDBRANCH   2  11
ENDBRANCH   1   6
BRANCH   1  15
ATOM     15  C   UNL     1      45.700   6.307  10.993  0.00  0.00    +0.000 C 
BRANCH  15  16
ATOM     16  C   UNL     1      45.294   4.989  10.374  0.00  0.00    +0.000 A 
ATOM     17  C   UNL     1      44.582   4.044  11.123  0.00  0.00    +0.000 A 
ATOM     18  C   UNL     1      44.194   2.833  10.544  0.00  0.00    +0.000 A 
ATOM     19  C   UNL     1      44.521   2.545   9.218  0.00  0.00    +0.000 A 
ATOM     20  C   UNL     1      45.247   3.467   8.468  0.00  0.00    +0.000 A 
ATOM     21  C   UNL     1      45.626   4.686   9.044  0.00  0.00    +0.000 A 
BRANCH  20  22
ATOM     22  O   UNL     1      45.604   3.295   7.154  0.00  0.00    +0.000 OA
BRANCH  22  23
ATOM     23  C   UNL     1      47.006   3.133   6.829  0.00  0.00    +0.000 C 
ATOM     24  C   UNL     1      47.370   2.839   5.358  0.00  0.00    +0.000 C 
ATOM     25  N   UNL     1      48.237   1.727   5.789  0.00  0.00    +0.000 NA
ATOM     26  C   UNL     1      47.588   1.732   7.112  0.00  0.00    +0.000 C 
ATOM     27  H   UNL     1      49.229   1.962   5.817  0.00  0.00    +0.000 HD
ENDBRANCH  22  23
ENDBRANCH  20  22
ENDBRANCH  15  16
ENDBRANCH   1  15
TORSDOF 6
ENDMDL
MODEL 4
REMARK VINA RESULT:    -7.356      1.960      2.415
REMARK INTER + INTRA:         -10.626
REMARK INTER:                  -9.920
REMARK INTRA:                  -0.706
REMARK UNBOUND:                -0.689
REMARK  Name = 
REMARK  6 active torsions:
REMARK  status: ('A' for Active; 'I' for Inactive)
REMARK    1  A    between atoms: C_2  and  C_4
REMARK    2  A    between atoms: N_8  and  C_9
REMARK    3  A    between atoms: C_9  and  C_10
REMARK    4  A    between atoms: C_10  and  C_11
REMARK    5  A    between atoms: C_15  and  O_16
REMARK    6  A    between atoms: O_16  and  C_17
REMARK                            x       y       z     vdW  Elec       q    Type
REMARK                         _______ _______ _______ _____ _____    ______ ____
ROOT
ATOM      1  C   UNL     1      43.314   4.727  10.736  0.00  0.00    +0.000 C 
ENDROOT
BRANCH   1   6
ATOM      2  C   UNL     1      46.606   2.727   7.418  0.00  0.00    +0.000 A 
ATOM      3  C   UNL     1      46.343   4.062   7.702  0.00  0.00    +0.000 A 
ATOM      4  C   UNL     1      45.536   4.380   8.795  0.00  0.00    +0.000 A 
ATOM      5  C   UNL     1      44.986   3.363   9.570  0.00  0.00    +0.000 A 
ATOM      6  N   UNL     1      44.243   3.602  10.717  0.00  0.00    +0.000 N 
ATOM      7  N   UNL     1      45.207   2.061   9.283  0.00  0.00    +0.000 NA
ATOM      8  C   UNL     1      46.004   1.770   8.219  0.00  0.00    +0.000 A 
ATOM      9  H   UNL     1      43.856   2.705  11.003  0.00  0.00    +0.000 HD
BRANCH   2  11
ATOM     10  N   UNL     1      47.398   2.995   5.138  0.00  0.00    +0.000 N 
ATOM     11  C   UNL     1      47.490   2.299   6.313  0.00  0.00    +0.000 C 
ATOM     12  O   UNL     1      48.297   1.390   6.450  0.00  0.00    +0.000 OA
ATOM     13  H   UNL     1      48.082   2.770   4.424  0.00  0.00    +0.000 HD
ATOM     14  H   UNL     1      46.941   3.894   5.071  0.00  0.00    +0.000 HD
ENDBRANCH   2  11
ENDBRANCH   1   6
BRANCH   1  15
ATOM     15  C   UNL     1      43.364   5.437  12.095  0.00  0.00    +0.000 C 
BRANCH  15  16
ATOM     16  C   UNL     1      44.613   6.270  12.267  0.00  0.00    +0.000 A 
ATOM     17  C   UNL     1      44.735   7.506  11.620  0.00  0.00    +0.000 A 
ATOM     18  C   UNL     1      45.884   8.282  11.792  0.00  0.00    +0.000 A 
ATOM     19  C   UNL     1      46.929   7.831  12.601  0.00  0.00    +0.000 A 
ATOM     20  C   UNL     1      46.829   6.594  13.233  0.00  0.00    +0.000 A 
ATOM     21  C   UNL     1      45.673   5.821  13.070  0.00  0.00    +0.000 A 
BRANCH  20  22
ATOM     22  O   UNL     1      47.786   6.063  14.063  0.00  0.00    +0.000 OA
BRANCH  22  23
ATOM     23  C   UNL     1      48.498   6.949  14.961  0.00  0.00    +0.000 C 
ATOM     24  C   UNL     1      49.957   7.305  14.606  0.00  0.00    +0.000 C 
ATOM     25  N   UNL     1      50.374   6.991  15.985  0.00  0.00    +0.000 NA
ATOM     26  C   UNL     1      49.107   6.271  16.206  0.00  0.00    +0.000 C 
ATOM     27  H   UNL     1      50.491   7.811  16.580  0.00  0.00    +0.000 HD
ENDBRANCH  22  23
ENDBRANCH  20  22
ENDBRANCH  15  16
ENDBRANCH   1  15
TORSDOF 6
ENDMDL
MODEL 5
REMARK VINA RESULT:    -6.785      2.776      7.426
REMARK INTER + INTRA:          -9.854
REMARK INTER:                  -9.859
REMARK INTRA:                   0.005
REMARK UNBOUND:                -0.689
REMARK  Name = 
REMARK  6 active torsions:
REMARK  status: ('A' for Active; 'I' for Inactive)
REMARK    1  A    between atoms: C_2  and  C_4
REMARK    2  A    between atoms: N_8  and  C_9
REMARK    3  A    between atoms: C_9  and  C_10
REMARK    4  A    between atoms: C_10  and  C_11
REMARK    5  A    between atoms: C_15  and  O_16
REMARK    6  A    between atoms: O_16  and  C_17
REMARK                            x       y       z     vdW  Elec       q    Type
REMARK                         _______ _______ _______ _____ _____    ______ ____
ROOT
ATOM      1  C   UNL     1      43.042   5.327  12.228  0.00  0.00    +0.000 C 
ENDROOT
BRANCH   1   6
ATOM      2  C   UNL     1      47.629   7.291  13.202  0.00  0.00    +0.000 A 
ATOM      3  C   UNL     1      46.456   7.936  12.830  0.00  0.00    +0.000 A 
ATOM      4  C   UNL     1      45.260   7.216  12.806  0.00  0.00    +0.000 A 
ATOM      5  C   UNL     1      45.260   5.862  13.128  0.00  0.00    +0.000 A 
ATOM      6  N   UNL     1      44.101   5.103  13.206  0.00  0.00    +0.000 N 
ATOM      7  N   UNL     1      46.400   5.217  13.458  0.00  0.00    +0.000 NA
ATOM      8  C   UNL     1      47.554   5.936  13.486  0.00  0.00    +0.000 A 
ATOM      9  H   UNL     1      44.397   4.136  13.323  0.00  0.00    +0.000 HD
BRANCH   2  11
ATOM     10  N   UNL     1      50.040   7.286  12.913  0.00  0.00    +0.000 N 
ATOM     11  C   UNL     1      48.930   7.984  13.304  0.00  0.00    +0.000 C 
ATOM     12  O   UNL     1      49.013   9.144  13.685  0.00  0.00    +0.000 OA
ATOM     13  H   UNL     1      50.912   7.803  12.881  0.00  0.00    +0.000 HD
ATOM     14  H   UNL     1      49.985   6.440  12.363  0.00  0.00    +0.000 HD
ENDBRANCH   2  11
ENDBRANCH   1   6
BRANCH   1  15
ATOM     15  C   UNL     1      43.644   5.641  10.853  0.00  0.00    +0.000 C 
BRANCH  15  16
ATOM     16  C   UNL     1      44.131   4.400  10.138  0.00  0.00    +0.000 A 
ATOM     17  C   UNL     1      43.800   3.128  10.621  0.00  0.00    +0.000 A 
ATOM     18  C   UNL     1      44.238   1.984   9.951  0.00  0.00    +0.000 A 
ATOM     19  C   UNL     1      45.021   2.093   8.800  0.00  0.00    +0.000 A 
ATOM     20  C   UNL     1      45.376   3.352   8.322  0.00  0.00    +0.000 A 
ATOM     21  C   UNL     1      44.927   4.499   8.986  0.00  0.00    +0.000 A 
BRANCH  20  22
ATOM     22  O   UNL     1      46.124   3.574   7.192  0.00  0.00    +0.000 OA
BRANCH  22  23
ATOM     23  C   UNL     1      46.663   2.435   6.478  0.00  0.00    +0.000 C 
ATOM     24  C   UNL     1      48.009   1.856   6.965  0.00  0.00    +0.000 C 
ATOM     25  N   UNL     1      48.517   1.862   5.581  0.00  0.00    +0.000 NA
ATOM     26  C   UNL     1      47.430   2.775   5.183  0.00  0.00    +0.000 C 
ATOM     27  H   UNL     1      48.478   0.952   5.121  0.00  0.00    +0.000 HD
ENDBRANCH  22  23
ENDBRANCH  20  22
ENDBRANCH  15  16
ENDBRANCH   1  15
TORSDOF 6
ENDMDL
MODEL 6
REMARK VINA RESULT:    -6.642      3.739      7.906
REMARK INTER + INTRA:          -9.661
REMARK INTER:                  -9.202
REMARK INTRA:                  -0.460
REMARK UNBOUND:                -0.689
REMARK  Name = 
REMARK  6 active torsions:
REMARK  status: ('A' for Active; 'I' for Inactive)
REMARK    1  A    between atoms: C_2  and  C_4
REMARK    2  A    between atoms: N_8  and  C_9
REMARK    3  A    between atoms: C_9  and  C_10
REMARK    4  A    between atoms: C_10  and  C_11
REMARK    5  A    between atoms: C_15  and  O_16
REMARK    6  A    between atoms: O_16  and  C_17
REMARK                            x       y       z     vdW  Elec       q    Type
REMARK                         _______ _______ _______ _____ _____    ______ ____
ROOT
ATOM      1  C   UNL     1      46.110   6.109  12.398  0.00  0.00    +0.000 C 
ENDROOT
BRANCH   1   6
ATOM      2  C   UNL     1      50.619   8.441  12.674  0.00  0.00    +0.000 A 
ATOM      3  C   UNL     1      50.078   7.690  11.637  0.00  0.00    +0.000 A 
ATOM      4  C   UNL     1      48.737   7.306  11.702  0.00  0.00    +0.000 A 
ATOM      5  C   UNL     1      47.968   7.657  12.807  0.00  0.00    +0.000 A 
ATOM      6  N   UNL     1      46.611   7.383  12.902  0.00  0.00    +0.000 N 
ATOM      7  N   UNL     1      48.492   8.358  13.836  0.00  0.00    +0.000 NA
ATOM      8  C   UNL     1      49.798   8.732  13.752  0.00  0.00    +0.000 A 
ATOM      9  H   UNL     1      46.334   7.622  13.853  0.00  0.00    +0.000 HD
BRANCH   2  11
ATOM     10  N   UNL     1      53.002   8.000  12.524  0.00  0.00    +0.000 N 
ATOM     11  C   UNL     1      52.012   8.934  12.667  0.00  0.00    +0.000 C 
ATOM     12  O   UNL     1      52.273  10.126  12.747  0.00  0.00    +0.000 OA
ATOM     13  H   UNL     1      53.945   8.354  12.409  0.00  0.00    +0.000 HD
ATOM     14  H   UNL     1      52.820   7.058  12.204  0.00  0.00    +0.000 HD
ENDBRANCH   2  11
ENDBRANCH   1   6
BRANCH   1  15
ATOM     15  C   UNL     1      45.541   6.282  10.984  0.00  0.00    +0.000 C 
BRANCH  15  16
ATOM     16  C   UNL     1      45.195   4.961  10.335  0.00  0.00    +0.000 A 
ATOM     17  C   UNL     1      44.486   3.986  11.047  0.00  0.00    +0.000 A 
ATOM     18  C   UNL     1      44.153   2.773  10.440  0.00  0.00    +0.000 A 
ATOM     19  C   UNL     1      44.532   2.512   9.122  0.00  0.00    +0.000 A 
ATOM     20  C   UNL     1      45.256   3.465   8.410  0.00  0.00    +0.000 A 
ATOM     21  C   UNL     1      45.580   4.685   9.013  0.00  0.00    +0.000 A 
BRANCH  20  22
ATOM     22  O   UNL     1      45.663   3.320   7.106  0.00  0.00    +0.000 OA
BRANCH  22  23
ATOM     23  C   UNL     1      47.071   3.125   6.833  0.00  0.00    +0.000 C 
ATOM     24  C   UNL     1      47.485   2.840   5.374  0.00  0.00    +0.000 C 
ATOM     25  N   UNL     1      48.305   1.701   5.823  0.00  0.00    +0.000 NA
ATOM     26  C   UNL     1      47.605   1.706   7.120  0.00  0.00    +0.000 C 
ATOM     27  H   UNL     1      49.301   1.909   5.893  0.00  0.00    +0.000 HD
ENDBRANCH  22  23
ENDBRANCH  20  22
ENDBRANCH  15  16
ENDBRANCH   1  15
TORSDOF 6
ENDMDL
MODEL 7
REMARK VINA RESULT:    -6.614      2.751      8.322
REMARK INTER + INTRA:          -9.624
REMARK INTER:                  -9.425
REMARK INTRA:                  -0.198
REMARK UNBOUND:                -0.689
REMARK  Name = 
REMARK  6 active torsions:
REMARK  status: ('A' for Active; 'I' for Inactive)
REMARK    1  A    between atoms: C_2  and  C_4
REMARK    2  A    between atoms: N_8  and  C_9
REMARK    3  A    between atoms: C_9  and  C_10
REMARK    4  A    between atoms: C_10  and  C_11
REMARK    5  A    between atoms: C_15  and  O_16
REMARK    6  A    between atoms: O_16  and  C_17
REMARK                            x       y       z     vdW  Elec       q    Type
REMARK                         _______ _______ _______ _____ _____    ______ ____
ROOT
ATOM      1  C   UNL     1      46.778   4.396  15.186  0.00  0.00    +0.000 C 
ENDROOT
BRANCH   1   6
ATOM      2  C   UNL     1      51.012   2.880  17.557  0.00  0.00    +0.000 A 
ATOM      3  C   UNL     1      50.370   4.112  17.602  0.00  0.00    +0.000 A 
ATOM      4  C   UNL     1      49.107   4.244  17.023  0.00  0.00    +0.000 A 
ATOM      5  C   UNL     1      48.517   3.154  16.389  0.00  0.00    +0.000 A 
ATOM      6  N   UNL     1      47.234   3.188  15.865  0.00  0.00    +0.000 N 
ATOM      7  N   UNL     1      49.146   1.961  16.310  0.00  0.00    +0.000 NA
ATOM      8  C   UNL     1      50.372   1.848  16.889  0.00  0.00    +0.000 A 
ATOM      9  H   UNL     1      47.109   2.318  15.350  0.00  0.00    +0.000 HD
BRANCH   2  11
ATOM     10  N   UNL     1      52.672   1.330  18.416  0.00  0.00    +0.000 N 
ATOM     11  C   UNL     1      52.325   2.634  18.188  0.00  0.00    +0.000 C 
ATOM     12  O   UNL     1      53.090   3.550  18.460  0.00  0.00    +0.000 OA
ATOM     13  H   UNL     1      53.617   1.164  18.744  0.00  0.00    +0.000 HD
ATOM     14  H   UNL     1      52.193   0.555  17.979  0.00  0.00    +0.000 HD
ENDBRANCH   2  11
ENDBRANCH   1   6
BRANCH   1  15
ATOM     15  C   UNL     1      46.948   4.252  13.669  0.00  0.00    +0.000 C 
BRANCH  15  16
ATOM     16  C   UNL     1      45.630   4.317  12.929  0.00  0.00    +0.000 A 
ATOM     17  C   UNL     1      44.715   5.340  13.203  0.00  0.00    +0.000 A 
ATOM     18  C   UNL     1      43.505   5.408  12.508  0.00  0.00    +0.000 A 
ATOM     19  C   UNL     1      43.188   4.450  11.543  0.00  0.00    +0.000 A 
ATOM     20  C   UNL     1      44.080   3.414  11.277  0.00  0.00    +0.000 A 
ATOM     21  C   UNL     1      45.298   3.353  11.964  0.00  0.00    +0.000 A 
BRANCH  20  22
ATOM     22  O   UNL     1      43.879   2.433  10.338  0.00  0.00    +0.000 OA
BRANCH  22  23
ATOM     23  C   UNL     1      44.308   2.674   8.976  0.00  0.00    +0.000 C 
ATOM     24  C   UNL     1      45.695   2.139   8.558  0.00  0.00    +0.000 C 
ATOM     25  N   UNL     1      46.030   3.450   7.973  0.00  0.00    +0.000 NA
ATOM     26  C   UNL     1      44.917   4.068   8.716  0.00  0.00    +0.000 C 
ATOM     27  H   UNL     1      45.922   3.492   6.960  0.00  0.00    +0.000 HD
ENDBRANCH  22  23
ENDBRANCH  20  22
ENDBRANCH  15  16
ENDBRANCH   1  15
TORSDOF 6
ENDMDL
MODEL 8
REMARK VINA RESULT:    -6.482      3.005      4.239
REMARK INTER + INTRA:          -9.446
REMARK INTER:                  -8.685
REMARK INTRA:                  -0.760
REMARK UNBOUND:                -0.689
REMARK  Name = 
REMARK  6 active torsions:
REMARK  status: ('A' for Active; 'I' for Inactive)
REMARK    1  A    between atoms: C_2  and  C_4
REMARK    2  A    between atoms: N_8  and  C_9
REMARK    3  A    between atoms: C_9  and  C_10
REMARK    4  A    between atoms: C_10  and  C_11
REMARK    5  A    between atoms: C_15  and  O_16
REMARK    6  A    between atoms: O_16  and  C_17
REMARK                            x       y       z     vdW  Elec       q    Type
REMARK                         _______ _______ _______ _____ _____    ______ ____
ROOT
ATOM      1  C   UNL     1      46.246   8.469  13.306  0.00  0.00    +0.000 C 
ENDROOT
BRANCH   1   6
ATOM      2  C   UNL     1      44.192   4.166  11.541  0.00  0.00    +0.000 A 
ATOM      3  C   UNL     1      44.765   4.425  12.781  0.00  0.00    +0.000 A 
ATOM      4  C   UNL     1      45.089   5.740  13.120  0.00  0.00    +0.000 A 
ATOM      5  C   UNL     1      44.860   6.768  12.210  0.00  0.00    +0.000 A 
ATOM      6  N   UNL     1      45.080   8.105  12.508  0.00  0.00    +0.000 N 
ATOM      7  N   UNL     1      44.336   6.523  10.989  0.00  0.00    +0.000 NA
ATOM      8  C   UNL     1      44.017   5.238  10.679  0.00  0.00    +0.000 A 
ATOM      9  H   UNL     1      44.964   8.618  11.636  0.00  0.00    +0.000 HD
BRANCH   2  11
ATOM     10  N   UNL     1      44.410   2.274  10.034  0.00  0.00    +0.000 N 
ATOM     11  C   UNL     1      43.770   2.815  11.117  0.00  0.00    +0.000 C 
ATOM     12  O   UNL     1      42.915   2.188  11.726  0.00  0.00    +0.000 OA
ATOM     13  H   UNL     1      44.194   1.308   9.818  0.00  0.00    +0.000 HD
ATOM     14  H   UNL     1      45.278   2.646   9.673  0.00  0.00    +0.000 HD
ENDBRANCH   2  11
ENDBRANCH   1   6
BRANCH   1  15
ATOM     15  C   UNL     1      47.528   7.944  12.648  0.00  0.00    +0.000 C 
BRANCH  15  16
ATOM     16  C   UNL     1      48.618   7.651  13.655  0.00  0.00    +0.000 A 
ATOM     17  C   UNL     1      49.805   8.394  13.650  0.00  0.00    +0.000 A 
ATOM     18  C   UNL     1      50.804   8.133  14.591  0.00  0.00    +0.000 A 
ATOM     19  C   UNL     1      50.637   7.121  15.539  0.00  0.00    +0.000 A 
ATOM     20  C   UNL     1      49.470   6.361  15.541  0.00  0.00    +0.000 A 
ATOM     21  C   UNL     1      48.464   6.631  14.606  0.00  0.00    +0.000 A 
BRANCH  20  22
ATOM     22  O   UNL     1      49.194   5.359  16.438  0.00  0.00    +0.000 OA
BRANCH  22  23
ATOM     23  C   UNL     1      47.866   4.782  16.452  0.00  0.00    +0.000 C 
ATOM     24  C   UNL     1      47.165   4.632  17.819  0.00  0.00    +0.000 C 
ATOM     25  N   UNL     1      46.823   3.235  17.496  0.00  0.00    +0.000 NA
ATOM     26  C   UNL     1      47.819   3.240  16.409  0.00  0.00    +0.000 C 
ATOM     27  H   UNL     1      45.864   3.107  17.174  0.00  0.00    +0.000 HD
ENDBRANCH  22  23
ENDBRANCH  20  22
ENDBRANCH  15  16
ENDBRANCH   1  15
TORSDOF 6
ENDMDL
MODEL 9
REMARK VINA RESULT:    -6.321      4.106      5.786
REMARK INTER + INTRA:          -9.228
REMARK INTER:                  -8.422
REMARK INTRA:                  -0.806
REMARK UNBOUND:                -0.689
REMARK  Name = 
REMARK  6 active torsions:
REMARK  status: ('A' for Active; 'I' for Inactive)
REMARK    1  A    between atoms: C_2  and  C_4
REMARK    2  A    between atoms: N_8  and  C_9
REMARK    3  A    between atoms: C_9  and  C_10
REMARK    4  A    between atoms: C_10  and  C_11
REMARK    5  A    between atoms: C_15  and  O_16
REMARK    6  A    between atoms: O_16  and  C_17
REMARK                            x       y       z     vdW  Elec       q    Type
REMARK                         _______ _______ _______ _____ _____    ______ ____
ROOT
ATOM      1  C   UNL     1      49.348   8.130  12.987  0.00  0.00    +0.000 C 
ENDROOT
BRANCH   1   6
ATOM      2  C   UNL     1      45.109   5.325  13.085  0.00  0.00    +0.000 A 
ATOM      3  C   UNL     1      45.306   6.606  12.582  0.00  0.00    +0.000 A 
ATOM      4  C   UNL     1      46.606   7.106  12.483  0.00  0.00    +0.000 A 
ATOM      5  C   UNL     1      47.681   6.332  12.910  0.00  0.00    +0.000 A 
ATOM      6  N   UNL     1      49.003   6.730  12.767  0.00  0.00    +0.000 N 
ATOM      7  N   UNL     1      47.498   5.100  13.432  0.00  0.00    +0.000 NA
ATOM      8  C   UNL     1      46.226   4.624  13.512  0.00  0.00    +0.000 A 
ATOM      9  H   UNL     1      49.565   6.051  13.278  0.00  0.00    +0.000 HD
BRANCH   2  11
ATOM     10  N   UNL     1      42.689   5.512  13.026  0.00  0.00    +0.000 N 
ATOM     11  C   UNL     1      43.776   4.695  13.177  0.00  0.00    +0.000 C 
ATOM     12  O   UNL     1      43.643   3.490  13.344  0.00  0.00    +0.000 OA
ATOM     13  H   UNL     1      41.784   5.058  12.979  0.00  0.00    +0.000 HD
ATOM     14  H   UNL     1      42.758   6.444  12.638  0.00  0.00    +0.000 HD
ENDBRANCH   2  11
ENDBRANCH   1   6
BRANCH   1  15
ATOM     15  C   UNL     1      49.238   8.479  14.476  0.00  0.00    +0.000 C 
BRANCH  15  16
ATOM     16  C   UNL     1      50.061   7.559  15.349  0.00  0.00    +0.000 A 
ATOM     17  C   UNL     1      51.459   7.622  15.325  0.00  0.00    +0.000 A 
ATOM     18  C   UNL     1      52.217   6.782  16.144  0.00  0.00    +0.000 A 
ATOM     19  C   UNL     1      51.592   5.860  16.986  0.00  0.00    +0.000 A 
ATOM     20  C   UNL     1      50.202   5.772  17.003  0.00  0.00    +0.000 A 
ATOM     21  C   UNL     1      49.442   6.622  16.192  0.00  0.00    +0.000 A 
BRANCH  20  22
ATOM     22  O   UNL     1      49.485   4.918  17.804  0.00  0.00    +0.000 OA
BRANCH  22  23
ATOM     23  C   UNL     1      48.588   3.967  17.182  0.00  0.00    +0.000 C 
ATOM     24  C   UNL     1      47.082   4.305  17.169  0.00  0.00    +0.000 C 
ATOM     25  N   UNL     1      46.770   2.953  17.668  0.00  0.00    +0.000 NA
ATOM     26  C   UNL     1      48.176   2.774  18.070  0.00  0.00    +0.000 C 
ATOM     27  H   UNL     1      46.463   2.304  16.944  0.00  0.00    +0.000 HD
ENDBRANCH  22  23
ENDBRANCH  20  22
ENDBRANCH  15  16
ENDBRANCH   1  15
TORSDOF 6
ENDMDL
