MODEL 1
REMARK VINA RESULT:    -7.526      0.000      0.000
REMARK INTER + INTRA:          -9.662
REMARK INTER:                  -9.286
REMARK INTRA:                  -0.376
REMARK UNBOUND:                -0.376
REMARK  Name = 
REMARK  4 active torsions:
REMARK  status: ('A' for Active; 'I' for Inactive)
REMARK    1  A    between atoms: C_2  and  C_4
REMARK    2  A    between atoms: C_7  and  S_8
REMARK    3  A    between atoms: S_8  and  C_9
REMARK    4  A    between atoms: C_9  and  C_10
REMARK                            x       y       z     vdW  Elec       q    Type
REMARK                         _______ _______ _______ _____ _____    ______ ____
ROOT
ATOM      1  C   UNL     1      46.629   4.770  13.966  0.00  0.00    +0.000 A 
ATOM      2  C   UNL     1      46.454   5.925  13.215  0.00  0.00    +0.000 A 
ATOM      3  C   UNL     1      45.663   5.860  12.065  0.00  0.00    +0.000 A 
ATOM      4  C   UNL     1      45.072   4.653  11.691  0.00  0.00    +0.000 A 
ATOM      5  C   UNL     1      45.304   3.554  12.523  0.00  0.00    +0.000 A 
ATOM      6  N   UNL     1      46.070   3.572  13.644  0.00  0.00    +0.000 NA
ENDROOT
BRANCH   1   8
ATOM      7  N   UNL     1      47.178   3.867  16.149  0.00  0.00    +0.000 N 
ATOM      8  C   UNL     1      47.469   4.813  15.206  0.00  0.00    +0.000 C 
ATOM      9  O   UNL     1      48.362   5.635  15.370  0.00  0.00    +0.000 OA
ATOM     10  H   UNL     1      47.707   3.835  17.008  0.00  0.00    +0.000 HD
ATOM     11  H   UNL     1      46.432   3.200  15.978  0.00  0.00    +0.000 HD
ENDBRANCH   1   8
BRANCH   4  12
ATOM     12  S   UNL     1      43.994   4.451  10.286  0.00  0.00    +0.000 S 
BRANCH  12  13
ATOM     13  C   UNL     1      44.256   2.706   9.816  0.00  0.00    +0.000 C 
BRANCH  13  14
ATOM     14  C   UNL     1      45.248   2.589   8.681  0.00  0.00    +0.000 A 
ATOM     15  C   UNL     1      45.516   3.695   7.858  0.00  0.00    +0.000 A 
ATOM     16  C   UNL     1      46.425   3.589   6.801  0.00  0.00    +0.000 A 
ATOM     17  C   UNL     1      47.069   2.379   6.559  0.00  0.00    +0.000 A 
ATOM     18 CL   UNL     1      48.188   2.250   5.259  0.00  0.00    +0.000 Cl
ATOM     19  C   UNL     1      46.809   1.270   7.363  0.00  0.00    +0.000 A 
ATOM     20  C   UNL     1      45.899   1.374   8.418  0.00  0.00    +0.000 A 
ENDBRANCH  13  14
ENDBRANCH  12  13
ENDBRANCH   4  12
TORSDOF 4
ENDMDL
MODEL 2
REMARK VINA RESULT:    -7.450      4.094      6.584
REMARK INTER + INTRA:          -9.568
REMARK INTER:                  -9.145
REMARK INTRA:                  -0.423
REMARK UNBOUND:                -0.376
REMARK  Name = 
REMARK  4 active torsions:
REMARK  status: ('A' for Active; 'I' for Inactive)
REMARK    1  A    between atoms: C_2  and  C_4
REMARK    2  A    between atoms: C_7  and  S_8
REMARK    3  A    between atoms: S_8  and  C_9
REMARK    4  A    between atoms: C_9  and  C_10
REMARK                            x       y       z     vdW  Elec       q    Type
REMARK                         _______ _______ _______ _____ _____    ______ ____
ROOT
ATOM      1  C   UNL     1      46.405   2.303   7.810  0.00  0.00    +0.000 A 
ATOM      2  C   UNL     1      46.413   3.677   7.612  0.00  0.00    +0.000 A 
ATOM      3  C   UNL     1      45.564   4.469   8.387  0.00  0.00    +0.000 A 
ATOM      4  C   UNL     1      44.728   3.877   9.334  0.00  0.00    +0.000 A 
ATOM      5  C   UNL     1      44.805   2.487   9.461  0.00  0.00    +0.000 A 
ATOM      6  N   UNL     1      45.611   1.680   8.723  0.00  0.00    +0.000 NA
ENDROOT
BRANCH   1   8
ATOM      7  N   UNL     1      48.355   2.067   6.388  0.00  0.00    +0.000 N 
ATOM      8  C   UNL     1      47.309   1.430   6.995  0.00  0.00    +0.000 C 
ATOM      9  O   UNL     1      47.131   0.223   6.877  0.00  0.00    +0.000 OA
ATOM     10  H   UNL     1      49.006   1.540   5.826  0.00  0.00    +0.000 HD
ATOM     11  H   UNL     1      48.473   3.068   6.510  0.00  0.00    +0.000 HD
ENDBRANCH   1   8
BRANCH   4  12
ATOM     12  S   UNL     1      43.645   4.779  10.427  0.00  0.00    +0.000 S 
BRANCH  12  13
ATOM     13  C   UNL     1      44.236   4.286  12.084  0.00  0.00    +0.000 C 
BRANCH  13  14
ATOM     14  C   UNL     1      45.507   5.018  12.450  0.00  0.00    +0.000 A 
ATOM     15  C   UNL     1      46.232   4.649  13.595  0.00  0.00    +0.000 A 
ATOM     16  C   UNL     1      47.403   5.328  13.945  0.00  0.00    +0.000 A 
ATOM     17  C   UNL     1      47.854   6.382  13.153  0.00  0.00    +0.000 A 
ATOM     18 CL   UNL     1      49.295   7.217  13.583  0.00  0.00    +0.000 Cl
ATOM     19  C   UNL     1      47.142   6.765  12.018  0.00  0.00    +0.000 A 
ATOM     20  C   UNL     1      45.971   6.087  11.670  0.00  0.00    +0.000 A 
ENDBRANCH  13  14
ENDBRANCH  12  13
ENDBRANCH   4  12
TORSDOF 4
ENDMDL
MODEL 3
REMARK VINA RESULT:    -7.140      1.804      2.219
REMARK INTER + INTRA:          -9.186
REMARK INTER:                  -8.675
REMARK INTRA:                  -0.510
REMARK UNBOUND:                -0.376
REMARK  Name = 
REMARK  4 active torsions:
REMARK  status: ('A' for Active; 'I' for Inactive)
REMARK    1  A    between atoms: C_2  and  C_4
REMARK    2  A    between atoms: C_7  and  S_8
REMARK    3  A    between atoms: S_8  and  C_9
REMARK    4  A    between atoms: C_9  and  C_10
REMARK                            x       y       z     vdW  Elec       q    Type
REMARK                         _______ _______ _______ _____ _____    ______ ____
ROOT
ATOM      1  C   UNL     1      47.671   6.163  13.376  0.00  0.00    +0.000 A 
ATOM      2  C   UNL     1      46.893   6.664  12.340  0.00  0.00    +0.000 A 
ATOM      3  C   UNL     1      45.832   5.889  11.867  0.00  0.00    +0.000 A 
ATOM      4  C   UNL     1      45.574   4.639  12.431  0.00  0.00    +0.000 A 
ATOM      5  C   UNL     1      46.411   4.235  13.475  0.00  0.00    +0.000 A 
ATOM      6  N   UNL     1      47.457   4.953  13.960  0.00  0.00    +0.000 NA
ENDROOT
BRANCH   1   8
ATOM      7  N   UNL     1      49.833   7.206  13.022  0.00  0.00    +0.000 N 
ATOM      8  C   UNL     1      48.814   6.975  13.905  0.00  0.00    +0.000 C 
ATOM      9  O   UNL     1      48.839   7.411  15.049  0.00  0.00    +0.000 OA
ATOM     10  H   UNL     1      50.632   7.750  13.310  0.00  0.00    +0.000 HD
ATOM     11  H   UNL     1      49.776   6.831  12.080  0.00  0.00    +0.000 HD
ENDBRANCH   1   8
BRANCH   4  12
ATOM     12  S   UNL     1      44.217   3.582  11.963  0.00  0.00    +0.000 S 
BRANCH  12  13
ATOM     13  C   UNL     1      43.843   4.128  10.260  0.00  0.00    +0.000 C 
BRANCH  13  14
ATOM     14  C   UNL     1      44.829   3.549   9.272  0.00  0.00    +0.000 A 
ATOM     15  C   UNL     1      45.063   2.165   9.232  0.00  0.00    +0.000 A 
ATOM     16  C   UNL     1      45.982   1.625   8.327  0.00  0.00    +0.000 A 
ATOM     17  C   UNL     1      46.674   2.466   7.459  0.00  0.00    +0.000 A 
ATOM     18 CL   UNL     1      47.804   1.801   6.345  0.00  0.00    +0.000 Cl
ATOM     19  C   UNL     1      46.460   3.842   7.491  0.00  0.00    +0.000 A 
ATOM     20  C   UNL     1      45.543   4.383   8.397  0.00  0.00    +0.000 A 
ENDBRANCH  13  14
ENDBRANCH  12  13
ENDBRANCH   4  12
TORSDOF 4
ENDMDL
MODEL 4
REMARK VINA RESULT:    -6.636      1.294      2.049
REMARK INTER + INTRA:          -8.563
REMARK INTER:                  -8.109
REMARK INTRA:                  -0.454
REMARK UNBOUND:                -0.376
REMARK  Name = 
REMARK  4 active torsions:
REMARK  status: ('A' for Active; 'I' for Inactive)
REMARK    1  A    between atoms: C_2  and  C_4
REMARK    2  A    between atoms: C_7  and  S_8
REMARK    3  A    between atoms: S_8  and  C_9
REMARK    4  A    between atoms: C_9  and  C_10
REMARK                            x       y       z     vdW  Elec       q    Type
REMARK                         _______ _______ _______ _____ _____    ______ ____
ROOT
ATOM      1  C   UNL     1      47.114   4.671  14.749  0.00  0.00    +0.000 A 
ATOM      2  C   UNL     1      46.326   3.769  14.046  0.00  0.00    +0.000 A 
ATOM      3  C   UNL     1      45.733   4.188  12.853  0.00  0.00    +0.000 A 
ATOM      4  C   UNL     1      45.935   5.489  12.393  0.00  0.00    +0.000 A 
ATOM      5  C   UNL     1      46.754   6.312  13.170  0.00  0.00    +0.000 A 
ATOM      6  N   UNL     1      47.343   5.947  14.338  0.00  0.00    +0.000 NA
ENDROOT
BRANCH   1   8
ATOM      7  N   UNL     1      47.022   3.416  16.822  0.00  0.00    +0.000 N 
ATOM      8  C   UNL     1      47.765   4.246  16.030  0.00  0.00    +0.000 C 
ATOM      9  O   UNL     1      48.890   4.611  16.351  0.00  0.00    +0.000 OA
ATOM     10  H   UNL     1      47.401   3.087  17.698  0.00  0.00    +0.000 HD
ATOM     11  H   UNL     1      46.095   3.132  16.523  0.00  0.00    +0.000 HD
ENDBRANCH   1   8
BRANCH   4  12
ATOM     12  S   UNL     1      45.287   6.127  10.858  0.00  0.00    +0.000 S 
BRANCH  12  13
ATOM     13  C   UNL     1      44.262   4.747  10.242  0.00  0.00    +0.000 C 
BRANCH  13  14
ATOM     14  C   UNL     1      45.042   3.871   9.288  0.00  0.00    +0.000 A 
ATOM     15  C   UNL     1      45.013   2.474   9.424  0.00  0.00    +0.000 A 
ATOM     16  C   UNL     1      45.740   1.659   8.550  0.00  0.00    +0.000 A 
ATOM     17  C   UNL     1      46.502   2.237   7.538  0.00  0.00    +0.000 A 
ATOM     18 CL   UNL     1      47.396   1.235   6.463  0.00  0.00    +0.000 Cl
ATOM     19  C   UNL     1      46.547   3.622   7.394  0.00  0.00    +0.000 A 
ATOM     20  C   UNL     1      45.822   4.437   8.268  0.00  0.00    +0.000 A 
ENDBRANCH  13  14
ENDBRANCH  12  13
ENDBRANCH   4  12
TORSDOF 4
ENDMDL
MODEL 5
REMARK VINA RESULT:    -6.456      2.279      2.588
REMARK INTER + INTRA:          -8.341
REMARK INTER:                  -8.043
REMARK INTRA:                  -0.298
REMARK UNBOUND:                -0.376
REMARK  Name = 
REMARK  4 active torsions:
REMARK  status: ('A' for Active; 'I' for Inactive)
REMARK    1  A    between atoms: C_2  and  C_4
REMARK    2  A    between atoms: C_7  and  S_8
REMARK    3  A    between atoms: S_8  and  C_9
REMARK    4  A    between atoms: C_9  and  C_10
REMARK                            x       y       z     vdW  Elec       q    Type
REMARK                         _______ _______ _______ _____ _____    ______ ____
ROOT
ATOM      1  C   UNL     1      45.955   7.366  12.457  0.00  0.00    +0.000 A 
ATOM      2  C   UNL     1      46.144   6.931  11.152  0.00  0.00    +0.000 A 
ATOM      3  C   UNL     1      45.837   5.605  10.839  0.00  0.00    +0.000 A 
ATOM      4  C   UNL     1      45.356   4.747  11.828  0.00  0.00    +0.000 A 
ATOM      5  C   UNL     1      45.193   5.289  13.106  0.00  0.00    +0.000 A 
ATOM      6  N   UNL     1      45.485   6.569  13.454  0.00  0.00    +0.000 NA
ENDROOT
BRANCH   1   8
ATOM      7  N   UNL     1      46.738   8.979  14.090  0.00  0.00    +0.000 N 
ATOM      8  C   UNL     1      46.273   8.784  12.819  0.00  0.00    +0.000 C 
ATOM      9  O   UNL     1      46.132   9.713  12.033  0.00  0.00    +0.000 OA
ATOM     10  H   UNL     1      46.976   9.909  14.400  0.00  0.00    +0.000 HD
ATOM     11  H   UNL     1      46.845   8.185  14.714  0.00  0.00    +0.000 HD
ENDBRANCH   1   8
BRANCH   4  12
ATOM     12  S   UNL     1      44.870   3.055  11.546  0.00  0.00    +0.000 S 
BRANCH  12  13
ATOM     13  C   UNL     1      44.110   3.120   9.886  0.00  0.00    +0.000 C 
BRANCH  13  14
ATOM     14  C   UNL     1      45.137   2.873   8.805  0.00  0.00    +0.000 A 
ATOM     15  C   UNL     1      45.482   3.897   7.908  0.00  0.00    +0.000 A 
ATOM     16  C   UNL     1      46.424   3.671   6.900  0.00  0.00    +0.000 A 
ATOM     17  C   UNL     1      47.025   2.420   6.782  0.00  0.00    +0.000 A 
ATOM     18 CL   UNL     1      48.185   2.143   5.542  0.00  0.00    +0.000 Cl
ATOM     19  C   UNL     1      46.689   1.392   7.659  0.00  0.00    +0.000 A 
ATOM     20  C   UNL     1      45.746   1.616   8.666  0.00  0.00    +0.000 A 
ENDBRANCH  13  14
ENDBRANCH  12  13
ENDBRANCH   4  12
TORSDOF 4
ENDMDL
MODEL 6
REMARK VINA RESULT:    -6.379      4.352      6.853
REMARK INTER + INTRA:          -8.247
REMARK INTER:                  -7.838
REMARK INTRA:                  -0.409
REMARK UNBOUND:                -0.376
REMARK  Name = 
REMARK  4 active torsions:
REMARK  status: ('A' for Active; 'I' for Inactive)
REMARK    1  A    between atoms: C_2  and  C_4
REMARK    2  A    between atoms: C_7  and  S_8
REMARK    3  A    between atoms: S_8  and  C_9
REMARK    4  A    between atoms: C_9  and  C_10
REMARK                            x       y       z     vdW  Elec       q    Type
REMARK                         _______ _______ _______ _____ _____    ______ ____
ROOT
ATOM      1  C   UNL     1      46.111   2.861   7.913  0.00  0.00    +0.000 A 
ATOM      2  C   UNL     1      45.401   2.029   8.769  0.00  0.00    +0.000 A 
ATOM      3  C   UNL     1      44.608   2.611   9.761  0.00  0.00    +0.000 A 
ATOM      4  C   UNL     1      44.543   4.000   9.877  0.00  0.00    +0.000 A 
ATOM      5  C   UNL     1      45.287   4.745   8.958  0.00  0.00    +0.000 A 
ATOM      6  N   UNL     1      46.076   4.219   7.985  0.00  0.00    +0.000 NA
ENDROOT
BRANCH   1   8
ATOM      7  N   UNL     1      47.674   1.150   7.198  0.00  0.00    +0.000 N 
ATOM      8  C   UNL     1      46.966   2.263   6.838  0.00  0.00    +0.000 C 
ATOM      9  O   UNL     1      47.030   2.733   5.709  0.00  0.00    +0.000 OA
ATOM     10  H   UNL     1      48.267   0.693   6.522  0.00  0.00    +0.000 HD
ATOM     11  H   UNL     1      47.594   0.788   8.143  0.00  0.00    +0.000 HD
ENDBRANCH   1   8
BRANCH   4  12
ATOM     12  S   UNL     1      43.523   4.866  11.056  0.00  0.00    +0.000 S 
BRANCH  12  13
ATOM     13  C   UNL     1      44.608   4.995  12.519  0.00  0.00    +0.000 C 
BRANCH  13  14
ATOM     14  C   UNL     1      45.461   6.242  12.458  0.00  0.00    +0.000 A 
ATOM     15  C   UNL     1      46.840   6.147  12.209  0.00  0.00    +0.000 A 
ATOM     16  C   UNL     1      47.634   7.296  12.162  0.00  0.00    +0.000 A 
ATOM     17  C   UNL     1      47.056   8.547  12.365  0.00  0.00    +0.000 A 
ATOM     18 CL   UNL     1      48.034   9.961  12.305  0.00  0.00    +0.000 Cl
ATOM     19  C   UNL     1      45.690   8.658  12.619  0.00  0.00    +0.000 A 
ATOM     20  C   UNL     1      44.896   7.509  12.669  0.00  0.00    +0.000 A 
ENDBRANCH  13  14
ENDBRANCH  12  13
ENDBRANCH   4  12
TORSDOF 4
ENDMDL
MODEL 7
REMARK VINA RESULT:    -6.002      1.562      2.255
REMARK INTER + INTRA:          -7.781
REMARK INTER:                  -7.482
REMARK INTRA:                  -0.299
REMARK UNBOUND:                -0.376
REMARK  Name = 
REMARK  4 active torsions:
REMARK  status: ('A' for Active; 'I' for Inactive)
REMARK    1  A    between atoms: C_2  and  C_4
REMARK    2  A    between atoms: C_7  and  S_8
REMARK    3  A    between atoms: S_8  and  C_9
REMARK    4  A    between atoms: C_9  and  C_10
REMARK                            x       y       z     vdW  Elec       q    Type
REMARK                         _______ _______ _______ _____ _____    ______ ____
ROOT
ATOM      1  C   UNL     1      47.625   4.461  15.556  0.00  0.00    +0.000 A 
ATOM      2  C   UNL     1      48.059   5.748  15.265  0.00  0.00    +0.000 A 
ATOM      3  C   UNL     1      47.593   6.362  14.100  0.00  0.00    +0.000 A 
ATOM      4  C   UNL     1      46.716   5.682  13.255  0.00  0.00    +0.000 A 
ATOM      5  C   UNL     1      46.334   4.396  13.646  0.00  0.00    +0.000 A 
ATOM      6  N   UNL     1      46.767   3.760  14.766  0.00  0.00    +0.000 NA
ENDROOT
BRANCH   1   8
ATOM      7  N   UNL     1      47.133   3.435  17.698  0.00  0.00    +0.000 N 
ATOM      8  C   UNL     1      48.105   3.780  16.801  0.00  0.00    +0.000 C 
ATOM      9  O   UNL     1      49.289   3.542  17.008  0.00  0.00    +0.000 OA
ATOM     10  H   UNL     1      47.385   2.969  18.556  0.00  0.00    +0.000 HD
ATOM     11  H   UNL     1      46.161   3.645  17.491  0.00  0.00    +0.000 HD
ENDBRANCH   1   8
BRANCH   4  12
ATOM     12  S   UNL     1      46.002   6.375  11.775  0.00  0.00    +0.000 S 
BRANCH  12  13
ATOM     13  C   UNL     1      44.780   5.111  11.280  0.00  0.00    +0.000 C 
BRANCH  13  14
ATOM     14  C   UNL     1      45.181   4.440   9.986  0.00  0.00    +0.000 A 
ATOM     15  C   UNL     1      45.926   5.143   9.025  0.00  0.00    +0.000 A 
ATOM     16  C   UNL     1      46.291   4.531   7.822  0.00  0.00    +0.000 A 
ATOM     17  C   UNL     1      45.912   3.215   7.572  0.00  0.00    +0.000 A 
ATOM     18 CL   UNL     1      46.362   2.462   6.092  0.00  0.00    +0.000 Cl
ATOM     19  C   UNL     1      45.166   2.506   8.512  0.00  0.00    +0.000 A 
ATOM     20  C   UNL     1      44.799   3.118   9.713  0.00  0.00    +0.000 A 
ENDBRANCH  13  14
ENDBRANCH  12  13
ENDBRANCH   4  12
TORSDOF 4
ENDMDL
MODEL 8
REMARK VINA RESULT:    -5.811      1.915      2.448
REMARK INTER + INTRA:          -7.545
REMARK INTER:                  -7.103
REMARK INTRA:                  -0.442
REMARK UNBOUND:                -0.376
REMARK  Name = 
REMARK  4 active torsions:
REMARK  status: ('A' for Active; 'I' for Inactive)
REMARK    1  A    between atoms: C_2  and  C_4
REMARK    2  A    between atoms: C_7  and  S_8
REMARK    3  A    between atoms: S_8  and  C_9
REMARK    4  A    between atoms: C_9  and  C_10
REMARK                            x       y       z     vdW  Elec       q    Type
REMARK                         _______ _______ _______ _____ _____    ______ ____
ROOT
ATOM      1  C   UNL     1      47.967   6.580  14.355  0.00  0.00    +0.000 A 
ATOM      2  C   UNL     1      47.354   5.345  14.190  0.00  0.00    +0.000 A 
ATOM      3  C   UNL     1      46.281   5.246  13.300  0.00  0.00    +0.000 A 
ATOM      4  C   UNL     1      45.845   6.373  12.604  0.00  0.00    +0.000 A 
ATOM      5  C   UNL     1      46.539   7.564  12.835  0.00  0.00    +0.000 A 
ATOM      6  N   UNL     1      47.581   7.705  13.695  0.00  0.00    +0.000 NA
ENDROOT
BRANCH   1   8
ATOM      7  N   UNL     1      48.980   6.076  16.500  0.00  0.00    +0.000 N 
ATOM      8  C   UNL     1      49.122   6.714  15.300  0.00  0.00    +0.000 C 
ATOM      9  O   UNL     1      50.132   7.349  15.021  0.00  0.00    +0.000 OA
ATOM     10  H   UNL     1      49.721   6.121  17.183  0.00  0.00    +0.000 HD
ATOM     11  H   UNL     1      48.129   5.557  16.696  0.00  0.00    +0.000 HD
ENDBRANCH   1   8
BRANCH   4  12
ATOM     12  S   UNL     1      44.532   6.366  11.397  0.00  0.00    +0.000 S 
BRANCH  12  13
ATOM     13  C   UNL     1      44.091   4.598  11.283  0.00  0.00    +0.000 C 
BRANCH  13  14
ATOM     14  C   UNL     1      44.772   3.940  10.104  0.00  0.00    +0.000 A 
ATOM     15  C   UNL     1      45.384   4.724   9.112  0.00  0.00    +0.000 A 
ATOM     16  C   UNL     1      46.006   4.122   8.014  0.00  0.00    +0.000 A 
ATOM     17  C   UNL     1      46.017   2.734   7.900  0.00  0.00    +0.000 A 
ATOM     18 CL   UNL     1      46.784   1.993   6.549  0.00  0.00    +0.000 Cl
ATOM     19  C   UNL     1      45.408   1.943   8.872  0.00  0.00    +0.000 A 
ATOM     20  C   UNL     1      44.784   2.544   9.968  0.00  0.00    +0.000 A 
ENDBRANCH  13  14
ENDBRANCH  12  13
ENDBRANCH   4  12
TORSDOF 4
ENDMDL
MODEL 9
REMARK VINA RESULT:    -5.737      3.242      3.892
REMARK INTER + INTRA:          -7.454
REMARK INTER:                  -7.077
REMARK INTRA:                  -0.378
REMARK UNBOUND:                -0.376
REMARK  Name = 
REMARK  4 active torsions:
REMARK  status: ('A' for Active; 'I' for Inactive)
REMARK    1  A    between atoms: C_2  and  C_4
REMARK    2  A    between atoms: C_7  and  S_8
REMARK    3  A    between atoms: S_8  and  C_9
REMARK    4  A    between atoms: C_9  and  C_10
REMARK                            x       y       z     vdW  Elec       q    Type
REMARK                         _______ _______ _______ _____ _____    ______ ____
ROOT
ATOM      1  C   UNL     1      47.480   8.855  12.121  0.00  0.00    +0.000 A 
ATOM      2  C   UNL     1      46.135   8.977  12.442  0.00  0.00    +0.000 A 
ATOM      3  C   UNL     1      45.355   7.820  12.501  0.00  0.00    +0.000 A 
ATOM      4  C   UNL     1      45.929   6.577  12.236  0.00  0.00    +0.000 A 
ATOM      5  C   UNL     1      47.293   6.565  11.933  0.00  0.00    +0.000 A 
ATOM      6  N   UNL     1      48.085   7.666  11.859  0.00  0.00    +0.000 NA
ENDROOT
BRANCH   1   8
ATOM      7  N   UNL     1      49.537   9.927  11.409  0.00  0.00    +0.000 N 
ATOM      8  C   UNL     1      48.341  10.080  12.055  0.00  0.00    +0.000 C 
ATOM      9  O   UNL     1      48.001  11.152  12.541  0.00  0.00    +0.000 OA
ATOM     10  H   UNL     1      50.164  10.713  11.324  0.00  0.00    +0.000 HD
ATOM     11  H   UNL     1      49.784   9.025  11.016  0.00  0.00    +0.000 HD
ENDBRANCH   1   8
BRANCH   4  12
ATOM     12  S   UNL     1      45.060   5.023  12.338  0.00  0.00    +0.000 S 
BRANCH  12  13
ATOM     13  C   UNL     1      44.135   4.968  10.764  0.00  0.00    +0.000 C 
BRANCH  13  14
ATOM     14  C   UNL     1      44.849   4.114   9.741  0.00  0.00    +0.000 A 
ATOM     15  C   UNL     1      44.748   2.714   9.792  0.00  0.00    +0.000 A 
ATOM     16  C   UNL     1      45.414   1.918   8.855  0.00  0.00    +0.000 A 
ATOM     17  C   UNL     1      46.187   2.518   7.864  0.00  0.00    +0.000 A 
ATOM     18 CL   UNL     1      47.007   1.538   6.710  0.00  0.00    +0.000 Cl
ATOM     19  C   UNL     1      46.304   3.905   7.804  0.00  0.00    +0.000 A 
ATOM     20  C   UNL     1      45.640   4.700   8.742  0.00  0.00    +0.000 A 
ENDBRANCH  13  14
ENDBRANCH  12  13
ENDBRANCH   4  12
TORSDOF 4
ENDMDL
