MODEL 1
REMARK VINA RESULT:    -8.213      0.000      0.000
REMARK INTER + INTRA:         -12.361
REMARK INTER:                 -11.574
REMARK INTRA:                  -0.787
REMARK UNBOUND:                -0.787
REMARK  Name = 
REMARK  9 active torsions:
REMARK  status: ('A' for Active; 'I' for Inactive)
REMARK    1  A    between atoms: C_1  and  C_2
REMARK    2  A    between atoms: C_6  and  C_7
REMARK    3  A    between atoms: C_7  and  O_8
REMARK    4  A    between atoms: O_8  and  C_9
REMARK    5  A    between atoms: C_9  and  C_10
REMARK    6  A    between atoms: C_9  and  C_11
REMARK    7  A    between atoms: C_14  and  C_15
REMARK    8  A    between atoms: C_15  and  N_16
REMARK    9  A    between atoms: C_17  and  C_19
REMARK                            x       y       z     vdW  Elec       q    Type
REMARK                         _______ _______ _______ _____ _____    ______ ____
ROOT
ATOM      1  C   UNL     1      45.227   4.926  11.729  0.00  0.00    +0.000 A 
ATOM      2  C   UNL     1      45.740   6.063  11.108  0.00  0.00    +0.000 A 
ATOM      3  C   UNL     1      46.765   6.789  11.724  0.00  0.00    +0.000 A 
ATOM      4  C   UNL     1      47.274   6.366  12.952  0.00  0.00    +0.000 A 
ATOM      5  C   UNL     1      46.690   5.232  13.509  0.00  0.00    +0.000 A 
ATOM      6  N   UNL     1      45.698   4.503  12.931  0.00  0.00    +0.000 NA
ENDROOT
BRANCH   1   7
ATOM      7  C   UNL     1      44.158   4.078  11.038  0.00  0.00    +0.000 C 
ATOM      8  C   UNL     1      43.361   3.311  12.096  0.00  0.00    +0.000 C 
BRANCH   7   9
ATOM      9  O   UNL     1      44.804   3.187  10.114  0.00  0.00    +0.000 OA
BRANCH   9  10
ATOM     10  C   UNL     1      44.935   3.691   8.786  0.00  0.00    +0.000 C 
BRANCH  10  16
ATOM     11  C   UNL     1      46.730  -0.665   7.608  0.00  0.00    +0.000 C 
ATOM     12  C   UNL     1      46.805   0.821   7.466  0.00  0.00    +0.000 A 
ATOM     13  N   UNL     1      47.786   1.336   6.703  0.00  0.00    +0.000 NA
ATOM     14  C   UNL     1      47.819   2.677   6.606  0.00  0.00    +0.000 A 
ATOM     15  C   UNL     1      46.923   3.510   7.235  0.00  0.00    +0.000 A 
ATOM     16  C   UNL     1      45.960   2.896   8.013  0.00  0.00    +0.000 A 
ATOM     17  N   UNL     1      45.883   1.549   8.122  0.00  0.00    +0.000 NA
ENDBRANCH  10  16
ENDBRANCH   9  10
ENDBRANCH   7   9
ENDBRANCH   1   7
BRANCH   4  18
ATOM     18  C   UNL     1      48.397   7.077  13.661  0.00  0.00    +0.000 C 
BRANCH  18  19
ATOM     19  N   UNL     1      48.253   7.050  15.096  0.00  0.00    +0.000 N 
ATOM     20  C   UNL     1      49.328   6.838  15.930  0.00  0.00    +0.000 C 
ATOM     21  O   UNL     1      50.466   6.683  15.517  0.00  0.00    +0.000 OA
ATOM     22  H   UNL     1      47.332   6.819  15.450  0.00  0.00    +0.000 HD
BRANCH  20  23
ATOM     23  C   UNL     1      49.018   6.879  17.365  0.00  0.00    +0.000 A 
ATOM     24  C   UNL     1      48.735   8.089  17.986  0.00  0.00    +0.000 A 
ATOM     25  S   UNL     1      48.372   7.931  19.648  0.00  0.00    +0.000 S 
ATOM     26  C   UNL     1      48.621   6.247  19.600  0.00  0.00    +0.000 A 
ATOM     27  N   UNL     1      48.500   5.485  20.721  0.00  0.00    +0.000 NA
ATOM     28  C   UNL     1      48.742   4.230  20.541  0.00  0.00    +0.000 A 
ATOM     29  N   UNL     1      49.081   3.663  19.341  0.00  0.00    +0.000 N 
ATOM     30  C   UNL     1      49.168   4.382  18.175  0.00  0.00    +0.000 A 
ATOM     31  O   UNL     1      49.394   3.833  17.103  0.00  0.00    +0.000 OA
ATOM     32  C   UNL     1      48.942   5.808  18.330  0.00  0.00    +0.000 A 
ATOM     33  H   UNL     1      49.235   2.667  19.261  0.00  0.00    +0.000 HD
ENDBRANCH  20  23
ENDBRANCH  18  19
ENDBRANCH   4  18
TORSDOF 7
ENDMDL
MODEL 2
REMARK VINA RESULT:    -8.095      1.743      2.789
REMARK INTER + INTRA:         -12.195
REMARK INTER:                 -11.169
REMARK INTRA:                  -1.026
REMARK UNBOUND:                -0.787
REMARK  Name = 
REMARK  9 active torsions:
REMARK  status: ('A' for Active; 'I' for Inactive)
REMARK    1  A    between atoms: C_1  and  C_2
REMARK    2  A    between atoms: C_6  and  C_7
REMARK    3  A    between atoms: C_7  and  O_8
REMARK    4  A    between atoms: O_8  and  C_9
REMARK    5  A    between atoms: C_9  and  C_10
REMARK    6  A    between atoms: C_9  and  C_11
REMARK    7  A    between atoms: C_14  and  C_15
REMARK    8  A    between atoms: C_15  and  N_16
REMARK    9  A    between atoms: C_17  and  C_19
REMARK                            x       y       z     vdW  Elec       q    Type
REMARK                         _______ _______ _______ _____ _____    ______ ____
ROOT
ATOM      1  C   UNL     1      45.244   5.296  11.596  0.00  0.00    +0.000 A 
ATOM      2  C   UNL     1      45.471   4.673  12.823  0.00  0.00    +0.000 A 
ATOM      3  C   UNL     1      46.539   5.088  13.626  0.00  0.00    +0.000 A 
ATOM      4  C   UNL     1      47.365   6.127  13.198  0.00  0.00    +0.000 A 
ATOM      5  C   UNL     1      47.078   6.678  11.953  0.00  0.00    +0.000 A 
ATOM      6  N   UNL     1      46.044   6.300  11.154  0.00  0.00    +0.000 NA
ENDROOT
BRANCH   1   7
ATOM      7  C   UNL     1      44.040   4.906  10.738  0.00  0.00    +0.000 C 
ATOM      8  C   UNL     1      42.845   4.612  11.649  0.00  0.00    +0.000 C 
BRANCH   7   9
ATOM      9  O   UNL     1      44.393   3.762   9.943  0.00  0.00    +0.000 OA
BRANCH   9  10
ATOM     10  C   UNL     1      44.764   4.057   8.598  0.00  0.00    +0.000 C 
BRANCH  10  16
ATOM     11  C   UNL     1      47.824   2.597   5.120  0.00  0.00    +0.000 C 
ATOM     12  C   UNL     1      47.065   2.268   6.366  0.00  0.00    +0.000 A 
ATOM     13  N   UNL     1      47.164   1.020   6.857  0.00  0.00    +0.000 NA
ATOM     14  C   UNL     1      46.462   0.766   7.976  0.00  0.00    +0.000 A 
ATOM     15  C   UNL     1      45.674   1.698   8.610  0.00  0.00    +0.000 A 
ATOM     16  C   UNL     1      45.616   2.948   8.025  0.00  0.00    +0.000 A 
ATOM     17  N   UNL     1      46.322   3.249   6.910  0.00  0.00    +0.000 NA
ENDBRANCH  10  16
ENDBRANCH   9  10
ENDBRANCH   7   9
ENDBRANCH   1   7
BRANCH   4  18
ATOM     18  C   UNL     1      48.515   6.649  14.021  0.00  0.00    +0.000 C 
BRANCH  18  19
ATOM     19  N   UNL     1      48.163   6.844  15.406  0.00  0.00    +0.000 N 
ATOM     20  C   UNL     1      48.883   6.265  16.427  0.00  0.00    +0.000 C 
ATOM     21  O   UNL     1      49.869   5.572  16.232  0.00  0.00    +0.000 OA
ATOM     22  H   UNL     1      47.198   7.090  15.593  0.00  0.00    +0.000 HD
BRANCH  20  23
ATOM     23  C   UNL     1      48.417   6.595  17.780  0.00  0.00    +0.000 A 
ATOM     24  C   UNL     1      48.262   5.595  18.731  0.00  0.00    +0.000 A 
ATOM     25  S   UNL     1      47.742   6.177  20.251  0.00  0.00    +0.000 S 
ATOM     26  C   UNL     1      47.668   7.778  19.676  0.00  0.00    +0.000 A 
ATOM     27  N   UNL     1      47.256   8.797  20.479  0.00  0.00    +0.000 NA
ATOM     28  C   UNL     1      47.225   9.951  19.901  0.00  0.00    +0.000 A 
ATOM     29  N   UNL     1      47.581  10.184  18.600  0.00  0.00    +0.000 N 
ATOM     30  C   UNL     1      48.049   9.199  17.766  0.00  0.00    +0.000 A 
ATOM     31  O   UNL     1      48.436   9.454  16.633  0.00  0.00    +0.000 OA
ATOM     32  C   UNL     1      48.067   7.871  18.356  0.00  0.00    +0.000 A 
ATOM     33  H   UNL     1      47.558  11.118  18.213  0.00  0.00    +0.000 HD
ENDBRANCH  20  23
ENDBRANCH  18  19
ENDBRANCH   4  18
TORSDOF 7
ENDMDL
MODEL 3
REMARK VINA RESULT:    -7.755      2.858      8.811
REMARK INTER + INTRA:         -11.716
REMARK INTER:                 -10.452
REMARK INTRA:                  -1.264
REMARK UNBOUND:                -0.787
REMARK  Name = 
REMARK  9 active torsions:
REMARK  status: ('A' for Active; 'I' for Inactive)
REMARK    1  A    between atoms: C_1  and  C_2
REMARK    2  A    between atoms: C_6  and  C_7
REMARK    3  A    between atoms: C_7  and  O_8
REMARK    4  A    between atoms: O_8  and  C_9
REMARK    5  A    between atoms: C_9  and  C_10
REMARK    6  A    between atoms: C_9  and  C_11
REMARK    7  A    between atoms: C_14  and  C_15
REMARK    8  A    between atoms: C_15  and  N_16
REMARK    9  A    between atoms: C_17  and  C_19
REMARK                            x       y       z     vdW  Elec       q    Type
REMARK                         _______ _______ _______ _____ _____    ______ ____
ROOT
ATOM      1  C   UNL     1      49.475   7.879  15.794  0.00  0.00    +0.000 A 
ATOM      2  C   UNL     1      48.360   8.695  15.608  0.00  0.00    +0.000 A 
ATOM      3  C   UNL     1      47.700   8.697  14.374  0.00  0.00    +0.000 A 
ATOM      4  C   UNL     1      48.155   7.878  13.342  0.00  0.00    +0.000 A 
ATOM      5  C   UNL     1      49.286   7.111  13.609  0.00  0.00    +0.000 A 
ATOM      6  N   UNL     1      49.944   7.083  14.799  0.00  0.00    +0.000 NA
ENDROOT
BRANCH   1   7
ATOM      7  C   UNL     1      50.167   7.808  17.156  0.00  0.00    +0.000 C 
ATOM      8  C   UNL     1      51.519   8.520  17.074  0.00  0.00    +0.000 C 
BRANCH   7   9
ATOM      9  O   UNL     1      50.318   6.426  17.523  0.00  0.00    +0.000 OA
BRANCH   9  10
ATOM     10  C   UNL     1      49.104   5.757  17.857  0.00  0.00    +0.000 C 
BRANCH  10  16
ATOM     11  C   UNL     1      51.440   1.535  17.303  0.00  0.00    +0.000 C 
ATOM     12  C   UNL     1      50.220   2.357  17.037  0.00  0.00    +0.000 A 
ATOM     13  N   UNL     1      49.237   1.812  16.300  0.00  0.00    +0.000 NA
ATOM     14  C   UNL     1      48.159   2.586  16.082  0.00  0.00    +0.000 A 
ATOM     15  C   UNL     1      48.031   3.868  16.564  0.00  0.00    +0.000 A 
ATOM     16  C   UNL     1      49.097   4.354  17.296  0.00  0.00    +0.000 A 
ATOM     17  N   UNL     1      50.191   3.599  17.552  0.00  0.00    +0.000 NA
ENDBRANCH  10  16
ENDBRANCH   9  10
ENDBRANCH   7   9
ENDBRANCH   1   7
BRANCH   4  18
ATOM     18  C   UNL     1      47.478   7.804  11.998  0.00  0.00    +0.000 C 
BRANCH  18  19
ATOM     19  N   UNL     1      46.753   6.571  11.808  0.00  0.00    +0.000 N 
ATOM     20  C   UNL     1      45.385   6.548  11.660  0.00  0.00    +0.000 C 
ATOM     21  O   UNL     1      44.702   7.560  11.657  0.00  0.00    +0.000 OA
ATOM     22  H   UNL     1      47.202   5.729  12.151  0.00  0.00    +0.000 HD
BRANCH  20  23
ATOM     23  C   UNL     1      44.807   5.216  11.436  0.00  0.00    +0.000 A 
ATOM     24  C   UNL     1      44.035   4.613  12.421  0.00  0.00    +0.000 A 
ATOM     25  S   UNL     1      43.426   3.084  11.966  0.00  0.00    +0.000 S 
ATOM     26  C   UNL     1      44.208   3.159  10.455  0.00  0.00    +0.000 A 
ATOM     27  N   UNL     1      44.122   2.132   9.565  0.00  0.00    +0.000 NA
ATOM     28  C   UNL     1      44.786   2.318   8.473  0.00  0.00    +0.000 A 
ATOM     29  N   UNL     1      45.515   3.439   8.181  0.00  0.00    +0.000 N 
ATOM     30  C   UNL     1      45.591   4.520   9.024  0.00  0.00    +0.000 A 
ATOM     31  O   UNL     1      46.184   5.541   8.700  0.00  0.00    +0.000 OA
ATOM     32  C   UNL     1      44.893   4.347  10.287  0.00  0.00    +0.000 A 
ATOM     33  H   UNL     1      45.993   3.534   7.296  0.00  0.00    +0.000 HD
ENDBRANCH  20  23
ENDBRANCH  18  19
ENDBRANCH   4  18
TORSDOF 7
ENDMDL
MODEL 4
REMARK VINA RESULT:    -7.555      1.977      2.332
REMARK INTER + INTRA:         -11.433
REMARK INTER:                 -10.141
REMARK INTRA:                  -1.292
REMARK UNBOUND:                -0.787
REMARK  Name = 
REMARK  9 active torsions:
REMARK  status: ('A' for Active; 'I' for Inactive)
REMARK    1  A    between atoms: C_1  and  C_2
REMARK    2  A    between atoms: C_6  and  C_7
REMARK    3  A    between atoms: C_7  and  O_8
REMARK    4  A    between atoms: O_8  and  C_9
REMARK    5  A    between atoms: C_9  and  C_10
REMARK    6  A    between atoms: C_9  and  C_11
REMARK    7  A    between atoms: C_14  and  C_15
REMARK    8  A    between atoms: C_15  and  N_16
REMARK    9  A    between atoms: C_17  and  C_19
REMARK                            x       y       z     vdW  Elec       q    Type
REMARK                         _______ _______ _______ _____ _____    ______ ____
ROOT
ATOM      1  C   UNL     1      44.895   5.648  12.168  0.00  0.00    +0.000 A 
ATOM      2  C   UNL     1      45.394   6.725  11.436  0.00  0.00    +0.000 A 
ATOM      3  C   UNL     1      46.682   7.206  11.698  0.00  0.00    +0.000 A 
ATOM      4  C   UNL     1      47.462   6.600  12.682  0.00  0.00    +0.000 A 
ATOM      5  C   UNL     1      46.878   5.545  13.376  0.00  0.00    +0.000 A 
ATOM      6  N   UNL     1      45.633   5.052  13.140  0.00  0.00    +0.000 NA
ENDROOT
BRANCH   1   7
ATOM      7  C   UNL     1      43.520   5.062  11.849  0.00  0.00    +0.000 C 
ATOM      8  C   UNL     1      43.166   4.004  12.898  0.00  0.00    +0.000 C 
BRANCH   7   9
ATOM      9  O   UNL     1      43.553   4.504  10.525  0.00  0.00    +0.000 OA
BRANCH   9  10
ATOM     10  C   UNL     1      44.070   3.176  10.447  0.00  0.00    +0.000 C 
BRANCH  10  16
ATOM     11  C   UNL     1      46.773   0.268   7.649  0.00  0.00    +0.000 C 
ATOM     12  C   UNL     1      46.315   1.654   7.973  0.00  0.00    +0.000 A 
ATOM     13  N   UNL     1      46.813   2.672   7.249  0.00  0.00    +0.000 NA
ATOM     14  C   UNL     1      46.378   3.901   7.575  0.00  0.00    +0.000 A 
ATOM     15  C   UNL     1      45.479   4.149   8.587  0.00  0.00    +0.000 A 
ATOM     16  C   UNL     1      45.033   3.046   9.291  0.00  0.00    +0.000 A 
ATOM     17  N   UNL     1      45.434   1.791   8.980  0.00  0.00    +0.000 NA
ENDBRANCH  10  16
ENDBRANCH   9  10
ENDBRANCH   7   9
ENDBRANCH   1   7
BRANCH   4  18
ATOM     18  C   UNL     1      48.867   7.042  12.998  0.00  0.00    +0.000 C 
BRANCH  18  19
ATOM     19  N   UNL     1      49.223   6.818  14.378  0.00  0.00    +0.000 N 
ATOM     20  C   UNL     1      50.360   7.361  14.933  0.00  0.00    +0.000 C 
ATOM     21  O   UNL     1      51.124   8.078  14.307  0.00  0.00    +0.000 OA
ATOM     22  H   UNL     1      48.843   5.983  14.809  0.00  0.00    +0.000 HD
BRANCH  20  23
ATOM     23  C   UNL     1      50.555   7.070  16.359  0.00  0.00    +0.000 A 
ATOM     24  C   UNL     1      51.596   6.247  16.770  0.00  0.00    +0.000 A 
ATOM     25  S   UNL     1      51.678   6.051  18.465  0.00  0.00    +0.000 S 
ATOM     26  C   UNL     1      50.302   7.025  18.702  0.00  0.00    +0.000 A 
ATOM     27  N   UNL     1      49.803   7.249  19.948  0.00  0.00    +0.000 NA
ATOM     28  C   UNL     1      48.742   7.985  19.973  0.00  0.00    +0.000 A 
ATOM     29  N   UNL     1      48.142   8.530  18.869  0.00  0.00    +0.000 N 
ATOM     30  C   UNL     1      48.636   8.373  17.598  0.00  0.00    +0.000 A 
ATOM     31  O   UNL     1      48.124   8.940  16.641  0.00  0.00    +0.000 OA
ATOM     32  C   UNL     1      49.809   7.520  17.510  0.00  0.00    +0.000 A 
ATOM     33  H   UNL     1      47.326   9.119  18.958  0.00  0.00    +0.000 HD
ENDBRANCH  20  23
ENDBRANCH  18  19
ENDBRANCH   4  18
TORSDOF 7
ENDMDL
MODEL 5
REMARK VINA RESULT:    -6.984      2.633      3.502
REMARK INTER + INTRA:         -10.629
REMARK INTER:                  -9.886
REMARK INTRA:                  -0.743
REMARK UNBOUND:                -0.787
REMARK  Name = 
REMARK  9 active torsions:
REMARK  status: ('A' for Active; 'I' for Inactive)
REMARK    1  A    between atoms: C_1  and  C_2
REMARK    2  A    between atoms: C_6  and  C_7
REMARK    3  A    between atoms: C_7  and  O_8
REMARK    4  A    between atoms: O_8  and  C_9
REMARK    5  A    between atoms: C_9  and  C_10
REMARK    6  A    between atoms: C_9  and  C_11
REMARK    7  A    between atoms: C_14  and  C_15
REMARK    8  A    between atoms: C_15  and  N_16
REMARK    9  A    between atoms: C_17  and  C_19
REMARK                            x       y       z     vdW  Elec       q    Type
REMARK                         _______ _______ _______ _____ _____    ______ ____
ROOT
ATOM      1  C   UNL     1      46.669   5.565  13.494  0.00  0.00    +0.000 A 
ATOM      2  C   UNL     1      47.332   6.682  12.987  0.00  0.00    +0.000 A 
ATOM      3  C   UNL     1      48.345   7.288  13.738  0.00  0.00    +0.000 A 
ATOM      4  C   UNL     1      48.693   6.766  14.983  0.00  0.00    +0.000 A 
ATOM      5  C   UNL     1      47.967   5.662  15.419  0.00  0.00    +0.000 A 
ATOM      6  N   UNL     1      46.982   5.048  14.710  0.00  0.00    +0.000 NA
ENDROOT
BRANCH   1   7
ATOM      7  C   UNL     1      45.609   4.845  12.659  0.00  0.00    +0.000 C 
ATOM      8  C   UNL     1      45.813   3.333  12.779  0.00  0.00    +0.000 C 
BRANCH   7   9
ATOM      9  O   UNL     1      45.719   5.287  11.296  0.00  0.00    +0.000 OA
BRANCH   9  10
ATOM     10  C   UNL     1      44.620   4.932  10.459  0.00  0.00    +0.000 C 
BRANCH  10  16
ATOM     11  C   UNL     1      46.828   3.676   6.320  0.00  0.00    +0.000 C 
ATOM     12  C   UNL     1      46.062   3.251   7.532  0.00  0.00    +0.000 A 
ATOM     13  N   UNL     1      45.751   1.949   7.661  0.00  0.00    +0.000 NA
ATOM     14  C   UNL     1      45.058   1.611   8.762  0.00  0.00    +0.000 A 
ATOM     15  C   UNL     1      44.667   2.514   9.724  0.00  0.00    +0.000 A 
ATOM     16  C   UNL     1      45.013   3.833   9.501  0.00  0.00    +0.000 A 
ATOM     17  N   UNL     1      45.726   4.210   8.413  0.00  0.00    +0.000 NA
ENDBRANCH  10  16
ENDBRANCH   9  10
ENDBRANCH   7   9
ENDBRANCH   1   7
BRANCH   4  18
ATOM     18  C   UNL     1      49.794   7.345  15.834  0.00  0.00    +0.000 C 
BRANCH  18  19
ATOM     19  N   UNL     1      50.724   6.344  16.296  0.00  0.00    +0.000 N 
ATOM     20  C   UNL     1      50.822   6.001  17.625  0.00  0.00    +0.000 C 
ATOM     21  O   UNL     1      50.120   6.499  18.491  0.00  0.00    +0.000 OA
ATOM     22  H   UNL     1      51.533   6.178  15.708  0.00  0.00    +0.000 HD
BRANCH  20  23
ATOM     23  C   UNL     1      51.789   4.936  17.923  0.00  0.00    +0.000 A 
ATOM     24  C   UNL     1      53.060   5.254  18.383  0.00  0.00    +0.000 A 
ATOM     25  S   UNL     1      54.029   3.884  18.701  0.00  0.00    +0.000 S 
ATOM     26  C   UNL     1      52.797   2.823  18.195  0.00  0.00    +0.000 A 
ATOM     27  N   UNL     1      52.986   1.476  18.186  0.00  0.00    +0.000 NA
ATOM     28  C   UNL     1      51.975   0.799  17.754  0.00  0.00    +0.000 A 
ATOM     29  N   UNL     1      50.788   1.342  17.343  0.00  0.00    +0.000 N 
ATOM     30  C   UNL     1      50.532   2.691  17.380  0.00  0.00    +0.000 A 
ATOM     31  O   UNL     1      49.432   3.139  17.084  0.00  0.00    +0.000 OA
ATOM     32  C   UNL     1      51.652   3.503  17.823  0.00  0.00    +0.000 A 
ATOM     33  H   UNL     1      50.024   0.755  17.039  0.00  0.00    +0.000 HD
ENDBRANCH  20  23
ENDBRANCH  18  19
ENDBRANCH   4  18
TORSDOF 7
ENDMDL
MODEL 6
REMARK VINA RESULT:    -6.963      2.315      2.938
REMARK INTER + INTRA:         -10.599
REMARK INTER:                  -9.839
REMARK INTRA:                  -0.760
REMARK UNBOUND:                -0.787
REMARK  Name = 
REMARK  9 active torsions:
REMARK  status: ('A' for Active; 'I' for Inactive)
REMARK    1  A    between atoms: C_1  and  C_2
REMARK    2  A    between atoms: C_6  and  C_7
REMARK    3  A    between atoms: C_7  and  O_8
REMARK    4  A    between atoms: O_8  and  C_9
REMARK    5  A    between atoms: C_9  and  C_10
REMARK    6  A    between atoms: C_9  and  C_11
REMARK    7  A    between atoms: C_14  and  C_15
REMARK    8  A    between atoms: C_15  and  N_16
REMARK    9  A    between atoms: C_17  and  C_19
REMARK                            x       y       z     vdW  Elec       q    Type
REMARK                         _______ _______ _______ _____ _____    ______ ____
ROOT
ATOM      1  C   UNL     1      44.749   5.752  11.410  0.00  0.00    +0.000 A 
ATOM      2  C   UNL     1      45.585   5.433  12.480  0.00  0.00    +0.000 A 
ATOM      3  C   UNL     1      46.193   6.457  13.215  0.00  0.00    +0.000 A 
ATOM      4  C   UNL     1      45.954   7.789  12.879  0.00  0.00    +0.000 A 
ATOM      5  C   UNL     1      45.124   8.015  11.785  0.00  0.00    +0.000 A 
ATOM      6  N   UNL     1      44.513   7.042  11.057  0.00  0.00    +0.000 NA
ENDROOT
BRANCH   1   7
ATOM      7  C   UNL     1      44.018   4.651  10.641  0.00  0.00    +0.000 C 
ATOM      8  C   UNL     1      43.206   3.803  11.623  0.00  0.00    +0.000 C 
BRANCH   7   9
ATOM      9  O   UNL     1      44.989   3.860   9.936  0.00  0.00    +0.000 OA
BRANCH   9  10
ATOM     10  C   UNL     1      44.837   3.846   8.518  0.00  0.00    +0.000 C 
BRANCH  10  16
ATOM     11  C   UNL     1      46.743  -0.539   7.662  0.00  0.00    +0.000 C 
ATOM     12  C   UNL     1      46.829   0.943   7.478  0.00  0.00    +0.000 A 
ATOM     13  N   UNL     1      47.876   1.437   6.795  0.00  0.00    +0.000 NA
ATOM     14  C   UNL     1      47.917   2.773   6.657  0.00  0.00    +0.000 A 
ATOM     15  C   UNL     1      46.965   3.623   7.170  0.00  0.00    +0.000 A 
ATOM     16  C   UNL     1      45.933   3.031   7.873  0.00  0.00    +0.000 A 
ATOM     17  N   UNL     1      45.847   1.687   8.019  0.00  0.00    +0.000 NA
ENDBRANCH  10  16
ENDBRANCH   9  10
ENDBRANCH   7   9
ENDBRANCH   1   7
BRANCH   4  18
ATOM     18  C   UNL     1      46.549   8.944  13.642  0.00  0.00    +0.000 C 
BRANCH  18  19
ATOM     19  N   UNL     1      47.830   8.625  14.223  0.00  0.00    +0.000 N 
ATOM     20  C   UNL     1      48.944   8.399  13.446  0.00  0.00    +0.000 C 
ATOM     21  O   UNL     1      48.929   8.475  12.228  0.00  0.00    +0.000 OA
ATOM     22  H   UNL     1      47.813   8.213  15.149  0.00  0.00    +0.000 HD
BRANCH  20  23
ATOM     23  C   UNL     1      50.178   8.125  14.195  0.00  0.00    +0.000 A 
ATOM     24  C   UNL     1      51.356   8.784  13.869  0.00  0.00    +0.000 A 
ATOM     25  S   UNL     1      52.674   8.356  14.868  0.00  0.00    +0.000 S 
ATOM     26  C   UNL     1      51.723   7.246  15.742  0.00  0.00    +0.000 A 
ATOM     27  N   UNL     1      52.258   6.499  16.746  0.00  0.00    +0.000 NA
ATOM     28  C   UNL     1      51.426   5.683  17.303  0.00  0.00    +0.000 A 
ATOM     29  N   UNL     1      50.107   5.554  16.958  0.00  0.00    +0.000 N 
ATOM     30  C   UNL     1      49.512   6.319  15.987  0.00  0.00    +0.000 A 
ATOM     31  O   UNL     1      48.311   6.238  15.758  0.00  0.00    +0.000 OA
ATOM     32  C   UNL     1      50.414   7.228  15.301  0.00  0.00    +0.000 A 
ATOM     33  H   UNL     1      49.501   4.912  17.451  0.00  0.00    +0.000 HD
ENDBRANCH  20  23
ENDBRANCH  18  19
ENDBRANCH   4  18
TORSDOF 7
ENDMDL
MODEL 7
REMARK VINA RESULT:    -6.669      4.876      8.396
REMARK INTER + INTRA:         -10.186
REMARK INTER:                  -9.099
REMARK INTRA:                  -1.087
REMARK UNBOUND:                -0.787
REMARK  Name = 
REMARK  9 active torsions:
REMARK  status: ('A' for Active; 'I' for Inactive)
REMARK    1  A    between atoms: C_1  and  C_2
REMARK    2  A    between atoms: C_6  and  C_7
REMARK    3  A    between atoms: C_7  and  O_8
REMARK    4  A    between atoms: O_8  and  C_9
REMARK    5  A    between atoms: C_9  and  C_10
REMARK    6  A    between atoms: C_9  and  C_11
REMARK    7  A    between atoms: C_14  and  C_15
REMARK    8  A    between atoms: C_15  and  N_16
REMARK    9  A    between atoms: C_17  and  C_19
REMARK                            x       y       z     vdW  Elec       q    Type
REMARK                         _______ _______ _______ _____ _____    ______ ____
ROOT
ATOM      1  C   UNL     1      50.367   8.896  11.799  0.00  0.00    +0.000 A 
ATOM      2  C   UNL     1      49.790   7.692  11.398  0.00  0.00    +0.000 A 
ATOM      3  C   UNL     1      48.484   7.382  11.792  0.00  0.00    +0.000 A 
ATOM      4  C   UNL     1      47.765   8.282  12.577  0.00  0.00    +0.000 A 
ATOM      5  C   UNL     1      48.425   9.450  12.948  0.00  0.00    +0.000 A 
ATOM      6  N   UNL     1      49.690   9.781  12.574  0.00  0.00    +0.000 NA
ENDROOT
BRANCH   1   7
ATOM      7  C   UNL     1      51.766   9.285  11.319  0.00  0.00    +0.000 C 
ATOM      8  C   UNL     1      51.665  10.516  10.414  0.00  0.00    +0.000 C 
BRANCH   7   9
ATOM      9  O   UNL     1      52.342   8.166  10.625  0.00  0.00    +0.000 OA
BRANCH   9  10
ATOM     10  C   UNL     1      53.513   8.468   9.867  0.00  0.00    +0.000 C 
BRANCH  10  16
ATOM     11  C   UNL     1      53.335   4.535   7.022  0.00  0.00    +0.000 C 
ATOM     12  C   UNL     1      53.324   6.027   7.132  0.00  0.00    +0.000 A 
ATOM     13  N   UNL     1      53.256   6.745   5.998  0.00  0.00    +0.000 NA
ATOM     14  C   UNL     1      53.252   8.082   6.141  0.00  0.00    +0.000 A 
ATOM     15  C   UNL     1      53.316   8.718   7.359  0.00  0.00    +0.000 A 
ATOM     16  C   UNL     1      53.403   7.902   8.471  0.00  0.00    +0.000 A 
ATOM     17  N   UNL     1      53.391   6.552   8.368  0.00  0.00    +0.000 NA
ENDBRANCH  10  16
ENDBRANCH   9  10
ENDBRANCH   7   9
ENDBRANCH   1   7
BRANCH   4  18
ATOM     18  C   UNL     1      46.345   8.032  13.015  0.00  0.00    +0.000 C 
BRANCH  18  19
ATOM     19  N   UNL     1      45.872   6.721  12.643  0.00  0.00    +0.000 N 
ATOM     20  C   UNL     1      44.815   6.547  11.779  0.00  0.00    +0.000 C 
ATOM     21  O   UNL     1      44.227   7.481  11.256  0.00  0.00    +0.000 OA
ATOM     22  H   UNL     1      46.074   5.970  13.294  0.00  0.00    +0.000 HD
BRANCH  20  23
ATOM     23  C   UNL     1      44.485   5.149  11.473  0.00  0.00    +0.000 A 
ATOM     24  C   UNL     1      43.722   4.399  12.359  0.00  0.00    +0.000 A 
ATOM     25  S   UNL     1      43.419   2.808  11.817  0.00  0.00    +0.000 S 
ATOM     26  C   UNL     1      44.331   3.056  10.401  0.00  0.00    +0.000 A 
ATOM     27  N   UNL     1      44.505   2.058   9.492  0.00  0.00    +0.000 NA
ATOM     28  C   UNL     1      45.239   2.382   8.480  0.00  0.00    +0.000 A 
ATOM     29  N   UNL     1      45.805   3.614   8.286  0.00  0.00    +0.000 N 
ATOM     30  C   UNL     1      45.618   4.665   9.149  0.00  0.00    +0.000 A 
ATOM     31  O   UNL     1      46.069   5.777   8.907  0.00  0.00    +0.000 OA
ATOM     32  C   UNL     1      44.829   4.343  10.326  0.00  0.00    +0.000 A 
ATOM     33  H   UNL     1      46.351   3.812   7.459  0.00  0.00    +0.000 HD
ENDBRANCH  20  23
ENDBRANCH  18  19
ENDBRANCH   4  18
TORSDOF 7
ENDMDL
MODEL 8
REMARK VINA RESULT:    -6.607      3.484      5.286
REMARK INTER + INTRA:         -10.098
REMARK INTER:                  -9.003
REMARK INTRA:                  -1.095
REMARK UNBOUND:                -0.787
REMARK  Name = 
REMARK  9 active torsions:
REMARK  status: ('A' for Active; 'I' for Inactive)
REMARK    1  A    between atoms: C_1  and  C_2
REMARK    2  A    between atoms: C_6  and  C_7
REMARK    3  A    between atoms: C_7  and  O_8
REMARK    4  A    between atoms: O_8  and  C_9
REMARK    5  A    between atoms: C_9  and  C_10
REMARK    6  A    between atoms: C_9  and  C_11
REMARK    7  A    between atoms: C_14  and  C_15
REMARK    8  A    between atoms: C_15  and  N_16
REMARK    9  A    between atoms: C_17  and  C_19
REMARK                            x       y       z     vdW  Elec       q    Type
REMARK                         _______ _______ _______ _____ _____    ______ ____
ROOT
ATOM      1  C   UNL     1      45.643   6.124  12.017  0.00  0.00    +0.000 A 
ATOM      2  C   UNL     1      46.032   7.461  11.947  0.00  0.00    +0.000 A 
ATOM      3  C   UNL     1      46.984   7.955  12.846  0.00  0.00    +0.000 A 
ATOM      4  C   UNL     1      47.544   7.106  13.801  0.00  0.00    +0.000 A 
ATOM      5  C   UNL     1      47.083   5.793  13.811  0.00  0.00    +0.000 A 
ATOM      6  N   UNL     1      46.165   5.283  12.947  0.00  0.00    +0.000 NA
ENDROOT
BRANCH   1   7
ATOM      7  C   UNL     1      44.659   5.547  10.999  0.00  0.00    +0.000 C 
ATOM      8  C   UNL     1      43.229   5.874  11.437  0.00  0.00    +0.000 C 
BRANCH   7   9
ATOM      9  O   UNL     1      44.872   4.128  10.907  0.00  0.00    +0.000 OA
BRANCH   9  10
ATOM     10  C   UNL     1      44.258   3.501   9.782  0.00  0.00    +0.000 C 
BRANCH  10  16
ATOM     11  C   UNL     1      46.806  -0.049   7.662  0.00  0.00    +0.000 C 
ATOM     12  C   UNL     1      46.502   1.412   7.764  0.00  0.00    +0.000 A 
ATOM     13  N   UNL     1      47.189   2.258   6.977  0.00  0.00    +0.000 NA
ATOM     14  C   UNL     1      46.887   3.562   7.103  0.00  0.00    +0.000 A 
ATOM     15  C   UNL     1      45.940   4.045   7.976  0.00  0.00    +0.000 A 
ATOM     16  C   UNL     1      45.296   3.107   8.759  0.00  0.00    +0.000 A 
ATOM     17  N   UNL     1      45.559   1.783   8.648  0.00  0.00    +0.000 NA
ENDBRANCH  10  16
ENDBRANCH   9  10
ENDBRANCH   7   9
ENDBRANCH   1   7
BRANCH   4  18
ATOM     18  C   UNL     1      48.595   7.558  14.781  0.00  0.00    +0.000 C 
BRANCH  18  19
ATOM     19  N   UNL     1      49.704   8.221  14.139  0.00  0.00    +0.000 N 
ATOM     20  C   UNL     1      51.007   7.990  14.520  0.00  0.00    +0.000 C 
ATOM     21  O   UNL     1      51.310   7.202  15.401  0.00  0.00    +0.000 OA
ATOM     22  H   UNL     1      49.497   9.102  13.684  0.00  0.00    +0.000 HD
BRANCH  20  23
ATOM     23  C   UNL     1      52.019   8.714  13.740  0.00  0.00    +0.000 A 
ATOM     24  C   UNL     1      52.966   9.503  14.380  0.00  0.00    +0.000 A 
ATOM     25  S   UNL     1      54.074  10.239  13.310  0.00  0.00    +0.000 S 
ATOM     26  C   UNL     1      53.301   9.561  11.953  0.00  0.00    +0.000 A 
ATOM     27  N   UNL     1      53.737   9.822  10.690  0.00  0.00    +0.000 NA
ATOM     28  C   UNL     1      53.040   9.261   9.759  0.00  0.00    +0.000 A 
ATOM     29  N   UNL     1      51.955   8.453   9.974  0.00  0.00    +0.000 N 
ATOM     30  C   UNL     1      51.509   8.121  11.228  0.00  0.00    +0.000 A 
ATOM     31  O   UNL     1      50.587   7.331  11.389  0.00  0.00    +0.000 OA
ATOM     32  C   UNL     1      52.236   8.758  12.313  0.00  0.00    +0.000 A 
ATOM     33  H   UNL     1      51.466   8.023   9.201  0.00  0.00    +0.000 HD
ENDBRANCH  20  23
ENDBRANCH  18  19
ENDBRANCH   4  18
TORSDOF 7
ENDMDL
MODEL 9
REMARK VINA RESULT:    -6.509      2.487      3.291
REMARK INTER + INTRA:          -9.960
REMARK INTER:                  -9.067
REMARK INTRA:                  -0.893
REMARK UNBOUND:                -0.787
REMARK  Name = 
REMARK  9 active torsions:
REMARK  status: ('A' for Active; 'I' for Inactive)
REMARK    1  A    between atoms: C_1  and  C_2
REMARK    2  A    between atoms: C_6  and  C_7
REMARK    3  A    between atoms: C_7  and  O_8
REMARK    4  A    between atoms: O_8  and  C_9
REMARK    5  A    between atoms: C_9  and  C_10
REMARK    6  A    between atoms: C_9  and  C_11
REMARK    7  A    between atoms: C_14  and  C_15
REMARK    8  A    between atoms: C_15  and  N_16
REMARK    9  A    between atoms: C_17  and  C_19
REMARK                            x       y       z     vdW  Elec       q    Type
REMARK                         _______ _______ _______ _____ _____    ______ ____
ROOT
ATOM      1  C   UNL     1      45.287   5.039  11.934  0.00  0.00    +0.000 A 
ATOM      2  C   UNL     1      45.920   4.442  13.023  0.00  0.00    +0.000 A 
ATOM      3  C   UNL     1      46.846   5.173  13.775  0.00  0.00    +0.000 A 
ATOM      4  C   UNL     1      47.124   6.497  13.437  0.00  0.00    +0.000 A 
ATOM      5  C   UNL     1      46.462   7.006  12.324  0.00  0.00    +0.000 A 
ATOM      6  N   UNL     1      45.553   6.323  11.578  0.00  0.00    +0.000 NA
ENDROOT
BRANCH   1   7
ATOM      7  C   UNL     1      44.220   4.282  11.144  0.00  0.00    +0.000 C 
ATOM      8  C   UNL     1      43.859   2.994  11.889  0.00  0.00    +0.000 C 
BRANCH   7   9
ATOM      9  O   UNL     1      44.730   4.005   9.829  0.00  0.00    +0.000 OA
BRANCH   9  10
ATOM     10  C   UNL     1      44.349   2.741   9.290  0.00  0.00    +0.000 C 
BRANCH  10  16
ATOM     11  C   UNL     1      47.139   3.528   5.394  0.00  0.00    +0.000 C 
ATOM     12  C   UNL     1      46.726   2.607   6.496  0.00  0.00    +0.000 A 
ATOM     13  N   UNL     1      47.292   1.388   6.548  0.00  0.00    +0.000 NA
ATOM     14  C   UNL     1      46.889   0.590   7.553  0.00  0.00    +0.000 A 
ATOM     15  C   UNL     1      45.953   0.958   8.491  0.00  0.00    +0.000 A 
ATOM     16  C   UNL     1      45.410   2.220   8.350  0.00  0.00    +0.000 A 
ATOM     17  N   UNL     1      45.803   3.060   7.363  0.00  0.00    +0.000 NA
ENDBRANCH  10  16
ENDBRANCH   9  10
ENDBRANCH   7   9
ENDBRANCH   1   7
BRANCH   4  18
ATOM     18  C   UNL     1      48.085   7.355  14.217  0.00  0.00    +0.000 C 
BRANCH  18  19
ATOM     19  N   UNL     1      49.073   6.580  14.927  0.00  0.00    +0.000 N 
ATOM     20  C   UNL     1      49.503   6.929  16.187  0.00  0.00    +0.000 C 
ATOM     21  O   UNL     1      49.067   7.897  16.791  0.00  0.00    +0.000 OA
ATOM     22  H   UNL     1      49.695   6.017  14.358  0.00  0.00    +0.000 HD
BRANCH  20  23
ATOM     23  C   UNL     1      50.482   6.013  16.786  0.00  0.00    +0.000 A 
ATOM     24  C   UNL     1      50.059   4.841  17.401  0.00  0.00    +0.000 A 
ATOM     25  S   UNL     1      51.343   3.893  18.011  0.00  0.00    +0.000 S 
ATOM     26  C   UNL     1      52.501   5.036  17.510  0.00  0.00    +0.000 A 
ATOM     27  N   UNL     1      53.826   4.850  17.756  0.00  0.00    +0.000 NA
ATOM     28  C   UNL     1      54.584   5.810  17.342  0.00  0.00    +0.000 A 
ATOM     29  N   UNL     1      54.142   6.932  16.693  0.00  0.00    +0.000 N 
ATOM     30  C   UNL     1      52.822   7.140  16.379  0.00  0.00    +0.000 A 
ATOM     31  O   UNL     1      52.469   8.114  15.726  0.00  0.00    +0.000 OA
ATOM     32  C   UNL     1      51.920   6.107  16.857  0.00  0.00    +0.000 A 
ATOM     33  H   UNL     1      54.791   7.637  16.371  0.00  0.00    +0.000 HD
ENDBRANCH  20  23
ENDBRANCH  18  19
ENDBRANCH   4  18
TORSDOF 7
ENDMDL
