MODEL 1
REMARK VINA RESULT:    -7.495      0.000      0.000
REMARK INTER + INTRA:         -10.041
REMARK INTER:                  -9.466
REMARK INTRA:                  -0.574
REMARK UNBOUND:                -0.574
REMARK  Name = 
REMARK  5 active torsions:
REMARK  status: ('A' for Active; 'I' for Inactive)
REMARK    1  A    between atoms: N_1  and  C_2
REMARK    2  A    between atoms: C_2  and  C_3
REMARK    3  A    between atoms: C_6  and  C_7
REMARK    4  A    between atoms: C_7  and  N_8
REMARK    5  A    between atoms: C_13  and  C_14
REMARK                            x       y       z     vdW  Elec       q    Type
REMARK                         _______ _______ _______ _____ _____    ______ ____
ROOT
ATOM      1  N   UNL     1      44.384   4.735  10.478  0.00  0.00    +0.000 N 
ATOM      2  C   UNL     1      43.643   3.721  11.036  0.00  0.00    +0.000 A 
ATOM      3  C   UNL     1      44.055   2.535  10.478  0.00  0.00    +0.000 A 
ATOM      4  C   UNL     1      44.978   2.844   9.447  0.00  0.00    +0.000 A 
ATOM      5  C   UNL     1      45.670   2.056   8.505  0.00  0.00    +0.000 A 
ATOM      6  C   UNL     1      46.483   2.680   7.552  0.00  0.00    +0.000 A 
ATOM      7  C   UNL     1      46.654   4.067   7.572  0.00  0.00    +0.000 A 
ATOM      8  C   UNL     1      46.005   4.862   8.519  0.00  0.00    +0.000 A 
ATOM      9  C   UNL     1      45.157   4.233   9.445  0.00  0.00    +0.000 A 
ENDROOT
BRANCH   6  10
ATOM     10  C   UNL     1      47.191   1.898   6.506  0.00  0.00    +0.000 C 
ATOM     11  N   UNL     1      47.934   2.597   5.593  0.00  0.00    +0.000 N 
ATOM     12  O   UNL     1      47.145   0.678   6.475  0.00  0.00    +0.000 OA
ATOM     13  H   UNL     1      48.158   3.578   5.696  0.00  0.00    +0.000 HD
ATOM     14  H   UNL     1      48.494   2.049   4.950  0.00  0.00    +0.000 HD
ENDBRANCH   6  10
BRANCH   1  15
ATOM     15  C   UNL     1      44.337   6.124  10.923  0.00  0.00    +0.000 C 
BRANCH  15  19
ATOM     16  C   UNL     1      47.409   8.139  12.208  0.00  0.00    +0.000 C 
ATOM     17  C   UNL     1      47.428   6.670  11.746  0.00  0.00    +0.000 C 
ATOM     18  C   UNL     1      46.382   5.805  12.452  0.00  0.00    +0.000 C 
ATOM     19  C   UNL     1      44.952   6.358  12.325  0.00  0.00    +0.000 C 
ATOM     20  C   UNL     1      44.905   7.846  12.719  0.00  0.00    +0.000 C 
ATOM     21  C   UNL     1      45.986   8.703  12.061  0.00  0.00    +0.000 C 
BRANCH  16  22
ATOM     22  C   UNL     1      48.031   8.272  13.619  0.00  0.00    +0.000 C 
BRANCH  22  23
ATOM     23  N   UNL     1      47.189   8.998  14.567  0.00  0.00    +0.000 NA
ATOM     24  H   UNL     1      47.213   8.518  15.473  0.00  0.00    +0.000 HD
ATOM     25  H   UNL     1      46.219   8.970  14.263  0.00  0.00    +0.000 HD
ENDBRANCH  22  23
ENDBRANCH  16  22
ENDBRANCH  15  19
ENDBRANCH   1  15
TORSDOF 5
ENDMDL
MODEL 2
REMARK VINA RESULT:    -7.033      2.572      6.832
REMARK INTER + INTRA:          -9.457
REMARK INTER:                  -8.690
REMARK INTRA:                  -0.767
REMARK UNBOUND:                -0.574
REMARK  Name = 
REMARK  5 active torsions:
REMARK  status: ('A' for Active; 'I' for Inactive)
REMARK    1  A    between atoms: N_1  and  C_2
REMARK    2  A    between atoms: C_2  and  C_3
REMARK    3  A    between atoms: C_6  and  C_7
REMARK    4  A    between atoms: C_7  and  N_8
REMARK    5  A    between atoms: C_13  and  C_14
REMARK                            x       y       z     vdW  Elec       q    Type
REMARK                         _______ _______ _______ _____ _____    ______ ____
ROOT
ATOM      1  N   UNL     1      44.324   4.016  11.054  0.00  0.00    +0.000 N 
ATOM      2  C   UNL     1      42.988   4.176  11.333  0.00  0.00    +0.000 A 
ATOM      3  C   UNL     1      42.791   5.470  11.751  0.00  0.00    +0.000 A 
ATOM      4  C   UNL     1      44.066   6.082  11.866  0.00  0.00    +0.000 A 
ATOM      5  C   UNL     1      44.488   7.353  12.304  0.00  0.00    +0.000 A 
ATOM      6  C   UNL     1      45.857   7.640  12.361  0.00  0.00    +0.000 A 
ATOM      7  C   UNL     1      46.793   6.696  11.931  0.00  0.00    +0.000 A 
ATOM      8  C   UNL     1      46.393   5.444  11.459  0.00  0.00    +0.000 A 
ATOM      9  C   UNL     1      45.021   5.147  11.446  0.00  0.00    +0.000 A 
ENDROOT
BRANCH   6  10
ATOM     10  C   UNL     1      46.354   8.946  12.865  0.00  0.00    +0.000 C 
ATOM     11  N   UNL     1      46.794   8.994  14.161  0.00  0.00    +0.000 N 
ATOM     12  O   UNL     1      46.403   9.935  12.149  0.00  0.00    +0.000 OA
ATOM     13  H   UNL     1      46.954   8.168  14.722  0.00  0.00    +0.000 HD
ATOM     14  H   UNL     1      47.225   9.861  14.461  0.00  0.00    +0.000 HD
ENDBRANCH   6  10
BRANCH   1  15
ATOM     15  C   UNL     1      44.896   2.820  10.445  0.00  0.00    +0.000 C 
BRANCH  15  19
ATOM     16  C   UNL     1      47.097   2.865   7.235  0.00  0.00    +0.000 C 
ATOM     17  C   UNL     1      46.449   4.095   7.896  0.00  0.00    +0.000 C 
ATOM     18  C   UNL     1      44.945   3.931   8.125  0.00  0.00    +0.000 C 
ATOM     19  C   UNL     1      44.588   2.673   8.935  0.00  0.00    +0.000 C 
ATOM     20  C   UNL     1      45.272   1.428   8.340  0.00  0.00    +0.000 C 
ATOM     21  C   UNL     1      46.763   1.608   8.055  0.00  0.00    +0.000 C 
BRANCH  16  22
ATOM     22  C   UNL     1      46.725   2.796   5.735  0.00  0.00    +0.000 C 
BRANCH  22  23
ATOM     23  N   UNL     1      47.876   2.632   4.850  0.00  0.00    +0.000 NA
ATOM     24  H   UNL     1      47.973   3.470   4.267  0.00  0.00    +0.000 HD
ATOM     25  H   UNL     1      47.713   1.862   4.207  0.00  0.00    +0.000 HD
ENDBRANCH  22  23
ENDBRANCH  16  22
ENDBRANCH  15  19
ENDBRANCH   1  15
TORSDOF 5
ENDMDL
MODEL 3
REMARK VINA RESULT:    -6.448      1.379      1.661
REMARK INTER + INTRA:          -8.719
REMARK INTER:                  -7.901
REMARK INTRA:                  -0.818
REMARK UNBOUND:                -0.574
REMARK  Name = 
REMARK  5 active torsions:
REMARK  status: ('A' for Active; 'I' for Inactive)
REMARK    1  A    between atoms: N_1  and  C_2
REMARK    2  A    between atoms: C_2  and  C_3
REMARK    3  A    between atoms: C_6  and  C_7
REMARK    4  A    between atoms: C_7  and  N_8
REMARK    5  A    between atoms: C_13  and  C_14
REMARK                            x       y       z     vdW  Elec       q    Type
REMARK                         _______ _______ _______ _____ _____    ______ ____
ROOT
ATOM      1  N   UNL     1      44.356   5.897  11.492  0.00  0.00    +0.000 N 
ATOM      2  C   UNL     1      43.523   5.148  12.288  0.00  0.00    +0.000 A 
ATOM      3  C   UNL     1      43.656   3.830  11.923  0.00  0.00    +0.000 A 
ATOM      4  C   UNL     1      44.491   3.785  10.777  0.00  0.00    +0.000 A 
ATOM      5  C   UNL     1      44.921   2.736   9.940  0.00  0.00    +0.000 A 
ATOM      6  C   UNL     1      45.710   3.029   8.822  0.00  0.00    +0.000 A 
ATOM      7  C   UNL     1      46.118   4.342   8.573  0.00  0.00    +0.000 A 
ATOM      8  C   UNL     1      45.733   5.391   9.411  0.00  0.00    +0.000 A 
ATOM      9  C   UNL     1      44.904   5.095  10.505  0.00  0.00    +0.000 A 
ENDROOT
BRANCH   6  10
ATOM     10  C   UNL     1      46.145   1.966   7.880  0.00  0.00    +0.000 C 
ATOM     11  N   UNL     1      46.634   2.363   6.665  0.00  0.00    +0.000 N 
ATOM     12  O   UNL     1      46.102   0.783   8.183  0.00  0.00    +0.000 OA
ATOM     13  H   UNL     1      46.869   3.323   6.450  0.00  0.00    +0.000 HD
ATOM     14  H   UNL     1      47.023   1.637   6.074  0.00  0.00    +0.000 HD
ENDBRANCH   6  10
BRANCH   1  15
ATOM     15  C   UNL     1      44.602   7.324  11.677  0.00  0.00    +0.000 C 
BRANCH  15  19
ATOM     16  C   UNL     1      48.323   8.425  11.982  0.00  0.00    +0.000 C 
ATOM     17  C   UNL     1      47.816   6.971  11.955  0.00  0.00    +0.000 C 
ATOM     18  C   UNL     1      46.724   6.697  12.991  0.00  0.00    +0.000 C 
ATOM     19  C   UNL     1      45.525   7.654  12.876  0.00  0.00    +0.000 C 
ATOM     20  C   UNL     1      45.998   9.120  12.835  0.00  0.00    +0.000 C 
ATOM     21  C   UNL     1      47.130   9.385  11.843  0.00  0.00    +0.000 C 
BRANCH  16  22
ATOM     22  C   UNL     1      49.224   8.663  13.216  0.00  0.00    +0.000 C 
BRANCH  22  23
ATOM     23  N   UNL     1      50.176   7.582  13.466  0.00  0.00    +0.000 NA
ATOM     24  H   UNL     1      49.865   7.041  14.279  0.00  0.00    +0.000 HD
ATOM     25  H   UNL     1      51.082   7.968  13.719  0.00  0.00    +0.000 HD
ENDBRANCH  22  23
ENDBRANCH  16  22
ENDBRANCH  15  19
ENDBRANCH   1  15
TORSDOF 5
ENDMDL
MODEL 4
REMARK VINA RESULT:    -5.859      4.227      6.026
REMARK INTER + INTRA:          -7.974
REMARK INTER:                  -7.367
REMARK INTRA:                  -0.607
REMARK UNBOUND:                -0.574
REMARK  Name = 
REMARK  5 active torsions:
REMARK  status: ('A' for Active; 'I' for Inactive)
REMARK    1  A    between atoms: N_1  and  C_2
REMARK    2  A    between atoms: C_2  and  C_3
REMARK    3  A    between atoms: C_6  and  C_7
REMARK    4  A    between atoms: C_7  and  N_8
REMARK    5  A    between atoms: C_13  and  C_14
REMARK                            x       y       z     vdW  Elec       q    Type
REMARK                         _______ _______ _______ _____ _____    ______ ____
ROOT
ATOM      1  N   UNL     1      47.754   6.270  14.071  0.00  0.00    +0.000 N 
ATOM      2  C   UNL     1      47.561   7.491  13.468  0.00  0.00    +0.000 A 
ATOM      3  C   UNL     1      46.516   7.370  12.585  0.00  0.00    +0.000 A 
ATOM      4  C   UNL     1      46.147   6.001  12.542  0.00  0.00    +0.000 A 
ATOM      5  C   UNL     1      45.202   5.282  11.784  0.00  0.00    +0.000 A 
ATOM      6  C   UNL     1      45.119   3.892  11.929  0.00  0.00    +0.000 A 
ATOM      7  C   UNL     1      45.924   3.232  12.861  0.00  0.00    +0.000 A 
ATOM      8  C   UNL     1      46.842   3.931  13.648  0.00  0.00    +0.000 A 
ATOM      9  C   UNL     1      46.951   5.319  13.465  0.00  0.00    +0.000 A 
ENDROOT
BRANCH   6  10
ATOM     10  C   UNL     1      44.175   3.083  11.115  0.00  0.00    +0.000 C 
ATOM     11  N   UNL     1      44.688   2.415  10.036  0.00  0.00    +0.000 N 
ATOM     12  O   UNL     1      42.993   2.985  11.409  0.00  0.00    +0.000 OA
ATOM     13  H   UNL     1      45.680   2.310   9.871  0.00  0.00    +0.000 HD
ATOM     14  H   UNL     1      44.059   1.787   9.551  0.00  0.00    +0.000 HD
ENDBRANCH   6  10
BRANCH   1  15
ATOM     15  C   UNL     1      48.680   6.039  15.175  0.00  0.00    +0.000 C 
BRANCH  15  19
ATOM     16  C   UNL     1      49.708   4.650  18.663  0.00  0.00    +0.000 C 
ATOM     17  C   UNL     1      48.914   3.882  17.589  0.00  0.00    +0.000 C 
ATOM     18  C   UNL     1      47.683   4.644  17.094  0.00  0.00    +0.000 C 
ATOM     19  C   UNL     1      48.011   6.053  16.571  0.00  0.00    +0.000 C 
ATOM     20  C   UNL     1      48.860   6.831  17.594  0.00  0.00    +0.000 C 
ATOM     21  C   UNL     1      50.057   6.051  18.136  0.00  0.00    +0.000 C 
BRANCH  16  22
ATOM     22  C   UNL     1      48.958   4.619  20.016  0.00  0.00    +0.000 C 
BRANCH  22  23
ATOM     23  N   UNL     1      48.364   3.321  20.329  0.00  0.00    +0.000 NA
ATOM     24  H   UNL     1      48.442   3.151  21.337  0.00  0.00    +0.000 HD
ATOM     25  H   UNL     1      48.893   2.579  19.879  0.00  0.00    +0.000 HD
ENDBRANCH  22  23
ENDBRANCH  16  22
ENDBRANCH  15  19
ENDBRANCH   1  15
TORSDOF 5
ENDMDL
MODEL 5
REMARK VINA RESULT:    -5.852      4.910      8.477
REMARK INTER + INTRA:          -7.965
REMARK INTER:                  -7.427
REMARK INTRA:                  -0.539
REMARK UNBOUND:                -0.574
REMARK  Name = 
REMARK  5 active torsions:
REMARK  status: ('A' for Active; 'I' for Inactive)
REMARK    1  A    between atoms: N_1  and  C_2
REMARK    2  A    between atoms: C_2  and  C_3
REMARK    3  A    between atoms: C_6  and  C_7
REMARK    4  A    between atoms: C_7  and  N_8
REMARK    5  A    between atoms: C_13  and  C_14
REMARK                            x       y       z     vdW  Elec       q    Type
REMARK                         _______ _______ _______ _____ _____    ______ ____
ROOT
ATOM      1  N   UNL     1      48.264   6.372  14.428  0.00  0.00    +0.000 N 
ATOM      2  C   UNL     1      48.910   7.581  14.519  0.00  0.00    +0.000 A 
ATOM      3  C   UNL     1      49.467   7.674  15.772  0.00  0.00    +0.000 A 
ATOM      4  C   UNL     1      49.032   6.550  16.519  0.00  0.00    +0.000 A 
ATOM      5  C   UNL     1      49.224   6.149  17.857  0.00  0.00    +0.000 A 
ATOM      6  C   UNL     1      48.594   4.990  18.323  0.00  0.00    +0.000 A 
ATOM      7  C   UNL     1      47.832   4.204  17.455  0.00  0.00    +0.000 A 
ATOM      8  C   UNL     1      47.659   4.564  16.116  0.00  0.00    +0.000 A 
ATOM      9  C   UNL     1      48.257   5.753  15.667  0.00  0.00    +0.000 A 
ENDROOT
BRANCH   6  10
ATOM     10  C   UNL     1      48.723   4.554  19.738  0.00  0.00    +0.000 C 
ATOM     11  N   UNL     1      48.395   3.258  20.029  0.00  0.00    +0.000 N 
ATOM     12  O   UNL     1      49.137   5.307  20.607  0.00  0.00    +0.000 OA
ATOM     13  H   UNL     1      48.238   2.553  19.321  0.00  0.00    +0.000 HD
ATOM     14  H   UNL     1      48.584   2.944  20.974  0.00  0.00    +0.000 HD
ENDBRANCH   6  10
BRANCH   1  15
ATOM     15  C   UNL     1      47.675   5.848  13.200  0.00  0.00    +0.000 C 
BRANCH  15  19
ATOM     16  C   UNL     1      44.946   4.384  10.842  0.00  0.00    +0.000 C 
ATOM     17  C   UNL     1      45.709   5.704  10.622  0.00  0.00    +0.000 C 
ATOM     18  C   UNL     1      45.647   6.642  11.829  0.00  0.00    +0.000 C 
ATOM     19  C   UNL     1      46.134   5.986  13.133  0.00  0.00    +0.000 C 
ATOM     20  C   UNL     1      45.437   4.630  13.355  0.00  0.00    +0.000 C 
ATOM     21  C   UNL     1      45.445   3.714  12.132  0.00  0.00    +0.000 C 
BRANCH  16  22
ATOM     22  C   UNL     1      43.419   4.623  10.768  0.00  0.00    +0.000 C 
BRANCH  22  23
ATOM     23  N   UNL     1      42.631   3.619  11.480  0.00  0.00    +0.000 NA
ATOM     24  H   UNL     1      43.082   2.704  11.377  0.00  0.00    +0.000 HD
ATOM     25  H   UNL     1      41.714   3.528  11.052  0.00  0.00    +0.000 HD
ENDBRANCH  22  23
ENDBRANCH  16  22
ENDBRANCH  15  19
ENDBRANCH   1  15
TORSDOF 5
ENDMDL
MODEL 6
REMARK VINA RESULT:    -5.805      3.986      6.804
REMARK INTER + INTRA:          -7.906
REMARK INTER:                  -7.345
REMARK INTRA:                  -0.561
REMARK UNBOUND:                -0.574
REMARK  Name = 
REMARK  5 active torsions:
REMARK  status: ('A' for Active; 'I' for Inactive)
REMARK    1  A    between atoms: N_1  and  C_2
REMARK    2  A    between atoms: C_2  and  C_3
REMARK    3  A    between atoms: C_6  and  C_7
REMARK    4  A    between atoms: C_7  and  N_8
REMARK    5  A    between atoms: C_13  and  C_14
REMARK                            x       y       z     vdW  Elec       q    Type
REMARK                         _______ _______ _______ _____ _____    ______ ____
ROOT
ATOM      1  N   UNL     1      46.185   8.532  12.372  0.00  0.00    +0.000 N 
ATOM      2  C   UNL     1      45.818   9.839  12.159  0.00  0.00    +0.000 A 
ATOM      3  C   UNL     1      46.916  10.518  11.687  0.00  0.00    +0.000 A 
ATOM      4  C   UNL     1      48.023   9.635  11.744  0.00  0.00    +0.000 A 
ATOM      5  C   UNL     1      49.395   9.789  11.457  0.00  0.00    +0.000 A 
ATOM      6  C   UNL     1      50.268   8.718  11.681  0.00  0.00    +0.000 A 
ATOM      7  C   UNL     1      49.776   7.489  12.127  0.00  0.00    +0.000 A 
ATOM      8  C   UNL     1      48.415   7.305  12.383  0.00  0.00    +0.000 A 
ATOM      9  C   UNL     1      47.551   8.396  12.199  0.00  0.00    +0.000 A 
ENDROOT
BRANCH   6  10
ATOM     10  C   UNL     1      51.729   8.848  11.443  0.00  0.00    +0.000 C 
ATOM     11  N   UNL     1      52.534   7.844  11.910  0.00  0.00    +0.000 N 
ATOM     12  O   UNL     1      52.198   9.793  10.827  0.00  0.00    +0.000 OA
ATOM     13  H   UNL     1      52.177   6.960  12.247  0.00  0.00    +0.000 HD
ATOM     14  H   UNL     1      53.513   7.892  11.653  0.00  0.00    +0.000 HD
ENDBRANCH   6  10
BRANCH   1  15
ATOM     15  C   UNL     1      45.253   7.468  12.734  0.00  0.00    +0.000 C 
BRANCH  15  19
ATOM     16  C   UNL     1      43.710   3.901  12.521  0.00  0.00    +0.000 C 
ATOM     17  C   UNL     1      45.213   4.225  12.612  0.00  0.00    +0.000 C 
ATOM     18  C   UNL     1      45.677   5.223  11.550  0.00  0.00    +0.000 C 
ATOM     19  C   UNL     1      44.874   6.535  11.557  0.00  0.00    +0.000 C 
ATOM     20  C   UNL     1      43.361   6.249  11.531  0.00  0.00    +0.000 C 
ATOM     21  C   UNL     1      42.902   5.208  12.552  0.00  0.00    +0.000 C 
BRANCH  16  22
ATOM     22  C   UNL     1      43.428   2.976  11.313  0.00  0.00    +0.000 C 
BRANCH  22  23
ATOM     23  N   UNL     1      43.064   1.612  11.690  0.00  0.00    +0.000 NA
ATOM     24  H   UNL     1      42.070   1.461  11.488  0.00  0.00    +0.000 HD
ATOM     25  H   UNL     1      43.165   1.490  12.695  0.00  0.00    +0.000 HD
ENDBRANCH  22  23
ENDBRANCH  16  22
ENDBRANCH  15  19
ENDBRANCH   1  15
TORSDOF 5
ENDMDL
MODEL 7
REMARK VINA RESULT:    -5.586      3.007      4.940
REMARK INTER + INTRA:          -7.630
REMARK INTER:                  -6.964
REMARK INTRA:                  -0.665
REMARK UNBOUND:                -0.574
REMARK  Name = 
REMARK  5 active torsions:
REMARK  status: ('A' for Active; 'I' for Inactive)
REMARK    1  A    between atoms: N_1  and  C_2
REMARK    2  A    between atoms: C_2  and  C_3
REMARK    3  A    between atoms: C_6  and  C_7
REMARK    4  A    between atoms: C_7  and  N_8
REMARK    5  A    between atoms: C_13  and  C_14
REMARK                            x       y       z     vdW  Elec       q    Type
REMARK                         _______ _______ _______ _____ _____    ______ ____
ROOT
ATOM      1  N   UNL     1      47.612   6.340  13.937  0.00  0.00    +0.000 N 
ATOM      2  C   UNL     1      47.635   5.401  14.941  0.00  0.00    +0.000 A 
ATOM      3  C   UNL     1      46.936   4.299  14.510  0.00  0.00    +0.000 A 
ATOM      4  C   UNL     1      46.350   4.625  13.260  0.00  0.00    +0.000 A 
ATOM      5  C   UNL     1      45.488   3.929  12.389  0.00  0.00    +0.000 A 
ATOM      6  C   UNL     1      45.022   4.563  11.232  0.00  0.00    +0.000 A 
ATOM      7  C   UNL     1      45.455   5.852  10.912  0.00  0.00    +0.000 A 
ATOM      8  C   UNL     1      46.338   6.546  11.743  0.00  0.00    +0.000 A 
ATOM      9  C   UNL     1      46.766   5.921  12.925  0.00  0.00    +0.000 A 
ENDROOT
BRANCH   6  10
ATOM     10  C   UNL     1      44.071   3.890  10.310  0.00  0.00    +0.000 C 
ATOM     11  N   UNL     1      44.004   4.357   9.025  0.00  0.00    +0.000 N 
ATOM     12  O   UNL     1      43.397   2.935  10.666  0.00  0.00    +0.000 OA
ATOM     13  H   UNL     1      44.674   5.007   8.636  0.00  0.00    +0.000 HD
ATOM     14  H   UNL     1      43.430   3.827   8.379  0.00  0.00    +0.000 HD
ENDBRANCH   6  10
BRANCH   1  15
ATOM     15  C   UNL     1      48.370   7.587  13.965  0.00  0.00    +0.000 C 
BRANCH  15  19
ATOM     16  C   UNL     1      50.683  10.137  12.149  0.00  0.00    +0.000 C 
ATOM     17  C   UNL     1      49.611   9.259  11.476  0.00  0.00    +0.000 C 
ATOM     18  C   UNL     1      49.759   7.773  11.807  0.00  0.00    +0.000 C 
ATOM     19  C   UNL     1      49.773   7.486  13.318  0.00  0.00    +0.000 C 
ATOM     20  C   UNL     1      50.791   8.392  14.036  0.00  0.00    +0.000 C 
ATOM     21  C   UNL     1      50.685   9.870  13.663  0.00  0.00    +0.000 C 
BRANCH  16  22
ATOM     22  C   UNL     1      52.049   9.962  11.443  0.00  0.00    +0.000 C 
BRANCH  22  23
ATOM     23  N   UNL     1      51.981  10.095   9.990  0.00  0.00    +0.000 NA
ATOM     24  H   UNL     1      51.146   9.609   9.646  0.00  0.00    +0.000 HD
ATOM     25  H   UNL     1      52.773   9.625   9.560  0.00  0.00    +0.000 HD
ENDBRANCH  22  23
ENDBRANCH  16  22
ENDBRANCH  15  19
ENDBRANCH   1  15
TORSDOF 5
ENDMDL
MODEL 8
REMARK VINA RESULT:    -5.550      3.124      4.849
REMARK INTER + INTRA:          -7.585
REMARK INTER:                  -6.999
REMARK INTRA:                  -0.585
REMARK UNBOUND:                -0.574
REMARK  Name = 
REMARK  5 active torsions:
REMARK  status: ('A' for Active; 'I' for Inactive)
REMARK    1  A    between atoms: N_1  and  C_2
REMARK    2  A    between atoms: C_2  and  C_3
REMARK    3  A    between atoms: C_6  and  C_7
REMARK    4  A    between atoms: C_7  and  N_8
REMARK    5  A    between atoms: C_13  and  C_14
REMARK                            x       y       z     vdW  Elec       q    Type
REMARK                         _______ _______ _______ _____ _____    ______ ____
ROOT
ATOM      1  N   UNL     1      46.495   7.403  12.888  0.00  0.00    +0.000 N 
ATOM      2  C   UNL     1      45.872   8.364  12.127  0.00  0.00    +0.000 A 
ATOM      3  C   UNL     1      44.843   7.764  11.442  0.00  0.00    +0.000 A 
ATOM      4  C   UNL     1      44.924   6.369  11.681  0.00  0.00    +0.000 A 
ATOM      5  C   UNL     1      44.190   5.264  11.202  0.00  0.00    +0.000 A 
ATOM      6  C   UNL     1      44.565   3.972  11.586  0.00  0.00    +0.000 A 
ATOM      7  C   UNL     1      45.619   3.781  12.484  0.00  0.00    +0.000 A 
ATOM      8  C   UNL     1      46.336   4.864  12.998  0.00  0.00    +0.000 A 
ATOM      9  C   UNL     1      45.983   6.155  12.574  0.00  0.00    +0.000 A 
ENDROOT
BRANCH   6  10
ATOM     10  C   UNL     1      43.856   2.774  11.067  0.00  0.00    +0.000 C 
ATOM     11  N   UNL     1      44.345   2.199   9.925  0.00  0.00    +0.000 N 
ATOM     12  O   UNL     1      42.895   2.294  11.649  0.00  0.00    +0.000 OA
ATOM     13  H   UNL     1      45.242   2.440   9.525  0.00  0.00    +0.000 HD
ATOM     14  H   UNL     1      43.919   1.325   9.639  0.00  0.00    +0.000 HD
ENDBRANCH   6  10
BRANCH   1  15
ATOM     15  C   UNL     1      47.542   7.683  13.864  0.00  0.00    +0.000 C 
BRANCH  15  19
ATOM     16  C   UNL     1      50.865   9.310  12.655  0.00  0.00    +0.000 C 
ATOM     17  C   UNL     1      49.715   8.836  11.747  0.00  0.00    +0.000 C 
ATOM     18  C   UNL     1      49.301   7.387  12.009  0.00  0.00    +0.000 C 
ATOM     19  C   UNL     1      48.931   7.117  13.478  0.00  0.00    +0.000 C 
ATOM     20  C   UNL     1      50.032   7.636  14.422  0.00  0.00    +0.000 C 
ATOM     21  C   UNL     1      50.491   9.064  14.125  0.00  0.00    +0.000 C 
BRANCH  16  22
ATOM     22  C   UNL     1      52.206   8.686  12.200  0.00  0.00    +0.000 C 
BRANCH  22  23
ATOM     23  N   UNL     1      52.453   8.804  10.764  0.00  0.00    +0.000 NA
ATOM     24  H   UNL     1      53.051   9.619  10.592  0.00  0.00    +0.000 HD
ATOM     25  H   UNL     1      51.581   8.991  10.276  0.00  0.00    +0.000 HD
ENDBRANCH  22  23
ENDBRANCH  16  22
ENDBRANCH  15  19
ENDBRANCH   1  15
TORSDOF 5
ENDMDL
MODEL 9
REMARK VINA RESULT:    -5.228      4.480      8.275
REMARK INTER + INTRA:          -7.177
REMARK INTER:                  -6.557
REMARK INTRA:                  -0.621
REMARK UNBOUND:                -0.574
REMARK  Name = 
REMARK  5 active torsions:
REMARK  status: ('A' for Active; 'I' for Inactive)
REMARK    1  A    between atoms: N_1  and  C_2
REMARK    2  A    between atoms: C_2  and  C_3
REMARK    3  A    between atoms: C_6  and  C_7
REMARK    4  A    between atoms: C_7  and  N_8
REMARK    5  A    between atoms: C_13  and  C_14
REMARK                            x       y       z     vdW  Elec       q    Type
REMARK                         _______ _______ _______ _____ _____    ______ ____
ROOT
ATOM      1  N   UNL     1      48.499   7.269  14.362  0.00  0.00    +0.000 N 
ATOM      2  C   UNL     1      49.513   8.132  14.023  0.00  0.00    +0.000 A 
ATOM      3  C   UNL     1      50.622   7.798  14.763  0.00  0.00    +0.000 A 
ATOM      4  C   UNL     1      50.236   6.791  15.684  0.00  0.00    +0.000 A 
ATOM      5  C   UNL     1      50.917   6.120  16.720  0.00  0.00    +0.000 A 
ATOM      6  C   UNL     1      50.224   5.198  17.513  0.00  0.00    +0.000 A 
ATOM      7  C   UNL     1      48.885   4.902  17.243  0.00  0.00    +0.000 A 
ATOM      8  C   UNL     1      48.202   5.530  16.198  0.00  0.00    +0.000 A 
ATOM      9  C   UNL     1      48.891   6.486  15.434  0.00  0.00    +0.000 A 
ENDROOT
BRANCH   6  10
ATOM     10  C   UNL     1      50.883   4.504  18.649  0.00  0.00    +0.000 C 
ATOM     11  N   UNL     1      50.198   4.443  19.832  0.00  0.00    +0.000 N 
ATOM     12  O   UNL     1      51.979   3.977  18.531  0.00  0.00    +0.000 OA
ATOM     13  H   UNL     1      49.221   4.690  19.919  0.00  0.00    +0.000 HD
ATOM     14  H   UNL     1      50.610   3.881  20.567  0.00  0.00    +0.000 HD
ENDBRANCH   6  10
BRANCH   1  15
ATOM     15  C   UNL     1      47.208   7.215  13.683  0.00  0.00    +0.000 C 
BRANCH  15  19
ATOM     16  C   UNL     1      44.207   5.582  11.818  0.00  0.00    +0.000 C 
ATOM     17  C   UNL     1      44.758   5.145  13.189  0.00  0.00    +0.000 C 
ATOM     18  C   UNL     1      46.264   4.876  13.173  0.00  0.00    +0.000 C 
ATOM     19  C   UNL     1      47.087   6.066  12.652  0.00  0.00    +0.000 C 
ATOM     20  C   UNL     1      46.526   6.572  11.309  0.00  0.00    +0.000 C 
ATOM     21  C   UNL     1      45.013   6.786  11.304  0.00  0.00    +0.000 C 
BRANCH  16  22
ATOM     22  C   UNL     1      44.133   4.374  10.854  0.00  0.00    +0.000 C 
BRANCH  22  23
ATOM     23  N   UNL     1      43.736   4.730   9.494  0.00  0.00    +0.000 NA
ATOM     24  H   UNL     1      43.946   3.947   8.866  0.00  0.00    +0.000 HD
ATOM     25  H   UNL     1      44.294   5.512   9.162  0.00  0.00    +0.000 HD
ENDBRANCH  22  23
ENDBRANCH  16  22
ENDBRANCH  15  19
ENDBRANCH   1  15
TORSDOF 5
ENDMDL
