MODEL 1
REMARK VINA RESULT:    -8.676      0.000      0.000
REMARK INTER + INTRA:         -11.343
REMARK INTER:                 -10.704
REMARK INTRA:                  -0.638
REMARK UNBOUND:                -0.638
REMARK  Name = 
REMARK  4 active torsions:
REMARK  status: ('A' for Active; 'I' for Inactive)
REMARK    1  A    between atoms: C_2  and  C_4
REMARK    2  A    between atoms: C_7  and  N_8
REMARK    3  A    between atoms: N_8  and  C_9
REMARK    4  A    between atoms: C_9  and  C_10
REMARK                            x       y       z     vdW  Elec       q    Type
REMARK                         _______ _______ _______ _____ _____    ______ ____
ROOT
ATOM      1  C   UNL     1      46.588   2.598   7.583  0.00  0.00    +0.000 A 
ATOM      2  C   UNL     1      46.599   3.998   7.586  0.00  0.00    +0.000 A 
ATOM      3  C   UNL     1      45.716   4.711   8.408  0.00  0.00    +0.000 A 
ATOM      4  C   UNL     1      44.800   4.051   9.239  0.00  0.00    +0.000 A 
ATOM      5  C   UNL     1      44.825   2.653   9.254  0.00  0.00    +0.000 A 
ATOM      6  C   UNL     1      45.697   1.940   8.430  0.00  0.00    +0.000 A 
ATOM      7  F   UNL     1      45.640   0.599   8.469  0.00  0.00    +0.000 F 
ENDROOT
BRANCH   1   9
ATOM      8  N   UNL     1      48.630   2.541   6.231  0.00  0.00    +0.000 N 
ATOM      9  C   UNL     1      47.522   1.883   6.674  0.00  0.00    +0.000 C 
ATOM     10  O   UNL     1      47.314   0.724   6.332  0.00  0.00    +0.000 OA
ATOM     11  H   UNL     1      49.264   2.048   5.616  0.00  0.00    +0.000 HD
ATOM     12  H   UNL     1      48.848   3.497   6.487  0.00  0.00    +0.000 HD
ENDBRANCH   1   9
BRANCH   4  13
ATOM     13  N   UNL     1      43.893   4.806  10.006  0.00  0.00    +0.000 N 
ATOM     14  H   UNL     1      43.008   5.005   9.552  0.00  0.00    +0.000 HD
BRANCH  13  15
ATOM     15  C   UNL     1      43.933   4.909  11.479  0.00  0.00    +0.000 C 
ATOM     16  C   UNL     1      43.092   3.972  12.335  0.00  0.00    +0.000 C 
ATOM     17  C   UNL     1      42.671   5.394  12.195  0.00  0.00    +0.000 C 
BRANCH  15  18
ATOM     18  C   UNL     1      45.219   5.514  12.038  0.00  0.00    +0.000 A 
ATOM     19  C   UNL     1      45.918   4.882  13.085  0.00  0.00    +0.000 A 
ATOM     20  C   UNL     1      47.180   5.320  13.494  0.00  0.00    +0.000 A 
ATOM     21  C   UNL     1      47.765   6.420  12.874  0.00  0.00    +0.000 A 
ATOM     22  C   UNL     1      47.072   7.100  11.878  0.00  0.00    +0.000 A 
ATOM     23  C   UNL     1      45.807   6.659  11.475  0.00  0.00    +0.000 A 
ENDBRANCH  15  18
ENDBRANCH  13  15
ENDBRANCH   4  13
TORSDOF 4
ENDMDL
MODEL 2
REMARK VINA RESULT:    -6.805      3.910      6.511
REMARK INTER + INTRA:          -9.035
REMARK INTER:                  -9.382
REMARK INTRA:                   0.347
REMARK UNBOUND:                -0.638
REMARK  Name = 
REMARK  4 active torsions:
REMARK  status: ('A' for Active; 'I' for Inactive)
REMARK    1  A    between atoms: C_2  and  C_4
REMARK    2  A    between atoms: C_7  and  N_8
REMARK    3  A    between atoms: N_8  and  C_9
REMARK    4  A    between atoms: C_9  and  C_10
REMARK                            x       y       z     vdW  Elec       q    Type
REMARK                         _______ _______ _______ _____ _____    ______ ____
ROOT
ATOM      1  C   UNL     1      46.692   8.055  12.774  0.00  0.00    +0.000 A 
ATOM      2  C   UNL     1      47.156   6.810  12.331  0.00  0.00    +0.000 A 
ATOM      3  C   UNL     1      46.327   5.978  11.567  0.00  0.00    +0.000 A 
ATOM      4  C   UNL     1      45.021   6.359  11.231  0.00  0.00    +0.000 A 
ATOM      5  C   UNL     1      44.583   7.620  11.649  0.00  0.00    +0.000 A 
ATOM      6  C   UNL     1      45.404   8.447  12.418  0.00  0.00    +0.000 A 
ATOM      7  F   UNL     1      44.904   9.629  12.815  0.00  0.00    +0.000 F 
ENDROOT
BRANCH   1   9
ATOM      8  N   UNL     1      47.366   8.961  14.949  0.00  0.00    +0.000 N 
ATOM      9  C   UNL     1      47.595   8.892  13.607  0.00  0.00    +0.000 C 
ATOM     10  O   UNL     1      48.532   9.506  13.108  0.00  0.00    +0.000 OA
ATOM     11  H   UNL     1      47.987   9.528  15.510  0.00  0.00    +0.000 HD
ATOM     12  H   UNL     1      46.608   8.470  15.408  0.00  0.00    +0.000 HD
ENDBRANCH   1   9
BRANCH   4  13
ATOM     13  N   UNL     1      44.203   5.469  10.510  0.00  0.00    +0.000 N 
ATOM     14  H   UNL     1      43.715   5.878   9.721  0.00  0.00    +0.000 HD
BRANCH  13  15
ATOM     15  C   UNL     1      44.364   4.001  10.516  0.00  0.00    +0.000 C 
ATOM     16  C   UNL     1      43.383   3.127  11.285  0.00  0.00    +0.000 C 
ATOM     17  C   UNL     1      44.751   3.331  11.836  0.00  0.00    +0.000 C 
BRANCH  15  18
ATOM     18  C   UNL     1      45.110   3.439   9.308  0.00  0.00    +0.000 A 
ATOM     19  C   UNL     1      45.710   4.299   8.367  0.00  0.00    +0.000 A 
ATOM     20  C   UNL     1      46.540   3.813   7.354  0.00  0.00    +0.000 A 
ATOM     21  C   UNL     1      46.775   2.445   7.249  0.00  0.00    +0.000 A 
ATOM     22  C   UNL     1      46.149   1.568   8.129  0.00  0.00    +0.000 A 
ATOM     23  C   UNL     1      45.316   2.060   9.138  0.00  0.00    +0.000 A 
ENDBRANCH  15  18
ENDBRANCH  13  15
ENDBRANCH   4  13
TORSDOF 4
ENDMDL
MODEL 3
REMARK VINA RESULT:    -6.677      3.785      6.400
REMARK INTER + INTRA:          -8.877
REMARK INTER:                  -8.443
REMARK INTRA:                  -0.434
REMARK UNBOUND:                -0.638
REMARK  Name = 
REMARK  4 active torsions:
REMARK  status: ('A' for Active; 'I' for Inactive)
REMARK    1  A    between atoms: C_2  and  C_4
REMARK    2  A    between atoms: C_7  and  N_8
REMARK    3  A    between atoms: N_8  and  C_9
REMARK    4  A    between atoms: C_9  and  C_10
REMARK                            x       y       z     vdW  Elec       q    Type
REMARK                         _______ _______ _______ _____ _____    ______ ____
ROOT
ATOM      1  C   UNL     1      47.519   6.624  13.901  0.00  0.00    +0.000 A 
ATOM      2  C   UNL     1      46.857   6.685  12.669  0.00  0.00    +0.000 A 
ATOM      3  C   UNL     1      46.196   5.558  12.164  0.00  0.00    +0.000 A 
ATOM      4  C   UNL     1      46.182   4.345  12.866  0.00  0.00    +0.000 A 
ATOM      5  C   UNL     1      46.816   4.308  14.112  0.00  0.00    +0.000 A 
ATOM      6  C   UNL     1      47.483   5.427  14.614  0.00  0.00    +0.000 A 
ATOM      7  F   UNL     1      48.101   5.308  15.800  0.00  0.00    +0.000 F 
ENDROOT
BRANCH   1   9
ATOM      8  N   UNL     1      47.495   8.874  14.870  0.00  0.00    +0.000 N 
ATOM      9  C   UNL     1      48.232   7.835  14.384  0.00  0.00    +0.000 C 
ATOM     10  O   UNL     1      49.456   7.906  14.358  0.00  0.00    +0.000 OA
ATOM     11  H   UNL     1      47.986   9.694  15.202  0.00  0.00    +0.000 HD
ATOM     12  H   UNL     1      46.483   8.863  14.916  0.00  0.00    +0.000 HD
ENDBRANCH   1   9
BRANCH   4  13
ATOM     13  N   UNL     1      45.554   3.222  12.297  0.00  0.00    +0.000 N 
ATOM     14  H   UNL     1      45.586   2.380  12.861  0.00  0.00    +0.000 HD
BRANCH  13  15
ATOM     15  C   UNL     1      44.518   3.291  11.247  0.00  0.00    +0.000 C 
ATOM     16  C   UNL     1      43.201   4.006  11.517  0.00  0.00    +0.000 C 
ATOM     17  C   UNL     1      43.217   2.518  11.476  0.00  0.00    +0.000 C 
BRANCH  15  18
ATOM     18  C   UNL     1      45.050   3.175   9.821  0.00  0.00    +0.000 A 
ATOM     19  C   UNL     1      45.296   4.326   9.047  0.00  0.00    +0.000 A 
ATOM     20  C   UNL     1      45.942   4.254   7.810  0.00  0.00    +0.000 A 
ATOM     21  C   UNL     1      46.341   3.018   7.309  0.00  0.00    +0.000 A 
ATOM     22  C   UNL     1      46.058   1.859   8.024  0.00  0.00    +0.000 A 
ATOM     23  C   UNL     1      45.408   1.937   9.260  0.00  0.00    +0.000 A 
ENDBRANCH  15  18
ENDBRANCH  13  15
ENDBRANCH   4  13
TORSDOF 4
ENDMDL
MODEL 4
REMARK VINA RESULT:    -6.034      3.466      5.313
REMARK INTER + INTRA:          -8.083
REMARK INTER:                  -7.598
REMARK INTRA:                  -0.485
REMARK UNBOUND:                -0.638
REMARK  Name = 
REMARK  4 active torsions:
REMARK  status: ('A' for Active; 'I' for Inactive)
REMARK    1  A    between atoms: C_2  and  C_4
REMARK    2  A    between atoms: C_7  and  N_8
REMARK    3  A    between atoms: N_8  and  C_9
REMARK    4  A    between atoms: C_9  and  C_10
REMARK                            x       y       z     vdW  Elec       q    Type
REMARK                         _______ _______ _______ _____ _____    ______ ____
ROOT
ATOM      1  C   UNL     1      44.517   3.885  11.690  0.00  0.00    +0.000 A 
ATOM      2  C   UNL     1      45.552   3.653  12.603  0.00  0.00    +0.000 A 
ATOM      3  C   UNL     1      46.204   4.729  13.222  0.00  0.00    +0.000 A 
ATOM      4  C   UNL     1      45.847   6.055  12.944  0.00  0.00    +0.000 A 
ATOM      5  C   UNL     1      44.787   6.271  12.058  0.00  0.00    +0.000 A 
ATOM      6  C   UNL     1      44.142   5.202  11.433  0.00  0.00    +0.000 A 
ATOM      7  F   UNL     1      43.157   5.486  10.566  0.00  0.00    +0.000 F 
ENDROOT
BRANCH   1   9
ATOM      8  N   UNL     1      44.463   2.184   9.927  0.00  0.00    +0.000 N 
ATOM      9  C   UNL     1      43.874   2.716  11.035  0.00  0.00    +0.000 C 
ATOM     10  O   UNL     1      42.840   2.228  11.479  0.00  0.00    +0.000 OA
ATOM     11  H   UNL     1      44.023   1.386   9.489  0.00  0.00    +0.000 HD
ATOM     12  H   UNL     1      45.318   2.549   9.524  0.00  0.00    +0.000 HD
ENDBRANCH   1   9
BRANCH   4  13
ATOM     13  N   UNL     1      46.565   7.105  13.545  0.00  0.00    +0.000 N 
ATOM     14  H   UNL     1      46.365   7.255  14.528  0.00  0.00    +0.000 HD
BRANCH  13  15
ATOM     15  C   UNL     1      47.835   7.649  13.026  0.00  0.00    +0.000 C 
ATOM     16  C   UNL     1      49.018   6.724  12.774  0.00  0.00    +0.000 C 
ATOM     17  C   UNL     1      49.052   7.631  13.954  0.00  0.00    +0.000 C 
BRANCH  15  18
ATOM     18  C   UNL     1      47.694   8.948  12.235  0.00  0.00    +0.000 A 
ATOM     19  C   UNL     1      46.484   9.669  12.243  0.00  0.00    +0.000 A 
ATOM     20  C   UNL     1      46.384  10.940  11.672  0.00  0.00    +0.000 A 
ATOM     21  C   UNL     1      47.495  11.514  11.062  0.00  0.00    +0.000 A 
ATOM     22  C   UNL     1      48.687  10.801  10.989  0.00  0.00    +0.000 A 
ATOM     23  C   UNL     1      48.780   9.527  11.558  0.00  0.00    +0.000 A 
ENDBRANCH  15  18
ENDBRANCH  13  15
ENDBRANCH   4  13
TORSDOF 4
ENDMDL
MODEL 5
REMARK VINA RESULT:    -5.874      4.543      7.201
REMARK INTER + INTRA:          -7.885
REMARK INTER:                  -7.595
REMARK INTRA:                  -0.290
REMARK UNBOUND:                -0.638
REMARK  Name = 
REMARK  4 active torsions:
REMARK  status: ('A' for Active; 'I' for Inactive)
REMARK    1  A    between atoms: C_2  and  C_4
REMARK    2  A    between atoms: C_7  and  N_8
REMARK    3  A    between atoms: N_8  and  C_9
REMARK    4  A    between atoms: C_9  and  C_10
REMARK                            x       y       z     vdW  Elec       q    Type
REMARK                         _______ _______ _______ _____ _____    ______ ____
ROOT
ATOM      1  C   UNL     1      48.409   5.754  16.008  0.00  0.00    +0.000 A 
ATOM      2  C   UNL     1      47.765   4.555  16.336  0.00  0.00    +0.000 A 
ATOM      3  C   UNL     1      46.962   3.902  15.390  0.00  0.00    +0.000 A 
ATOM      4  C   UNL     1      46.778   4.426  14.104  0.00  0.00    +0.000 A 
ATOM      5  C   UNL     1      47.457   5.605  13.778  0.00  0.00    +0.000 A 
ATOM      6  C   UNL     1      48.249   6.262  14.721  0.00  0.00    +0.000 A 
ATOM      7  F   UNL     1      48.842   7.409  14.349  0.00  0.00    +0.000 F 
ENDROOT
BRANCH   1   9
ATOM      8  N   UNL     1      48.600   6.897  18.167  0.00  0.00    +0.000 N 
ATOM      9  C   UNL     1      49.226   6.428  17.051  0.00  0.00    +0.000 C 
ATOM     10  O   UNL     1      50.439   6.556  16.924  0.00  0.00    +0.000 OA
ATOM     11  H   UNL     1      49.163   7.350  18.875  0.00  0.00    +0.000 HD
ATOM     12  H   UNL     1      47.602   6.813  18.320  0.00  0.00    +0.000 HD
ENDBRANCH   1   9
BRANCH   4  13
ATOM     13  N   UNL     1      45.919   3.768  13.204  0.00  0.00    +0.000 N 
ATOM     14  H   UNL     1      45.823   2.769  13.355  0.00  0.00    +0.000 HD
BRANCH  13  15
ATOM     15  C   UNL     1      44.858   4.437  12.425  0.00  0.00    +0.000 C 
ATOM     16  C   UNL     1      44.271   5.756  12.907  0.00  0.00    +0.000 C 
ATOM     17  C   UNL     1      43.460   4.515  13.043  0.00  0.00    +0.000 C 
BRANCH  15  18
ATOM     18  C   UNL     1      44.846   4.088  10.938  0.00  0.00    +0.000 A 
ATOM     19  C   UNL     1      45.416   4.958   9.989  0.00  0.00    +0.000 A 
ATOM     20  C   UNL     1      45.570   4.585   8.652  0.00  0.00    +0.000 A 
ATOM     21  C   UNL     1      45.139   3.331   8.229  0.00  0.00    +0.000 A 
ATOM     22  C   UNL     1      44.519   2.474   9.133  0.00  0.00    +0.000 A 
ATOM     23  C   UNL     1      44.363   2.855  10.469  0.00  0.00    +0.000 A 
ENDBRANCH  15  18
ENDBRANCH  13  15
ENDBRANCH   4  13
TORSDOF 4
ENDMDL
