MODEL 1
REMARK VINA RESULT:    -7.421      0.000      0.000
REMARK INTER + INTRA:         -11.625
REMARK INTER:                 -10.458
REMARK INTRA:                  -1.167
REMARK UNBOUND:                -1.167
REMARK  Name = 
REMARK  7 active torsions:
REMARK  status: ('A' for Active; 'I' for Inactive)
REMARK    1  A    between atoms: C_2  and  C_3
REMARK    2  A    between atoms: C_6  and  C_7
REMARK    3  A    between atoms: N_9  and  C_10
REMARK    4  A    between atoms: C_10  and  C_11
REMARK    5  A    between atoms: C_14  and  C_15
REMARK    6  A    between atoms: C_15  and  N_16
REMARK    7  A    between atoms: C_17  and  C_19
REMARK                            x       y       z     vdW  Elec       q    Type
REMARK                         _______ _______ _______ _____ _____    ______ ____
ROOT
ATOM      1  C   UNL     1      45.510   7.157  11.419  0.00  0.00    +0.000 A 
ATOM      2  C   UNL     1      45.145   8.230  12.245  0.00  0.00    +0.000 A 
ATOM      3  C   UNL     1      46.021   8.706  13.229  0.00  0.00    +0.000 A 
ATOM      4  C   UNL     1      47.290   8.134  13.393  0.00  0.00    +0.000 A 
ATOM      5  C   UNL     1      47.652   7.058  12.570  0.00  0.00    +0.000 A 
ATOM      6  C   UNL     1      46.776   6.583  11.586  0.00  0.00    +0.000 A 
ENDROOT
BRANCH   1   7
ATOM      7  C   UNL     1      44.562   6.640  10.366  0.00  0.00    +0.000 C 
BRANCH   7  10
ATOM      8  C   UNL     1      44.361   4.263   9.799  0.00  0.00    +0.000 C 
ATOM      9  O   UNL     1      43.285   4.166  10.382  0.00  0.00    +0.000 OA
ATOM     10  N   UNL     1      45.062   5.442   9.735  0.00  0.00    +0.000 N 
ATOM     11  H   UNL     1      45.978   5.466   9.313  0.00  0.00    +0.000 HD
BRANCH   8  15
ATOM     12  C   UNL     1      46.431   2.092   7.748  0.00  0.00    +0.000 A 
ATOM     13  C   UNL     1      45.660   1.116   8.340  0.00  0.00    +0.000 A 
ATOM     14  C   UNL     1      44.747   1.767   9.210  0.00  0.00    +0.000 A 
ATOM     15  C   UNL     1      44.976   3.132   9.134  0.00  0.00    +0.000 A 
ATOM     16  N   UNL     1      46.011   3.301   8.233  0.00  0.00    +0.000 N 
ATOM     17  H   UNL     1      46.394   4.206   7.983  0.00  0.00    +0.000 HD
BRANCH  12  19
ATOM     18  N   UNL     1      48.349   1.799   6.046  0.00  0.00    +0.000 NA
ATOM     19  C   UNL     1      47.484   1.930   6.806  0.00  0.00    +0.000 C 
ENDBRANCH  12  19
ENDBRANCH   8  15
ENDBRANCH   7  10
ENDBRANCH   1   7
BRANCH   4  20
ATOM     20  C   UNL     1      48.244   8.641  14.446  0.00  0.00    +0.000 C 
BRANCH  20  21
ATOM     21  N   UNL     1      48.399   7.696  15.524  0.00  0.00    +0.000 N 
ATOM     22  C   UNL     1      49.528   6.921  15.629  0.00  0.00    +0.000 C 
ATOM     23  O   UNL     1      50.465   7.028  14.841  0.00  0.00    +0.000 OA
ATOM     24  H   UNL     1      47.560   7.424  16.026  0.00  0.00    +0.000 HD
BRANCH  22  25
ATOM     25  C   UNL     1      49.589   5.998  16.769  0.00  0.00    +0.000 A 
ATOM     26  C   UNL     1      50.575   6.158  17.735  0.00  0.00    +0.000 A 
ATOM     27  S   UNL     1      50.467   5.037  19.017  0.00  0.00    +0.000 S 
ATOM     28  C   UNL     1      49.132   4.263  18.299  0.00  0.00    +0.000 A 
ATOM     29  N   UNL     1      48.554   3.181  18.886  0.00  0.00    +0.000 NA
ATOM     30  C   UNL     1      47.572   2.674  18.217  0.00  0.00    +0.000 A 
ATOM     31  N   UNL     1      47.114   3.154  17.017  0.00  0.00    +0.000 N 
ATOM     32  C   UNL     1      47.649   4.261  16.403  0.00  0.00    +0.000 A 
ATOM     33  O   UNL     1      47.189   4.689  15.348  0.00  0.00    +0.000 OA
ATOM     34  C   UNL     1      48.764   4.862  17.108  0.00  0.00    +0.000 A 
ATOM     35  H   UNL     1      46.336   2.716  16.548  0.00  0.00    +0.000 HD
ENDBRANCH  22  25
ENDBRANCH  20  21
ENDBRANCH   4  20
TORSDOF 7
ENDMDL
MODEL 2
REMARK VINA RESULT:    -7.144      1.705      2.041
REMARK INTER + INTRA:         -11.235
REMARK INTER:                 -10.309
REMARK INTRA:                  -0.926
REMARK UNBOUND:                -1.167
REMARK  Name = 
REMARK  7 active torsions:
REMARK  status: ('A' for Active; 'I' for Inactive)
REMARK    1  A    between atoms: C_2  and  C_3
REMARK    2  A    between atoms: C_6  and  C_7
REMARK    3  A    between atoms: N_9  and  C_10
REMARK    4  A    between atoms: C_10  and  C_11
REMARK    5  A    between atoms: C_14  and  C_15
REMARK    6  A    between atoms: C_15  and  N_16
REMARK    7  A    between atoms: C_17  and  C_19
REMARK                            x       y       z     vdW  Elec       q    Type
REMARK                         _______ _______ _______ _____ _____    ______ ____
ROOT
ATOM      1  C   UNL     1      45.858   7.081  12.354  0.00  0.00    +0.000 A 
ATOM      2  C   UNL     1      46.832   6.218  12.876  0.00  0.00    +0.000 A 
ATOM      3  C   UNL     1      47.811   6.693  13.757  0.00  0.00    +0.000 A 
ATOM      4  C   UNL     1      47.825   8.037  14.153  0.00  0.00    +0.000 A 
ATOM      5  C   UNL     1      46.853   8.900  13.626  0.00  0.00    +0.000 A 
ATOM      6  C   UNL     1      45.874   8.425  12.747  0.00  0.00    +0.000 A 
ENDROOT
BRANCH   1   7
ATOM      7  C   UNL     1      44.809   6.569  11.398  0.00  0.00    +0.000 C 
BRANCH   7  10
ATOM      8  C   UNL     1      44.734   4.578   9.970  0.00  0.00    +0.000 C 
ATOM      9  O   UNL     1      43.653   4.227  10.434  0.00  0.00    +0.000 OA
ATOM     10  N   UNL     1      45.378   5.719  10.380  0.00  0.00    +0.000 N 
ATOM     11  H   UNL     1      46.300   5.935  10.032  0.00  0.00    +0.000 HD
BRANCH   8  15
ATOM     12  C   UNL     1      46.232   1.934   7.978  0.00  0.00    +0.000 A 
ATOM     13  C   UNL     1      46.514   2.989   7.137  0.00  0.00    +0.000 A 
ATOM     14  C   UNL     1      46.001   4.164   7.746  0.00  0.00    +0.000 A 
ATOM     15  C   UNL     1      45.415   3.807   8.950  0.00  0.00    +0.000 A 
ATOM     16  N   UNL     1      45.571   2.437   9.066  0.00  0.00    +0.000 N 
ATOM     17  H   UNL     1      45.231   1.899   9.854  0.00  0.00    +0.000 HD
BRANCH  12  19
ATOM     18  N   UNL     1      46.794  -0.565   7.661  0.00  0.00    +0.000 NA
ATOM     19  C   UNL     1      46.543   0.558   7.797  0.00  0.00    +0.000 C 
ENDBRANCH  12  19
ENDBRANCH   8  15
ENDBRANCH   7  10
ENDBRANCH   1   7
BRANCH   4  20
ATOM     20  C   UNL     1      48.872   8.560  15.104  0.00  0.00    +0.000 C 
BRANCH  20  21
ATOM     21  N   UNL     1      49.750   7.511  15.559  0.00  0.00    +0.000 N 
ATOM     22  C   UNL     1      49.612   6.965  16.811  0.00  0.00    +0.000 C 
ATOM     23  O   UNL     1      48.715   7.312  17.577  0.00  0.00    +0.000 OA
ATOM     24  H   UNL     1      50.623   7.386  15.055  0.00  0.00    +0.000 HD
BRANCH  22  25
ATOM     25  C   UNL     1      50.553   5.897  17.171  0.00  0.00    +0.000 A 
ATOM     26  C   UNL     1      51.843   6.220  17.572  0.00  0.00    +0.000 A 
ATOM     27  S   UNL     1      52.785   4.865  18.008  0.00  0.00    +0.000 S 
ATOM     28  C   UNL     1      51.520   3.795  17.623  0.00  0.00    +0.000 A 
ATOM     29  N   UNL     1      51.680   2.450  17.749  0.00  0.00    +0.000 NA
ATOM     30  C   UNL     1      50.650   1.755  17.392  0.00  0.00    +0.000 A 
ATOM     31  N   UNL     1      49.475   2.284  16.925  0.00  0.00    +0.000 N 
ATOM     32  C   UNL     1      49.259   3.636  16.809  0.00  0.00    +0.000 A 
ATOM     33  O   UNL     1      48.181   4.079  16.425  0.00  0.00    +0.000 OA
ATOM     34  C   UNL     1      50.390   4.462  17.186  0.00  0.00    +0.000 A 
ATOM     35  H   UNL     1      48.705   1.686  16.670  0.00  0.00    +0.000 HD
ENDBRANCH  22  25
ENDBRANCH  20  21
ENDBRANCH   4  20
TORSDOF 7
ENDMDL
MODEL 3
REMARK VINA RESULT:    -6.879      4.391      8.663
REMARK INTER + INTRA:         -10.861
REMARK INTER:                  -9.774
REMARK INTRA:                  -1.087
REMARK UNBOUND:                -1.167
REMARK  Name = 
REMARK  7 active torsions:
REMARK  status: ('A' for Active; 'I' for Inactive)
REMARK    1  A    between atoms: C_2  and  C_3
REMARK    2  A    between atoms: C_6  and  C_7
REMARK    3  A    between atoms: N_9  and  C_10
REMARK    4  A    between atoms: C_10  and  C_11
REMARK    5  A    between atoms: C_14  and  C_15
REMARK    6  A    between atoms: C_15  and  N_16
REMARK    7  A    between atoms: C_17  and  C_19
REMARK                            x       y       z     vdW  Elec       q    Type
REMARK                         _______ _______ _______ _____ _____    ______ ____
ROOT
ATOM      1  C   UNL     1      49.718   4.587  17.642  0.00  0.00    +0.000 A 
ATOM      2  C   UNL     1      50.485   5.685  17.229  0.00  0.00    +0.000 A 
ATOM      3  C   UNL     1      50.036   6.527  16.204  0.00  0.00    +0.000 A 
ATOM      4  C   UNL     1      48.799   6.301  15.584  0.00  0.00    +0.000 A 
ATOM      5  C   UNL     1      48.035   5.199  15.994  0.00  0.00    +0.000 A 
ATOM      6  C   UNL     1      48.484   4.359  17.020  0.00  0.00    +0.000 A 
ENDROOT
BRANCH   1   7
ATOM      7  C   UNL     1      50.207   3.676  18.740  0.00  0.00    +0.000 C 
BRANCH   7  10
ATOM      8  C   UNL     1      51.567   1.958  17.639  0.00  0.00    +0.000 C 
ATOM      9  O   UNL     1      50.576   1.406  17.171  0.00  0.00    +0.000 OA
ATOM     10  N   UNL     1      51.484   3.084  18.420  0.00  0.00    +0.000 N 
ATOM     11  H   UNL     1      52.313   3.466  18.849  0.00  0.00    +0.000 HD
BRANCH   8  15
ATOM     12  C   UNL     1      54.464  -0.074  16.813  0.00  0.00    +0.000 A 
ATOM     13  C   UNL     1      55.131   1.089  17.130  0.00  0.00    +0.000 A 
ATOM     14  C   UNL     1      54.154   2.051  17.498  0.00  0.00    +0.000 A 
ATOM     15  C   UNL     1      52.905   1.458  17.401  0.00  0.00    +0.000 A 
ATOM     16  N   UNL     1      53.125   0.159  16.980  0.00  0.00    +0.000 N 
ATOM     17  H   UNL     1      52.382  -0.512  16.819  0.00  0.00    +0.000 HD
BRANCH  12  19
ATOM     18  N   UNL     1      55.467  -2.318  16.027  0.00  0.00    +0.000 NA
ATOM     19  C   UNL     1      55.013  -1.314  16.384  0.00  0.00    +0.000 C 
ENDBRANCH  12  19
ENDBRANCH   8  15
ENDBRANCH   7  10
ENDBRANCH   1   7
BRANCH   4  20
ATOM     20  C   UNL     1      48.303   7.203  14.481  0.00  0.00    +0.000 C 
BRANCH  20  21
ATOM     21  N   UNL     1      47.058   6.733  13.928  0.00  0.00    +0.000 N 
ATOM     22  C   UNL     1      46.844   6.724  12.571  0.00  0.00    +0.000 C 
ATOM     23  O   UNL     1      47.712   7.072  11.774  0.00  0.00    +0.000 OA
ATOM     24  H   UNL     1      46.263   6.676  14.557  0.00  0.00    +0.000 HD
BRANCH  22  25
ATOM     25  C   UNL     1      45.545   6.217  12.113  0.00  0.00    +0.000 A 
ATOM     26  C   UNL     1      44.630   7.088  11.533  0.00  0.00    +0.000 A 
ATOM     27  S   UNL     1      43.197   6.325  11.007  0.00  0.00    +0.000 S 
ATOM     28  C   UNL     1      43.725   4.815  11.584  0.00  0.00    +0.000 A 
ATOM     29  N   UNL     1      42.940   3.709  11.469  0.00  0.00    +0.000 NA
ATOM     30  C   UNL     1      43.451   2.638  11.978  0.00  0.00    +0.000 A 
ATOM     31  N   UNL     1      44.678   2.571  12.588  0.00  0.00    +0.000 N 
ATOM     32  C   UNL     1      45.515   3.654  12.701  0.00  0.00    +0.000 A 
ATOM     33  O   UNL     1      46.624   3.552  13.216  0.00  0.00    +0.000 OA
ATOM     34  C   UNL     1      44.983   4.887  12.154  0.00  0.00    +0.000 A 
ATOM     35  H   UNL     1      45.023   1.699  12.960  0.00  0.00    +0.000 HD
ENDBRANCH  22  25
ENDBRANCH  20  21
ENDBRANCH   4  20
TORSDOF 7
ENDMDL
MODEL 4
REMARK VINA RESULT:    -6.834      3.265      4.159
REMARK INTER + INTRA:         -10.798
REMARK INTER:                  -9.885
REMARK INTRA:                  -0.912
REMARK UNBOUND:                -1.167
REMARK  Name = 
REMARK  7 active torsions:
REMARK  status: ('A' for Active; 'I' for Inactive)
REMARK    1  A    between atoms: C_2  and  C_3
REMARK    2  A    between atoms: C_6  and  C_7
REMARK    3  A    between atoms: N_9  and  C_10
REMARK    4  A    between atoms: C_10  and  C_11
REMARK    5  A    between atoms: C_14  and  C_15
REMARK    6  A    between atoms: C_15  and  N_16
REMARK    7  A    between atoms: C_17  and  C_19
REMARK                            x       y       z     vdW  Elec       q    Type
REMARK                         _______ _______ _______ _____ _____    ______ ____
ROOT
ATOM      1  C   UNL     1      47.214   6.130  13.848  0.00  0.00    +0.000 A 
ATOM      2  C   UNL     1      48.194   6.741  14.642  0.00  0.00    +0.000 A 
ATOM      3  C   UNL     1      48.631   6.140  15.829  0.00  0.00    +0.000 A 
ATOM      4  C   UNL     1      48.113   4.903  16.237  0.00  0.00    +0.000 A 
ATOM      5  C   UNL     1      47.129   4.295  15.444  0.00  0.00    +0.000 A 
ATOM      6  C   UNL     1      46.694   4.896  14.257  0.00  0.00    +0.000 A 
ENDROOT
BRANCH   1   7
ATOM      7  C   UNL     1      46.738   6.783  12.574  0.00  0.00    +0.000 C 
BRANCH   7  10
ATOM      8  C   UNL     1      45.210   5.696  10.994  0.00  0.00    +0.000 C 
ATOM      9  O   UNL     1      44.270   6.405  11.342  0.00  0.00    +0.000 OA
ATOM     10  N   UNL     1      46.464   5.812  11.542  0.00  0.00    +0.000 N 
ATOM     11  H   UNL     1      47.192   5.162  11.286  0.00  0.00    +0.000 HD
BRANCH   8  15
ATOM     12  C   UNL     1      45.540   3.608   8.039  0.00  0.00    +0.000 A 
ATOM     13  C   UNL     1      44.525   2.908   8.654  0.00  0.00    +0.000 A 
ATOM     14  C   UNL     1      44.226   3.577   9.869  0.00  0.00    +0.000 A 
ATOM     15  C   UNL     1      45.064   4.677   9.976  0.00  0.00    +0.000 A 
ATOM     16  N   UNL     1      45.856   4.670   8.843  0.00  0.00    +0.000 N 
ATOM     17  H   UNL     1      46.571   5.364   8.655  0.00  0.00    +0.000 HD
BRANCH  12  19
ATOM     18  N   UNL     1      46.712   3.098   5.796  0.00  0.00    +0.000 NA
ATOM     19  C   UNL     1      46.181   3.324   6.801  0.00  0.00    +0.000 C 
ENDBRANCH  12  19
ENDBRANCH   8  15
ENDBRANCH   7  10
ENDBRANCH   1   7
BRANCH   4  20
ATOM     20  C   UNL     1      48.578   4.244  17.511  0.00  0.00    +0.000 C 
BRANCH  20  21
ATOM     21  N   UNL     1      49.966   3.865  17.439  0.00  0.00    +0.000 N 
ATOM     22  C   UNL     1      50.839   4.178  18.453  0.00  0.00    +0.000 C 
ATOM     23  O   UNL     1      50.470   4.752  19.475  0.00  0.00    +0.000 OA
ATOM     24  H   UNL     1      50.333   3.618  16.526  0.00  0.00    +0.000 HD
BRANCH  22  25
ATOM     25  C   UNL     1      52.230   3.738  18.283  0.00  0.00    +0.000 A 
ATOM     26  C   UNL     1      53.269   4.631  18.512  0.00  0.00    +0.000 A 
ATOM     27  S   UNL     1      54.819   3.941  18.326  0.00  0.00    +0.000 S 
ATOM     28  C   UNL     1      54.156   2.440  17.879  0.00  0.00    +0.000 A 
ATOM     29  N   UNL     1      54.958   1.390  17.555  0.00  0.00    +0.000 NA
ATOM     30  C   UNL     1      54.322   0.322  17.204  0.00  0.00    +0.000 A 
ATOM     31  N   UNL     1      52.957   0.207  17.152  0.00  0.00    +0.000 N 
ATOM     32  C   UNL     1      52.108   1.231  17.498  0.00  0.00    +0.000 A 
ATOM     33  O   UNL     1      50.890   1.083  17.479  0.00  0.00    +0.000 OA
ATOM     34  C   UNL     1      52.773   2.459  17.889  0.00  0.00    +0.000 A 
ATOM     35  H   UNL     1      52.521  -0.659  16.876  0.00  0.00    +0.000 HD
ENDBRANCH  22  25
ENDBRANCH  20  21
ENDBRANCH   4  20
TORSDOF 7
ENDMDL
MODEL 5
REMARK VINA RESULT:    -6.683      3.227      4.845
REMARK INTER + INTRA:         -10.585
REMARK INTER:                  -9.711
REMARK INTRA:                  -0.874
REMARK UNBOUND:                -1.167
REMARK  Name = 
REMARK  7 active torsions:
REMARK  status: ('A' for Active; 'I' for Inactive)
REMARK    1  A    between atoms: C_2  and  C_3
REMARK    2  A    between atoms: C_6  and  C_7
REMARK    3  A    between atoms: N_9  and  C_10
REMARK    4  A    between atoms: C_10  and  C_11
REMARK    5  A    between atoms: C_14  and  C_15
REMARK    6  A    between atoms: C_15  and  N_16
REMARK    7  A    between atoms: C_17  and  C_19
REMARK                            x       y       z     vdW  Elec       q    Type
REMARK                         _______ _______ _______ _____ _____    ______ ____
ROOT
ATOM      1  C   UNL     1      47.690   5.956  14.544  0.00  0.00    +0.000 A 
ATOM      2  C   UNL     1      48.618   6.347  15.519  0.00  0.00    +0.000 A 
ATOM      3  C   UNL     1      48.848   5.552  16.648  0.00  0.00    +0.000 A 
ATOM      4  C   UNL     1      48.171   4.337  16.817  0.00  0.00    +0.000 A 
ATOM      5  C   UNL     1      47.239   3.949  15.844  0.00  0.00    +0.000 A 
ATOM      6  C   UNL     1      47.010   4.743  14.714  0.00  0.00    +0.000 A 
ENDROOT
BRANCH   1   7
ATOM      7  C   UNL     1      47.437   6.817  13.332  0.00  0.00    +0.000 C 
BRANCH   7  10
ATOM      8  C   UNL     1      45.627   6.287  11.765  0.00  0.00    +0.000 C 
ATOM      9  O   UNL     1      44.895   7.148  12.244  0.00  0.00    +0.000 OA
ATOM     10  N   UNL     1      46.897   6.054  12.232  0.00  0.00    +0.000 N 
ATOM     11  H   UNL     1      47.441   5.288  11.865  0.00  0.00    +0.000 HD
BRANCH   8  15
ATOM     12  C   UNL     1      45.406   4.381   8.679  0.00  0.00    +0.000 A 
ATOM     13  C   UNL     1      44.164   4.067   9.186  0.00  0.00    +0.000 A 
ATOM     14  C   UNL     1      44.034   4.734  10.433  0.00  0.00    +0.000 A 
ATOM     15  C   UNL     1      45.201   5.446  10.666  0.00  0.00    +0.000 A 
ATOM     16  N   UNL     1      46.021   5.212   9.577  0.00  0.00    +0.000 N 
ATOM     17  H   UNL     1      46.950   5.607   9.480  0.00  0.00    +0.000 HD
BRANCH  12  19
ATOM     18  N   UNL     1      46.469   3.586   6.465  0.00  0.00    +0.000 NA
ATOM     19  C   UNL     1      45.993   3.949   7.458  0.00  0.00    +0.000 C 
ENDBRANCH  12  19
ENDBRANCH   8  15
ENDBRANCH   7  10
ENDBRANCH   1   7
BRANCH   4  20
ATOM     20  C   UNL     1      48.413   3.470  18.027  0.00  0.00    +0.000 C 
BRANCH  20  21
ATOM     21  N   UNL     1      49.812   3.166  18.194  0.00  0.00    +0.000 N 
ATOM     22  C   UNL     1      50.451   2.287  17.354  0.00  0.00    +0.000 C 
ATOM     23  O   UNL     1      49.875   1.759  16.405  0.00  0.00    +0.000 OA
ATOM     24  H   UNL     1      50.232   3.391  19.090  0.00  0.00    +0.000 HD
BRANCH  22  25
ATOM     25  C   UNL     1      51.879   2.055  17.606  0.00  0.00    +0.000 A 
ATOM     26  C   UNL     1      52.354   0.756  17.735  0.00  0.00    +0.000 A 
ATOM     27  S   UNL     1      54.042   0.665  17.968  0.00  0.00    +0.000 S 
ATOM     28  C   UNL     1      54.190   2.359  17.960  0.00  0.00    +0.000 A 
ATOM     29  N   UNL     1      55.399   2.957  18.139  0.00  0.00    +0.000 NA
ATOM     30  C   UNL     1      55.360   4.248  18.142  0.00  0.00    +0.000 A 
ATOM     31  N   UNL     1      54.222   4.995  17.978  0.00  0.00    +0.000 N 
ATOM     32  C   UNL     1      52.985   4.435  17.765  0.00  0.00    +0.000 A 
ATOM     33  O   UNL     1      51.993   5.133  17.582  0.00  0.00    +0.000 OA
ATOM     34  C   UNL     1      52.972   2.985  17.764  0.00  0.00    +0.000 A 
ATOM     35  H   UNL     1      54.261   6.003  17.983  0.00  0.00    +0.000 HD
ENDBRANCH  22  25
ENDBRANCH  20  21
ENDBRANCH   4  20
TORSDOF 7
ENDMDL
MODEL 6
REMARK VINA RESULT:    -6.320      4.945      7.773
REMARK INTER + INTRA:         -10.073
REMARK INTER:                  -9.215
REMARK INTRA:                  -0.858
REMARK UNBOUND:                -1.167
REMARK  Name = 
REMARK  7 active torsions:
REMARK  status: ('A' for Active; 'I' for Inactive)
REMARK    1  A    between atoms: C_2  and  C_3
REMARK    2  A    between atoms: C_6  and  C_7
REMARK    3  A    between atoms: N_9  and  C_10
REMARK    4  A    between atoms: C_10  and  C_11
REMARK    5  A    between atoms: C_14  and  C_15
REMARK    6  A    between atoms: C_15  and  N_16
REMARK    7  A    between atoms: C_17  and  C_19
REMARK                            x       y       z     vdW  Elec       q    Type
REMARK                         _______ _______ _______ _____ _____    ______ ____
ROOT
ATOM      1  C   UNL     1      50.398   8.909  11.400  0.00  0.00    +0.000 A 
ATOM      2  C   UNL     1      50.022   7.631  11.834  0.00  0.00    +0.000 A 
ATOM      3  C   UNL     1      48.727   7.389  12.309  0.00  0.00    +0.000 A 
ATOM      4  C   UNL     1      47.773   8.415  12.339  0.00  0.00    +0.000 A 
ATOM      5  C   UNL     1      48.153   9.695  11.909  0.00  0.00    +0.000 A 
ATOM      6  C   UNL     1      49.447   9.936  11.433  0.00  0.00    +0.000 A 
ENDROOT
BRANCH   1   7
ATOM      7  C   UNL     1      51.796   9.171  10.897  0.00  0.00    +0.000 C 
BRANCH   7  10
ATOM      8  C   UNL     1      53.393   8.157   9.336  0.00  0.00    +0.000 C 
ATOM      9  O   UNL     1      53.913   9.240   9.090  0.00  0.00    +0.000 OA
ATOM     10  N   UNL     1      52.347   8.023  10.217  0.00  0.00    +0.000 N 
ATOM     11  H   UNL     1      51.895   7.130  10.336  0.00  0.00    +0.000 HD
BRANCH   8  15
ATOM     12  C   UNL     1      54.276   5.527   6.990  0.00  0.00    +0.000 A 
ATOM     13  C   UNL     1      54.668   4.889   8.146  0.00  0.00    +0.000 A 
ATOM     14  C   UNL     1      54.399   5.769   9.227  0.00  0.00    +0.000 A 
ATOM     15  C   UNL     1      53.845   6.931   8.711  0.00  0.00    +0.000 A 
ATOM     16  N   UNL     1      53.782   6.754   7.341  0.00  0.00    +0.000 N 
ATOM     17  H   UNL     1      53.420   7.453   6.702  0.00  0.00    +0.000 HD
BRANCH  12  19
ATOM     18  N   UNL     1      54.411   4.669   4.559  0.00  0.00    +0.000 NA
ATOM     19  C   UNL     1      54.351   5.048   5.652  0.00  0.00    +0.000 C 
ENDBRANCH  12  19
ENDBRANCH   8  15
ENDBRANCH   7  10
ENDBRANCH   1   7
BRANCH   4  20
ATOM     20  C   UNL     1      46.374   8.166  12.845  0.00  0.00    +0.000 C 
BRANCH  20  21
ATOM     21  N   UNL     1      45.937   6.822  12.561  0.00  0.00    +0.000 N 
ATOM     22  C   UNL     1      44.921   6.581  11.669  0.00  0.00    +0.000 C 
ATOM     23  O   UNL     1      44.374   7.489  11.047  0.00  0.00    +0.000 OA
ATOM     24  H   UNL     1      46.197   6.100  13.226  0.00  0.00    +0.000 HD
BRANCH  22  25
ATOM     25  C   UNL     1      44.559   5.175  11.447  0.00  0.00    +0.000 A 
ATOM     26  C   UNL     1      43.842   4.486  12.417  0.00  0.00    +0.000 A 
ATOM     27  S   UNL     1      43.458   2.883  11.974  0.00  0.00    +0.000 S 
ATOM     28  C   UNL     1      44.283   3.036  10.495  0.00  0.00    +0.000 A 
ATOM     29  N   UNL     1      44.361   1.992   9.626  0.00  0.00    +0.000 NA
ATOM     30  C   UNL     1      45.044   2.237   8.558  0.00  0.00    +0.000 A 
ATOM     31  N   UNL     1      45.653   3.434   8.278  0.00  0.00    +0.000 N 
ATOM     32  C   UNL     1      45.576   4.523   9.111  0.00  0.00    +0.000 A 
ATOM     33  O   UNL     1      46.099   5.593   8.812  0.00  0.00    +0.000 OA
ATOM     34  C   UNL     1      44.829   4.297  10.333  0.00  0.00    +0.000 A 
ATOM     35  H   UNL     1      46.167   3.563   7.420  0.00  0.00    +0.000 HD
ENDBRANCH  22  25
ENDBRANCH  20  21
ENDBRANCH   4  20
TORSDOF 7
ENDMDL
MODEL 7
REMARK VINA RESULT:    -6.234      4.106      5.647
REMARK INTER + INTRA:          -9.952
REMARK INTER:                  -8.838
REMARK INTRA:                  -1.114
REMARK UNBOUND:                -1.167
REMARK  Name = 
REMARK  7 active torsions:
REMARK  status: ('A' for Active; 'I' for Inactive)
REMARK    1  A    between atoms: C_2  and  C_3
REMARK    2  A    between atoms: C_6  and  C_7
REMARK    3  A    between atoms: N_9  and  C_10
REMARK    4  A    between atoms: C_10  and  C_11
REMARK    5  A    between atoms: C_14  and  C_15
REMARK    6  A    between atoms: C_15  and  N_16
REMARK    7  A    between atoms: C_17  and  C_19
REMARK                            x       y       z     vdW  Elec       q    Type
REMARK                         _______ _______ _______ _____ _____    ______ ____
ROOT
ATOM      1  C   UNL     1      45.374   6.839  12.442  0.00  0.00    +0.000 A 
ATOM      2  C   UNL     1      46.640   6.773  13.041  0.00  0.00    +0.000 A 
ATOM      3  C   UNL     1      47.472   7.898  13.081  0.00  0.00    +0.000 A 
ATOM      4  C   UNL     1      47.048   9.121  12.542  0.00  0.00    +0.000 A 
ATOM      5  C   UNL     1      45.784   9.184  11.939  0.00  0.00    +0.000 A 
ATOM      6  C   UNL     1      44.952   8.059  11.900  0.00  0.00    +0.000 A 
ENDROOT
BRANCH   1   7
ATOM      7  C   UNL     1      44.483   5.623  12.392  0.00  0.00    +0.000 C 
BRANCH   7  10
ATOM      8  C   UNL     1      44.328   4.341  10.307  0.00  0.00    +0.000 C 
ATOM      9  O   UNL     1      43.297   4.917   9.973  0.00  0.00    +0.000 OA
ATOM     10  N   UNL     1      44.985   4.624  11.479  0.00  0.00    +0.000 N 
ATOM     11  H   UNL     1      45.786   4.078  11.757  0.00  0.00    +0.000 HD
BRANCH   8  15
ATOM     12  C   UNL     1      46.383   2.461   7.975  0.00  0.00    +0.000 A 
ATOM     13  C   UNL     1      45.583   1.423   8.402  0.00  0.00    +0.000 A 
ATOM     14  C   UNL     1      44.671   1.955   9.350  0.00  0.00    +0.000 A 
ATOM     15  C   UNL     1      44.929   3.311   9.486  0.00  0.00    +0.000 A 
ATOM     16  N   UNL     1      45.981   3.591   8.633  0.00  0.00    +0.000 N 
ATOM     17  H   UNL     1      46.386   4.515   8.528  0.00  0.00    +0.000 HD
BRANCH  12  19
ATOM     18  N   UNL     1      48.314   2.398   6.263  0.00  0.00    +0.000 NA
ATOM     19  C   UNL     1      47.447   2.420   7.031  0.00  0.00    +0.000 C 
ENDBRANCH  12  19
ENDBRANCH   8  15
ENDBRANCH   7  10
ENDBRANCH   1   7
BRANCH   4  20
ATOM     20  C   UNL     1      47.934  10.341  12.583  0.00  0.00    +0.000 C 
BRANCH  20  21
ATOM     21  N   UNL     1      49.273  10.042  12.144  0.00  0.00    +0.000 N 
ATOM     22  C   UNL     1      49.797  10.628  11.017  0.00  0.00    +0.000 C 
ATOM     23  O   UNL     1      49.168  11.458  10.364  0.00  0.00    +0.000 OA
ATOM     24  H   UNL     1      49.706   9.202  12.514  0.00  0.00    +0.000 HD
BRANCH  22  25
ATOM     25  C   UNL     1      51.174  10.260  10.663  0.00  0.00    +0.000 A 
ATOM     26  C   UNL     1      52.086  11.252  10.323  0.00  0.00    +0.000 A 
ATOM     27  S   UNL     1      53.652  10.658   9.995  0.00  0.00    +0.000 S 
ATOM     28  C   UNL     1      53.153   9.050  10.243  0.00  0.00    +0.000 A 
ATOM     29  N   UNL     1      54.025   8.017  10.092  0.00  0.00    +0.000 NA
ATOM     30  C   UNL     1      53.504   6.849  10.279  0.00  0.00    +0.000 A 
ATOM     31  N   UNL     1      52.192   6.623  10.606  0.00  0.00    +0.000 N 
ATOM     32  C   UNL     1      51.284   7.637  10.797  0.00  0.00    +0.000 A 
ATOM     33  O   UNL     1      50.126   7.401  11.129  0.00  0.00    +0.000 OA
ATOM     34  C   UNL     1      51.816   8.969  10.587  0.00  0.00    +0.000 A 
ATOM     35  H   UNL     1      51.849   5.685  10.746  0.00  0.00    +0.000 HD
ENDBRANCH  22  25
ENDBRANCH  20  21
ENDBRANCH   4  20
TORSDOF 7
ENDMDL
MODEL 8
REMARK VINA RESULT:    -5.921      3.295      8.847
REMARK INTER + INTRA:          -9.511
REMARK INTER:                  -8.668
REMARK INTRA:                  -0.843
REMARK UNBOUND:                -1.167
REMARK  Name = 
REMARK  7 active torsions:
REMARK  status: ('A' for Active; 'I' for Inactive)
REMARK    1  A    between atoms: C_2  and  C_3
REMARK    2  A    between atoms: C_6  and  C_7
REMARK    3  A    between atoms: N_9  and  C_10
REMARK    4  A    between atoms: C_10  and  C_11
REMARK    5  A    between atoms: C_14  and  C_15
REMARK    6  A    between atoms: C_15  and  N_16
REMARK    7  A    between atoms: C_17  and  C_19
REMARK                            x       y       z     vdW  Elec       q    Type
REMARK                         _______ _______ _______ _____ _____    ______ ____
ROOT
ATOM      1  C   UNL     1      50.250   8.391  14.639  0.00  0.00    +0.000 A 
ATOM      2  C   UNL     1      50.442   8.073  13.288  0.00  0.00    +0.000 A 
ATOM      3  C   UNL     1      49.359   8.027  12.402  0.00  0.00    +0.000 A 
ATOM      4  C   UNL     1      48.061   8.322  12.843  0.00  0.00    +0.000 A 
ATOM      5  C   UNL     1      47.870   8.636  14.196  0.00  0.00    +0.000 A 
ATOM      6  C   UNL     1      48.953   8.682  15.081  0.00  0.00    +0.000 A 
ENDROOT
BRANCH   1   7
ATOM      7  C   UNL     1      51.416   8.431  15.594  0.00  0.00    +0.000 C 
BRANCH   7  10
ATOM      8  C   UNL     1      52.063   6.920  17.414  0.00  0.00    +0.000 C 
ATOM      9  O   UNL     1      52.070   7.834  18.234  0.00  0.00    +0.000 OA
ATOM     10  N   UNL     1      51.749   7.117  16.092  0.00  0.00    +0.000 N 
ATOM     11  H   UNL     1      51.828   6.358  15.433  0.00  0.00    +0.000 HD
BRANCH   8  15
ATOM     12  C   UNL     1      52.130   3.311  17.823  0.00  0.00    +0.000 A 
ATOM     13  C   UNL     1      53.252   3.607  18.567  0.00  0.00    +0.000 A 
ATOM     14  C   UNL     1      53.416   5.017  18.542  0.00  0.00    +0.000 A 
ATOM     15  C   UNL     1      52.389   5.558  17.784  0.00  0.00    +0.000 A 
ATOM     16  N   UNL     1      51.618   4.491  17.358  0.00  0.00    +0.000 N 
ATOM     17  H   UNL     1      50.794   4.592  16.776  0.00  0.00    +0.000 HD
BRANCH  12  19
ATOM     18  N   UNL     1      51.099   0.997  17.328  0.00  0.00    +0.000 NA
ATOM     19  C   UNL     1      51.566   2.033  17.554  0.00  0.00    +0.000 C 
ENDBRANCH  12  19
ENDBRANCH   8  15
ENDBRANCH   7  10
ENDBRANCH   1   7
BRANCH   4  20
ATOM     20  C   UNL     1      46.887   8.280  11.897  0.00  0.00    +0.000 C 
BRANCH  20  21
ATOM     21  N   UNL     1      46.387   6.940  11.727  0.00  0.00    +0.000 N 
ATOM     22  C   UNL     1      45.051   6.704  11.511  0.00  0.00    +0.000 C 
ATOM     23  O   UNL     1      44.237   7.619  11.411  0.00  0.00    +0.000 OA
ATOM     24  H   UNL     1      46.981   6.180  12.042  0.00  0.00    +0.000 HD
BRANCH  22  25
ATOM     25  C   UNL     1      44.649   5.302  11.342  0.00  0.00    +0.000 A 
ATOM     26  C   UNL     1      43.923   4.667  12.342  0.00  0.00    +0.000 A 
ATOM     27  S   UNL     1      43.490   3.061  11.960  0.00  0.00    +0.000 S 
ATOM     28  C   UNL     1      44.305   3.139  10.468  0.00  0.00    +0.000 A 
ATOM     29  N   UNL     1      44.345   2.064   9.637  0.00  0.00    +0.000 NA
ATOM     30  C   UNL     1      45.024   2.252   8.554  0.00  0.00    +0.000 A 
ATOM     31  N   UNL     1      45.662   3.421   8.226  0.00  0.00    +0.000 N 
ATOM     32  C   UNL     1      45.624   4.541   9.021  0.00  0.00    +0.000 A 
ATOM     33  O   UNL     1      46.173   5.584   8.680  0.00  0.00    +0.000 OA
ATOM     34  C   UNL     1      44.883   4.378  10.257  0.00  0.00    +0.000 A 
ATOM     35  H   UNL     1      46.171   3.506   7.360  0.00  0.00    +0.000 HD
ENDBRANCH  22  25
ENDBRANCH  20  21
ENDBRANCH   4  20
TORSDOF 7
ENDMDL
MODEL 9
REMARK VINA RESULT:    -5.898      5.920      8.153
REMARK INTER + INTRA:          -9.479
REMARK INTER:                  -8.476
REMARK INTRA:                  -1.003
REMARK UNBOUND:                -1.167
REMARK  Name = 
REMARK  7 active torsions:
REMARK  status: ('A' for Active; 'I' for Inactive)
REMARK    1  A    between atoms: C_2  and  C_3
REMARK    2  A    between atoms: C_6  and  C_7
REMARK    3  A    between atoms: N_9  and  C_10
REMARK    4  A    between atoms: C_10  and  C_11
REMARK    5  A    between atoms: C_14  and  C_15
REMARK    6  A    between atoms: C_15  and  N_16
REMARK    7  A    between atoms: C_17  and  C_19
REMARK                            x       y       z     vdW  Elec       q    Type
REMARK                         _______ _______ _______ _____ _____    ______ ____
ROOT
ATOM      1  C   UNL     1      48.868   8.417  12.113  0.00  0.00    +0.000 A 
ATOM      2  C   UNL     1      49.864   7.488  11.782  0.00  0.00    +0.000 A 
ATOM      3  C   UNL     1      51.044   7.899  11.148  0.00  0.00    +0.000 A 
ATOM      4  C   UNL     1      51.262   9.251  10.851  0.00  0.00    +0.000 A 
ATOM      5  C   UNL     1      50.262  10.178  11.177  0.00  0.00    +0.000 A 
ATOM      6  C   UNL     1      49.084   9.768  11.812  0.00  0.00    +0.000 A 
ENDROOT
BRANCH   1   7
ATOM      7  C   UNL     1      47.594   7.972  12.787  0.00  0.00    +0.000 C 
BRANCH   7  10
ATOM      8  C   UNL     1      45.608   7.084  11.656  0.00  0.00    +0.000 C 
ATOM      9  O   UNL     1      44.950   8.085  11.922  0.00  0.00    +0.000 OA
ATOM     10  N   UNL     1      46.920   6.940  12.037  0.00  0.00    +0.000 N 
ATOM     11  H   UNL     1      47.405   6.073  11.867  0.00  0.00    +0.000 HD
BRANCH   8  15
ATOM     12  C   UNL     1      44.930   4.447   9.251  0.00  0.00    +0.000 A 
ATOM     13  C   UNL     1      43.862   4.217  10.091  0.00  0.00    +0.000 A 
ATOM     14  C   UNL     1      43.934   5.173  11.137  0.00  0.00    +0.000 A 
ATOM     15  C   UNL     1      45.045   5.973  10.918  0.00  0.00    +0.000 A 
ATOM     16  N   UNL     1      45.635   5.505   9.757  0.00  0.00    +0.000 N 
ATOM     17  H   UNL     1      46.477   5.903   9.357  0.00  0.00    +0.000 HD
BRANCH  12  19
ATOM     18  N   UNL     1      45.564   3.164   7.102  0.00  0.00    +0.000 NA
ATOM     19  C   UNL     1      45.284   3.743   8.066  0.00  0.00    +0.000 C 
ENDBRANCH  12  19
ENDBRANCH   8  15
ENDBRANCH   7  10
ENDBRANCH   1   7
BRANCH   4  20
ATOM     20  C   UNL     1      52.529   9.706  10.171  0.00  0.00    +0.000 C 
BRANCH  20  21
ATOM     21  N   UNL     1      52.816   8.922   8.997  0.00  0.00    +0.000 N 
ATOM     22  C   UNL     1      54.074   8.905   8.446  0.00  0.00    +0.000 C 
ATOM     23  O   UNL     1      55.012   9.518   8.949  0.00  0.00    +0.000 OA
ATOM     24  H   UNL     1      52.025   8.615   8.440  0.00  0.00    +0.000 HD
BRANCH  22  25
ATOM     25  C   UNL     1      54.260   8.066   7.255  0.00  0.00    +0.000 A 
ATOM     26  C   UNL     1      54.652   8.648   6.055  0.00  0.00    +0.000 A 
ATOM     27  S   UNL     1      54.876   7.524   4.791  0.00  0.00    +0.000 S 
ATOM     28  C   UNL     1      54.404   6.228   5.786  0.00  0.00    +0.000 A 
ATOM     29  N   UNL     1      54.351   4.958   5.302  0.00  0.00    +0.000 NA
ATOM     30  C   UNL     1      53.946   4.077   6.156  0.00  0.00    +0.000 A 
ATOM     31  N   UNL     1      53.593   4.353   7.452  0.00  0.00    +0.000 N 
ATOM     32  C   UNL     1      53.658   5.614   7.992  0.00  0.00    +0.000 A 
ATOM     33  O   UNL     1      53.373   5.820   9.168  0.00  0.00    +0.000 OA
ATOM     34  C   UNL     1      54.097   6.643   7.069  0.00  0.00    +0.000 A 
ATOM     35  H   UNL     1      53.291   3.617   8.072  0.00  0.00    +0.000 HD
ENDBRANCH  22  25
ENDBRANCH  20  21
ENDBRANCH   4  20
TORSDOF 7
ENDMDL
