MODEL 1
REMARK VINA RESULT:    -8.344      0.000      0.000
REMARK INTER + INTRA:         -13.118
REMARK INTER:                 -12.003
REMARK INTRA:                  -1.115
REMARK UNBOUND:                -1.115
REMARK  Name = 
REMARK  8 active torsions:
REMARK  status: ('A' for Active; 'I' for Inactive)
REMARK    1  A    between atoms: N_1  and  C_2
REMARK    2  A    between atoms: C_2  and  C_3
REMARK    3  A    between atoms: C_3  and  N_4
REMARK    4  A    between atoms: C_3  and  C_17
REMARK    5  A    between atoms: C_5  and  C_7
REMARK    6  A    between atoms: C_20  and  O_21
REMARK    7  A    between atoms: O_21  and  C_22
REMARK    8  A    between atoms: C_22  and  C_23
REMARK                            x       y       z     vdW  Elec       q    Type
REMARK                         _______ _______ _______ _____ _____    ______ ____
ROOT
ATOM      1  C   UNL     1      47.484   6.758  13.388  0.00  0.00    +0.000 C 
ENDROOT
BRANCH   1   2
ATOM      2  C   UNL     1      46.504   5.931  12.563  0.00  0.00    +0.000 A 
ATOM      3  C   UNL     1      46.021   6.412  11.338  0.00  0.00    +0.000 A 
ATOM      4  C   UNL     1      45.191   5.618  10.543  0.00  0.00    +0.000 A 
ATOM      5  C   UNL     1      44.847   4.328  10.951  0.00  0.00    +0.000 A 
ATOM      6  C   UNL     1      45.273   3.863  12.194  0.00  0.00    +0.000 A 
ATOM      7  C   UNL     1      46.105   4.653  12.987  0.00  0.00    +0.000 A 
BRANCH   5   8
ATOM      8  O   UNL     1      44.105   3.597  10.060  0.00  0.00    +0.000 OA
BRANCH   8   9
ATOM      9  C   UNL     1      44.631   2.292   9.779  0.00  0.00    +0.000 C 
BRANCH   9  10
ATOM     10  C   UNL     1      45.530   2.305   8.569  0.00  0.00    +0.000 A 
ATOM     11  C   UNL     1      45.553   3.385   7.693  0.00  0.00    +0.000 A 
ATOM     12  C   UNL     1      46.380   3.328   6.579  0.00  0.00    +0.000 A 
ATOM     13  C   UNL     1      47.154   2.196   6.353  0.00  0.00    +0.000 A 
ATOM     14  C   UNL     1      47.064   1.157   7.259  0.00  0.00    +0.000 A 
ATOM     15  N   UNL     1      46.267   1.180   8.350  0.00  0.00    +0.000 NA
ENDBRANCH   9  10
ENDBRANCH   8   9
ENDBRANCH   5   8
ENDBRANCH   1   2
BRANCH   1  16
ATOM     16  N   UNL     1      47.537   6.193  14.731  0.00  0.00    +0.000 N 
ATOM     17  C   UNL     1      48.669   6.149  15.495  0.00  0.00    +0.000 C 
ATOM     18  O   UNL     1      49.726   6.654  15.135  0.00  0.00    +0.000 OA
ATOM     19  H   UNL     1      46.722   5.669  15.031  0.00  0.00    +0.000 HD
BRANCH  17  20
ATOM     20  C   UNL     1      48.533   5.500  16.808  0.00  0.00    +0.000 A 
ATOM     21  C   UNL     1      48.651   4.123  16.917  0.00  0.00    +0.000 A 
ATOM     22  S   UNL     1      48.473   3.543  18.512  0.00  0.00    +0.000 S 
ATOM     23  C   UNL     1      48.181   5.111  19.108  0.00  0.00    +0.000 A 
ATOM     24  N   UNL     1      47.907   5.321  20.421  0.00  0.00    +0.000 NA
ATOM     25  C   UNL     1      47.655   6.552  20.729  0.00  0.00    +0.000 A 
ATOM     26  N   UNL     1      47.674   7.593  19.838  0.00  0.00    +0.000 N 
ATOM     27  C   UNL     1      48.034   7.440  18.523  0.00  0.00    +0.000 A 
ATOM     28  O   UNL     1      48.205   8.410  17.795  0.00  0.00    +0.000 OA
ATOM     29  C   UNL     1      48.262   6.068  18.110  0.00  0.00    +0.000 A 
ATOM     30  H   UNL     1      47.512   8.540  20.147  0.00  0.00    +0.000 HD
ENDBRANCH  17  20
ENDBRANCH   1  16
BRANCH   1  31
ATOM     31  C   UNL     1      47.089   8.264  13.427  0.00  0.00    +0.000 C 
BRANCH  31  32
ATOM     32  N   UNL     1      47.282   8.907  14.735  0.00  0.00    +0.000 NA
ATOM     33  H   UNL     1      46.739   9.769  14.765  0.00  0.00    +0.000 HD
ATOM     34  H   UNL     1      48.259   9.182  14.839  0.00  0.00    +0.000 HD
ENDBRANCH  31  32
ENDBRANCH   1  31
TORSDOF 8
ENDMDL
MODEL 2
REMARK VINA RESULT:    -8.105      1.528      2.124
REMARK INTER + INTRA:         -12.774
REMARK INTER:                 -11.860
REMARK INTRA:                  -0.913
REMARK UNBOUND:                -1.115
REMARK  Name = 
REMARK  8 active torsions:
REMARK  status: ('A' for Active; 'I' for Inactive)
REMARK    1  A    between atoms: N_1  and  C_2
REMARK    2  A    between atoms: C_2  and  C_3
REMARK    3  A    between atoms: C_3  and  N_4
REMARK    4  A    between atoms: C_3  and  C_17
REMARK    5  A    between atoms: C_5  and  C_7
REMARK    6  A    between atoms: C_20  and  O_21
REMARK    7  A    between atoms: O_21  and  C_22
REMARK    8  A    between atoms: C_22  and  C_23
REMARK                            x       y       z     vdW  Elec       q    Type
REMARK                         _______ _______ _______ _____ _____    ______ ____
ROOT
ATOM      1  C   UNL     1      47.312   7.405  12.914  0.00  0.00    +0.000 C 
ENDROOT
BRANCH   1   2
ATOM      2  C   UNL     1      46.497   6.267  12.309  0.00  0.00    +0.000 A 
ATOM      3  C   UNL     1      46.110   6.307  10.963  0.00  0.00    +0.000 A 
ATOM      4  C   UNL     1      45.437   5.226  10.387  0.00  0.00    +0.000 A 
ATOM      5  C   UNL     1      45.159   4.086  11.141  0.00  0.00    +0.000 A 
ATOM      6  C   UNL     1      45.488   4.060  12.496  0.00  0.00    +0.000 A 
ATOM      7  C   UNL     1      46.162   5.136  13.071  0.00  0.00    +0.000 A 
BRANCH   5   8
ATOM      8  O   UNL     1      44.580   3.046  10.462  0.00  0.00    +0.000 OA
BRANCH   8   9
ATOM      9  C   UNL     1      44.415   3.272   9.055  0.00  0.00    +0.000 C 
BRANCH   9  10
ATOM     10  C   UNL     1      45.535   2.651   8.259  0.00  0.00    +0.000 A 
ATOM     11  C   UNL     1      46.225   3.372   7.291  0.00  0.00    +0.000 A 
ATOM     12  C   UNL     1      47.228   2.738   6.570  0.00  0.00    +0.000 A 
ATOM     13  C   UNL     1      47.514   1.401   6.817  0.00  0.00    +0.000 A 
ATOM     14  C   UNL     1      46.775   0.748   7.783  0.00  0.00    +0.000 A 
ATOM     15  N   UNL     1      45.790   1.334   8.498  0.00  0.00    +0.000 NA
ENDBRANCH   9  10
ENDBRANCH   8   9
ENDBRANCH   5   8
ENDBRANCH   1   2
BRANCH   1  16
ATOM     16  N   UNL     1      47.532   7.105  14.324  0.00  0.00    +0.000 N 
ATOM     17  C   UNL     1      48.763   6.875  14.871  0.00  0.00    +0.000 C 
ATOM     18  O   UNL     1      49.800   6.974  14.225  0.00  0.00    +0.000 OA
ATOM     19  H   UNL     1      46.705   6.906  14.877  0.00  0.00    +0.000 HD
BRANCH  17  20
ATOM     20  C   UNL     1      48.778   6.546  16.305  0.00  0.00    +0.000 A 
ATOM     21  C   UNL     1      49.093   7.522  17.238  0.00  0.00    +0.000 A 
ATOM     22  S   UNL     1      49.054   6.967  18.851  0.00  0.00    +0.000 S 
ATOM     23  C   UNL     1      48.661   5.387  18.356  0.00  0.00    +0.000 A 
ATOM     24  N   UNL     1      48.520   4.385  19.261  0.00  0.00    +0.000 NA
ATOM     25  C   UNL     1      48.272   3.224  18.746  0.00  0.00    +0.000 A 
ATOM     26  N   UNL     1      48.133   2.986  17.404  0.00  0.00    +0.000 N 
ATOM     27  C   UNL     1      48.177   3.983  16.463  0.00  0.00    +0.000 A 
ATOM     28  O   UNL     1      47.882   3.766  15.294  0.00  0.00    +0.000 OA
ATOM     29  C   UNL     1      48.519   5.294  16.982  0.00  0.00    +0.000 A 
ATOM     30  H   UNL     1      47.894   2.065  17.065  0.00  0.00    +0.000 HD
ENDBRANCH  17  20
ENDBRANCH   1  16
BRANCH   1  31
ATOM     31  C   UNL     1      46.612   8.784  12.736  0.00  0.00    +0.000 C 
BRANCH  31  32
ATOM     32  N   UNL     1      45.270   8.864  13.329  0.00  0.00    +0.000 NA
ATOM     33  H   UNL     1      44.668   9.416  12.719  0.00  0.00    +0.000 HD
ATOM     34  H   UNL     1      45.318   9.369  14.215  0.00  0.00    +0.000 HD
ENDBRANCH  31  32
ENDBRANCH   1  31
TORSDOF 8
ENDMDL
MODEL 3
REMARK VINA RESULT:    -7.926      1.039      1.559
REMARK INTER + INTRA:         -12.517
REMARK INTER:                 -11.041
REMARK INTRA:                  -1.476
REMARK UNBOUND:                -1.115
REMARK  Name = 
REMARK  8 active torsions:
REMARK  status: ('A' for Active; 'I' for Inactive)
REMARK    1  A    between atoms: N_1  and  C_2
REMARK    2  A    between atoms: C_2  and  C_3
REMARK    3  A    between atoms: C_3  and  N_4
REMARK    4  A    between atoms: C_3  and  C_17
REMARK    5  A    between atoms: C_5  and  C_7
REMARK    6  A    between atoms: C_20  and  O_21
REMARK    7  A    between atoms: O_21  and  C_22
REMARK    8  A    between atoms: C_22  and  C_23
REMARK                            x       y       z     vdW  Elec       q    Type
REMARK                         _______ _______ _______ _____ _____    ______ ____
ROOT
ATOM      1  C   UNL     1      48.079   7.098  13.903  0.00  0.00    +0.000 C 
ENDROOT
BRANCH   1   2
ATOM      2  C   UNL     1      47.068   6.296  13.091  0.00  0.00    +0.000 A 
ATOM      3  C   UNL     1      46.848   4.940  13.369  0.00  0.00    +0.000 A 
ATOM      4  C   UNL     1      45.861   4.227  12.683  0.00  0.00    +0.000 A 
ATOM      5  C   UNL     1      45.069   4.863  11.726  0.00  0.00    +0.000 A 
ATOM      6  C   UNL     1      45.318   6.195  11.402  0.00  0.00    +0.000 A 
ATOM      7  C   UNL     1      46.300   6.909  12.088  0.00  0.00    +0.000 A 
BRANCH   5   8
ATOM      8  O   UNL     1      44.069   4.104  11.177  0.00  0.00    +0.000 OA
BRANCH   8   9
ATOM      9  C   UNL     1      43.862   4.318   9.773  0.00  0.00    +0.000 C 
BRANCH   9  10
ATOM     10  C   UNL     1      44.862   3.555   8.942  0.00  0.00    +0.000 A 
ATOM     11  C   UNL     1      45.058   2.189   9.115  0.00  0.00    +0.000 A 
ATOM     12  C   UNL     1      46.014   1.545   8.341  0.00  0.00    +0.000 A 
ATOM     13  C   UNL     1      46.762   2.273   7.423  0.00  0.00    +0.000 A 
ATOM     14  C   UNL     1      46.520   3.629   7.320  0.00  0.00    +0.000 A 
ATOM     15  N   UNL     1      45.601   4.286   8.062  0.00  0.00    +0.000 NA
ENDBRANCH   9  10
ENDBRANCH   8   9
ENDBRANCH   5   8
ENDBRANCH   1   2
BRANCH   1  16
ATOM     16  N   UNL     1      48.033   6.624  15.281  0.00  0.00    +0.000 N 
ATOM     17  C   UNL     1      49.140   6.309  16.017  0.00  0.00    +0.000 C 
ATOM     18  O   UNL     1      50.279   6.470  15.594  0.00  0.00    +0.000 OA
ATOM     19  H   UNL     1      47.118   6.373  15.640  0.00  0.00    +0.000 HD
BRANCH  17  20
ATOM     20  C   UNL     1      48.887   5.807  17.376  0.00  0.00    +0.000 A 
ATOM     21  C   UNL     1      49.096   4.468  17.672  0.00  0.00    +0.000 A 
ATOM     22  S   UNL     1      48.760   4.064  19.295  0.00  0.00    +0.000 S 
ATOM     23  C   UNL     1      48.274   5.657  19.649  0.00  0.00    +0.000 A 
ATOM     24  N   UNL     1      47.819   5.992  20.883  0.00  0.00    +0.000 NA
ATOM     25  C   UNL     1      47.435   7.222  21.000  0.00  0.00    +0.000 A 
ATOM     26  N   UNL     1      47.488   8.150  19.993  0.00  0.00    +0.000 N 
ATOM     27  C   UNL     1      48.024   7.879  18.760  0.00  0.00    +0.000 A 
ATOM     28  O   UNL     1      48.212   8.769  17.940  0.00  0.00    +0.000 OA
ATOM     29  C   UNL     1      48.409   6.495  18.555  0.00  0.00    +0.000 A 
ATOM     30  H   UNL     1      47.216   9.107  20.159  0.00  0.00    +0.000 HD
ENDBRANCH  17  20
ENDBRANCH   1  16
BRANCH   1  31
ATOM     31  C   UNL     1      47.808   8.629  13.825  0.00  0.00    +0.000 C 
BRANCH  31  32
ATOM     32  N   UNL     1      47.342   9.227  15.085  0.00  0.00    +0.000 NA
ATOM     33  H   UNL     1      46.545   8.694  15.431  0.00  0.00    +0.000 HD
ATOM     34  H   UNL     1      46.997  10.171  14.907  0.00  0.00    +0.000 HD
ENDBRANCH  31  32
ENDBRANCH   1  31
TORSDOF 8
ENDMDL
MODEL 4
REMARK VINA RESULT:    -7.766      1.671      2.080
REMARK INTER + INTRA:         -12.286
REMARK INTER:                 -11.119
REMARK INTRA:                  -1.166
REMARK UNBOUND:                -1.115
REMARK  Name = 
REMARK  8 active torsions:
REMARK  status: ('A' for Active; 'I' for Inactive)
REMARK    1  A    between atoms: N_1  and  C_2
REMARK    2  A    between atoms: C_2  and  C_3
REMARK    3  A    between atoms: C_3  and  N_4
REMARK    4  A    between atoms: C_3  and  C_17
REMARK    5  A    between atoms: C_5  and  C_7
REMARK    6  A    between atoms: C_20  and  O_21
REMARK    7  A    between atoms: O_21  and  C_22
REMARK    8  A    between atoms: C_22  and  C_23
REMARK                            x       y       z     vdW  Elec       q    Type
REMARK                         _______ _______ _______ _____ _____    ______ ____
ROOT
ATOM      1  C   UNL     1      48.596   6.465  13.615  0.00  0.00    +0.000 C 
ENDROOT
BRANCH   1   2
ATOM      2  C   UNL     1      47.335   5.978  12.910  0.00  0.00    +0.000 A 
ATOM      3  C   UNL     1      46.853   6.643  11.775  0.00  0.00    +0.000 A 
ATOM      4  C   UNL     1      45.747   6.147  11.079  0.00  0.00    +0.000 A 
ATOM      5  C   UNL     1      45.121   4.971  11.496  0.00  0.00    +0.000 A 
ATOM      6  C   UNL     1      45.557   4.335  12.657  0.00  0.00    +0.000 A 
ATOM      7  C   UNL     1      46.662   4.827  13.350  0.00  0.00    +0.000 A 
BRANCH   5   8
ATOM      8  O   UNL     1      44.105   4.518  10.696  0.00  0.00    +0.000 OA
BRANCH   8   9
ATOM      9  C   UNL     1      44.199   3.129  10.346  0.00  0.00    +0.000 C 
BRANCH   9  10
ATOM     10  C   UNL     1      45.102   2.917   9.157  0.00  0.00    +0.000 A 
ATOM     11  C   UNL     1      45.327   3.926   8.226  0.00  0.00    +0.000 A 
ATOM     12  C   UNL     1      46.145   3.662   7.136  0.00  0.00    +0.000 A 
ATOM     13  C   UNL     1      46.711   2.401   6.988  0.00  0.00    +0.000 A 
ATOM     14  C   UNL     1      46.428   1.447   7.946  0.00  0.00    +0.000 A 
ATOM     15  N   UNL     1      45.633   1.670   9.015  0.00  0.00    +0.000 NA
ENDBRANCH   9  10
ENDBRANCH   8   9
ENDBRANCH   5   8
ENDBRANCH   1   2
BRANCH   1  16
ATOM     16  N   UNL     1      48.272   6.695  15.017  0.00  0.00    +0.000 N 
ATOM     17  C   UNL     1      49.173   6.577  16.038  0.00  0.00    +0.000 C 
ATOM     18  O   UNL     1      50.358   6.335  15.844  0.00  0.00    +0.000 OA
ATOM     19  H   UNL     1      47.287   6.792  15.241  0.00  0.00    +0.000 HD
BRANCH  17  20
ATOM     20  C   UNL     1      48.645   6.808  17.391  0.00  0.00    +0.000 A 
ATOM     21  C   UNL     1      48.195   8.068  17.755  0.00  0.00    +0.000 A 
ATOM     22  S   UNL     1      47.610   8.152  19.356  0.00  0.00    +0.000 S 
ATOM     23  C   UNL     1      47.985   6.515  19.636  0.00  0.00    +0.000 A 
ATOM     24  N   UNL     1      47.768   5.946  20.850  0.00  0.00    +0.000 NA
ATOM     25  C   UNL     1      48.144   4.712  20.941  0.00  0.00    +0.000 A 
ATOM     26  N   UNL     1      48.700   3.993  19.915  0.00  0.00    +0.000 N 
ATOM     27  C   UNL     1      48.853   4.500  18.650  0.00  0.00    +0.000 A 
ATOM     28  O   UNL     1      49.194   3.784  17.716  0.00  0.00    +0.000 OA
ATOM     29  C   UNL     1      48.508   5.902  18.510  0.00  0.00    +0.000 A 
ATOM     30  H   UNL     1      48.932   3.018  20.034  0.00  0.00    +0.000 HD
ENDBRANCH  17  20
ENDBRANCH   1  16
BRANCH   1  31
ATOM     31  C   UNL     1      49.176   7.750  12.954  0.00  0.00    +0.000 C 
BRANCH  31  32
ATOM     32  N   UNL     1      50.644   7.829  12.967  0.00  0.00    +0.000 NA
ATOM     33  H   UNL     1      50.988   7.484  13.862  0.00  0.00    +0.000 HD
ATOM     34  H   UNL     1      50.933   8.807  12.909  0.00  0.00    +0.000 HD
ENDBRANCH  31  32
ENDBRANCH   1  31
TORSDOF 8
ENDMDL
MODEL 5
REMARK VINA RESULT:    -7.660      2.984      4.530
REMARK INTER + INTRA:         -12.133
REMARK INTER:                 -10.799
REMARK INTRA:                  -1.334
REMARK UNBOUND:                -1.115
REMARK  Name = 
REMARK  8 active torsions:
REMARK  status: ('A' for Active; 'I' for Inactive)
REMARK    1  A    between atoms: N_1  and  C_2
REMARK    2  A    between atoms: C_2  and  C_3
REMARK    3  A    between atoms: C_3  and  N_4
REMARK    4  A    between atoms: C_3  and  C_17
REMARK    5  A    between atoms: C_5  and  C_7
REMARK    6  A    between atoms: C_20  and  O_21
REMARK    7  A    between atoms: O_21  and  C_22
REMARK    8  A    between atoms: C_22  and  C_23
REMARK                            x       y       z     vdW  Elec       q    Type
REMARK                         _______ _______ _______ _____ _____    ______ ____
ROOT
ATOM      1  C   UNL     1      46.727   5.711  13.982  0.00  0.00    +0.000 C 
ENDROOT
BRANCH   1   2
ATOM      2  C   UNL     1      46.100   5.074  12.747  0.00  0.00    +0.000 A 
ATOM      3  C   UNL     1      45.637   3.751  12.786  0.00  0.00    +0.000 A 
ATOM      4  C   UNL     1      44.986   3.197  11.681  0.00  0.00    +0.000 A 
ATOM      5  C   UNL     1      44.771   3.959  10.532  0.00  0.00    +0.000 A 
ATOM      6  C   UNL     1      45.279   5.255  10.463  0.00  0.00    +0.000 A 
ATOM      7  C   UNL     1      45.926   5.812  11.565  0.00  0.00    +0.000 A 
BRANCH   5   8
ATOM      8  O   UNL     1      44.043   3.356   9.540  0.00  0.00    +0.000 OA
BRANCH   8   9
ATOM      9  C   UNL     1      44.511   2.051   9.170  0.00  0.00    +0.000 C 
BRANCH   9  10
ATOM     10  C   UNL     1      45.633   2.129   8.166  0.00  0.00    +0.000 A 
ATOM     11  C   UNL     1      45.778   3.225   7.322  0.00  0.00    +0.000 A 
ATOM     12  C   UNL     1      46.815   3.227   6.398  0.00  0.00    +0.000 A 
ATOM     13  C   UNL     1      47.674   2.138   6.323  0.00  0.00    +0.000 A 
ATOM     14  C   UNL     1      47.456   1.080   7.183  0.00  0.00    +0.000 A 
ATOM     15  N   UNL     1      46.455   1.044   8.090  0.00  0.00    +0.000 NA
ENDBRANCH   9  10
ENDBRANCH   8   9
ENDBRANCH   5   8
ENDBRANCH   1   2
BRANCH   1  16
ATOM     16  N   UNL     1      47.884   6.488  13.554  0.00  0.00    +0.000 N 
ATOM     17  C   UNL     1      47.874   7.846  13.398  0.00  0.00    +0.000 C 
ATOM     18  O   UNL     1      46.900   8.534  13.678  0.00  0.00    +0.000 OA
ATOM     19  H   UNL     1      48.678   5.960  13.208  0.00  0.00    +0.000 HD
BRANCH  17  20
ATOM     20  C   UNL     1      49.128   8.445  12.916  0.00  0.00    +0.000 A 
ATOM     21  C   UNL     1      49.130   9.217  11.764  0.00  0.00    +0.000 A 
ATOM     22  S   UNL     1      50.667   9.839  11.358  0.00  0.00    +0.000 S 
ATOM     23  C   UNL     1      51.395   9.055  12.683  0.00  0.00    +0.000 A 
ATOM     24  N   UNL     1      52.732   9.142  12.899  0.00  0.00    +0.000 NA
ATOM     25  C   UNL     1      53.161   8.457  13.910  0.00  0.00    +0.000 A 
ATOM     26  N   UNL     1      52.361   7.710  14.734  0.00  0.00    +0.000 N 
ATOM     27  C   UNL     1      50.995   7.667  14.607  0.00  0.00    +0.000 A 
ATOM     28  O   UNL     1      50.296   7.131  15.457  0.00  0.00    +0.000 OA
ATOM     29  C   UNL     1      50.470   8.365  13.449  0.00  0.00    +0.000 A 
ATOM     30  H   UNL     1      52.748   7.233  15.535  0.00  0.00    +0.000 HD
ENDBRANCH  17  20
ENDBRANCH   1  16
BRANCH   1  31
ATOM     31  C   UNL     1      47.127   4.648  15.048  0.00  0.00    +0.000 C 
BRANCH  31  32
ATOM     32  N   UNL     1      48.073   5.134  16.063  0.00  0.00    +0.000 NA
ATOM     33  H   UNL     1      48.521   5.983  15.721  0.00  0.00    +0.000 HD
ATOM     34  H   UNL     1      48.819   4.449  16.190  0.00  0.00    +0.000 HD
ENDBRANCH  31  32
ENDBRANCH   1  31
TORSDOF 8
ENDMDL
MODEL 6
REMARK VINA RESULT:    -7.578      2.785      4.676
REMARK INTER + INTRA:         -12.015
REMARK INTER:                 -10.632
REMARK INTRA:                  -1.383
REMARK UNBOUND:                -1.115
REMARK  Name = 
REMARK  8 active torsions:
REMARK  status: ('A' for Active; 'I' for Inactive)
REMARK    1  A    between atoms: N_1  and  C_2
REMARK    2  A    between atoms: C_2  and  C_3
REMARK    3  A    between atoms: C_3  and  N_4
REMARK    4  A    between atoms: C_3  and  C_17
REMARK    5  A    between atoms: C_5  and  C_7
REMARK    6  A    between atoms: C_20  and  O_21
REMARK    7  A    between atoms: O_21  and  C_22
REMARK    8  A    between atoms: C_22  and  C_23
REMARK                            x       y       z     vdW  Elec       q    Type
REMARK                         _______ _______ _______ _____ _____    ______ ____
ROOT
ATOM      1  C   UNL     1      47.081   5.559  14.479  0.00  0.00    +0.000 C 
ENDROOT
BRANCH   1   2
ATOM      2  C   UNL     1      46.419   5.117  13.179  0.00  0.00    +0.000 A 
ATOM      3  C   UNL     1      45.891   3.825  13.053  0.00  0.00    +0.000 A 
ATOM      4  C   UNL     1      45.209   3.448  11.893  0.00  0.00    +0.000 A 
ATOM      5  C   UNL     1      45.029   4.361  10.853  0.00  0.00    +0.000 A 
ATOM      6  C   UNL     1      45.600   5.629  10.944  0.00  0.00    +0.000 A 
ATOM      7  C   UNL     1      46.278   6.007  12.102  0.00  0.00    +0.000 A 
BRANCH   5   8
ATOM      8  O   UNL     1      44.268   3.925   9.800  0.00  0.00    +0.000 OA
BRANCH   8   9
ATOM      9  C   UNL     1      44.448   2.541   9.468  0.00  0.00    +0.000 C 
BRANCH   9  10
ATOM     10  C   UNL     1      45.500   2.358   8.404  0.00  0.00    +0.000 A 
ATOM     11  C   UNL     1      45.769   3.353   7.470  0.00  0.00    +0.000 A 
ATOM     12  C   UNL     1      46.729   3.117   6.495  0.00  0.00    +0.000 A 
ATOM     13  C   UNL     1      47.391   1.895   6.462  0.00  0.00    +0.000 A 
ATOM     14  C   UNL     1      47.058   0.952   7.413  0.00  0.00    +0.000 A 
ATOM     15  N   UNL     1      46.126   1.149   8.372  0.00  0.00    +0.000 NA
ENDBRANCH   9  10
ENDBRANCH   8   9
ENDBRANCH   5   8
ENDBRANCH   1   2
BRANCH   1  16
ATOM     16  N   UNL     1      48.339   6.217  14.146  0.00  0.00    +0.000 N 
ATOM     17  C   UNL     1      48.941   7.155  14.937  0.00  0.00    +0.000 C 
ATOM     18  O   UNL     1      48.502   7.469  16.037  0.00  0.00    +0.000 OA
ATOM     19  H   UNL     1      48.686   6.074  13.204  0.00  0.00    +0.000 HD
BRANCH  17  20
ATOM     20  C   UNL     1      50.185   7.737  14.410  0.00  0.00    +0.000 A 
ATOM     21  C   UNL     1      51.368   7.605  15.121  0.00  0.00    +0.000 A 
ATOM     22  S   UNL     1      52.711   8.333  14.358  0.00  0.00    +0.000 S 
ATOM     23  C   UNL     1      51.746   8.894  13.073  0.00  0.00    +0.000 A 
ATOM     24  N   UNL     1      52.279   9.642  12.073  0.00  0.00    +0.000 NA
ATOM     25  C   UNL     1      51.425  10.045  11.188  0.00  0.00    +0.000 A 
ATOM     26  N   UNL     1      50.088   9.745  11.208  0.00  0.00    +0.000 N 
ATOM     27  C   UNL     1      49.525   8.920  12.147  0.00  0.00    +0.000 A 
ATOM     28  O   UNL     1      48.367   8.535  12.042  0.00  0.00    +0.000 OA
ATOM     29  C   UNL     1      50.426   8.494  13.201  0.00  0.00    +0.000 A 
ATOM     30  H   UNL     1      49.480  10.052  10.463  0.00  0.00    +0.000 HD
ENDBRANCH  17  20
ENDBRANCH   1  16
BRANCH   1  31
ATOM     31  C   UNL     1      47.312   4.366  15.452  0.00  0.00    +0.000 C 
BRANCH  31  32
ATOM     32  N   UNL     1      47.217   4.718  16.876  0.00  0.00    +0.000 NA
ATOM     33  H   UNL     1      46.266   5.019  17.083  0.00  0.00    +0.000 HD
ATOM     34  H   UNL     1      47.818   5.521  17.069  0.00  0.00    +0.000 HD
ENDBRANCH  31  32
ENDBRANCH   1  31
TORSDOF 8
ENDMDL
MODEL 7
REMARK VINA RESULT:    -7.122      2.897      4.052
REMARK INTER + INTRA:         -11.360
REMARK INTER:                 -10.382
REMARK INTRA:                  -0.978
REMARK UNBOUND:                -1.115
REMARK  Name = 
REMARK  8 active torsions:
REMARK  status: ('A' for Active; 'I' for Inactive)
REMARK    1  A    between atoms: N_1  and  C_2
REMARK    2  A    between atoms: C_2  and  C_3
REMARK    3  A    between atoms: C_3  and  N_4
REMARK    4  A    between atoms: C_3  and  C_17
REMARK    5  A    between atoms: C_5  and  C_7
REMARK    6  A    between atoms: C_20  and  O_21
REMARK    7  A    between atoms: O_21  and  C_22
REMARK    8  A    between atoms: C_22  and  C_23
REMARK                            x       y       z     vdW  Elec       q    Type
REMARK                         _______ _______ _______ _____ _____    ______ ____
ROOT
ATOM      1  C   UNL     1      46.857   5.098  14.615  0.00  0.00    +0.000 C 
ENDROOT
BRANCH   1   2
ATOM      2  C   UNL     1      46.273   4.855  13.227  0.00  0.00    +0.000 A 
ATOM      3  C   UNL     1      45.666   3.632  12.915  0.00  0.00    +0.000 A 
ATOM      4  C   UNL     1      45.056   3.441  11.672  0.00  0.00    +0.000 A 
ATOM      5  C   UNL     1      45.029   4.473  10.733  0.00  0.00    +0.000 A 
ATOM      6  C   UNL     1      45.681   5.673  11.012  0.00  0.00    +0.000 A 
ATOM      7  C   UNL     1      46.287   5.867  12.253  0.00  0.00    +0.000 A 
BRANCH   5   8
ATOM      8  O   UNL     1      44.329   4.218   9.584  0.00  0.00    +0.000 OA
BRANCH   8   9
ATOM      9  C   UNL     1      44.398   2.857   9.134  0.00  0.00    +0.000 C 
BRANCH   9  10
ATOM     10  C   UNL     1      45.521   2.656   8.147  0.00  0.00    +0.000 A 
ATOM     11  C   UNL     1      46.261   1.479   8.119  0.00  0.00    +0.000 A 
ATOM     12  C   UNL     1      47.302   1.363   7.207  0.00  0.00    +0.000 A 
ATOM     13  C   UNL     1      47.593   2.422   6.355  0.00  0.00    +0.000 A 
ATOM     14  C   UNL     1      46.823   3.564   6.454  0.00  0.00    +0.000 A 
ATOM     15  N   UNL     1      45.807   3.710   7.332  0.00  0.00    +0.000 NA
ENDBRANCH   9  10
ENDBRANCH   8   9
ENDBRANCH   5   8
ENDBRANCH   1   2
BRANCH   1  16
ATOM     16  N   UNL     1      48.013   5.974  14.474  0.00  0.00    +0.000 N 
ATOM     17  C   UNL     1      48.659   6.559  15.527  0.00  0.00    +0.000 C 
ATOM     18  O   UNL     1      48.357   6.332  16.693  0.00  0.00    +0.000 OA
ATOM     19  H   UNL     1      48.235   6.279  13.532  0.00  0.00    +0.000 HD
BRANCH  17  20
ATOM     20  C   UNL     1      49.780   7.446  15.180  0.00  0.00    +0.000 A 
ATOM     21  C   UNL     1      49.554   8.588  14.426  0.00  0.00    +0.000 A 
ATOM     22  S   UNL     1      50.964   9.501  14.125  0.00  0.00    +0.000 S 
ATOM     23  C   UNL     1      51.936   8.375  14.952  0.00  0.00    +0.000 A 
ATOM     24  N   UNL     1      53.281   8.540  15.035  0.00  0.00    +0.000 NA
ATOM     25  C   UNL     1      53.904   7.585  15.647  0.00  0.00    +0.000 A 
ATOM     26  N   UNL     1      53.293   6.490  16.200  0.00  0.00    +0.000 N 
ATOM     27  C   UNL     1      51.931   6.329  16.218  0.00  0.00    +0.000 A 
ATOM     28  O   UNL     1      51.407   5.431  16.866  0.00  0.00    +0.000 OA
ATOM     29  C   UNL     1      51.189   7.339  15.488  0.00  0.00    +0.000 A 
ATOM     30  H   UNL     1      53.829   5.800  16.705  0.00  0.00    +0.000 HD
ENDBRANCH  17  20
ENDBRANCH   1  16
BRANCH   1  31
ATOM     31  C   UNL     1      47.243   3.768  15.327  0.00  0.00    +0.000 C 
BRANCH  31  32
ATOM     32  N   UNL     1      46.776   3.667  16.717  0.00  0.00    +0.000 NA
ATOM     33  H   UNL     1      46.561   2.694  16.927  0.00  0.00    +0.000 HD
ATOM     34  H   UNL     1      45.900   4.182  16.821  0.00  0.00    +0.000 HD
ENDBRANCH  31  32
ENDBRANCH   1  31
TORSDOF 8
ENDMDL
MODEL 8
REMARK VINA RESULT:    -6.876      3.618      8.369
REMARK INTER + INTRA:         -11.006
REMARK INTER:                  -9.750
REMARK INTRA:                  -1.256
REMARK UNBOUND:                -1.115
REMARK  Name = 
REMARK  8 active torsions:
REMARK  status: ('A' for Active; 'I' for Inactive)
REMARK    1  A    between atoms: N_1  and  C_2
REMARK    2  A    between atoms: C_2  and  C_3
REMARK    3  A    between atoms: C_3  and  N_4
REMARK    4  A    between atoms: C_3  and  C_17
REMARK    5  A    between atoms: C_5  and  C_7
REMARK    6  A    between atoms: C_20  and  O_21
REMARK    7  A    between atoms: O_21  and  C_22
REMARK    8  A    between atoms: C_22  and  C_23
REMARK                            x       y       z     vdW  Elec       q    Type
REMARK                         _______ _______ _______ _____ _____    ______ ____
ROOT
ATOM      1  C   UNL     1      47.956   7.379  13.414  0.00  0.00    +0.000 C 
ENDROOT
BRANCH   1   2
ATOM      2  C   UNL     1      48.321   6.661  14.710  0.00  0.00    +0.000 A 
ATOM      3  C   UNL     1      47.645   5.493  15.090  0.00  0.00    +0.000 A 
ATOM      4  C   UNL     1      48.036   4.789  16.232  0.00  0.00    +0.000 A 
ATOM      5  C   UNL     1      49.117   5.230  16.996  0.00  0.00    +0.000 A 
ATOM      6  C   UNL     1      49.757   6.421  16.660  0.00  0.00    +0.000 A 
ATOM      7  C   UNL     1      49.371   7.123  15.519  0.00  0.00    +0.000 A 
BRANCH   5   8
ATOM      8  O   UNL     1      49.479   4.421  18.042  0.00  0.00    +0.000 OA
BRANCH   8   9
ATOM      9  C   UNL     1      49.562   3.026  17.714  0.00  0.00    +0.000 C 
BRANCH   9  10
ATOM     10  C   UNL     1      50.986   2.533  17.746  0.00  0.00    +0.000 A 
ATOM     11  C   UNL     1      52.039   3.375  18.086  0.00  0.00    +0.000 A 
ATOM     12  C   UNL     1      53.333   2.872  18.069  0.00  0.00    +0.000 A 
ATOM     13  C   UNL     1      53.553   1.549  17.703  0.00  0.00    +0.000 A 
ATOM     14  C   UNL     1      52.458   0.780  17.363  0.00  0.00    +0.000 A 
ATOM     15  N   UNL     1      51.188   1.241  17.365  0.00  0.00    +0.000 NA
ENDBRANCH   9  10
ENDBRANCH   8   9
ENDBRANCH   5   8
ENDBRANCH   1   2
BRANCH   1  16
ATOM     16  N   UNL     1      47.287   6.424  12.539  0.00  0.00    +0.000 N 
ATOM     17  C   UNL     1      46.227   6.739  11.736  0.00  0.00    +0.000 C 
ATOM     18  O   UNL     1      45.797   7.882  11.632  0.00  0.00    +0.000 OA
ATOM     19  H   UNL     1      47.533   5.448  12.667  0.00  0.00    +0.000 HD
BRANCH  17  20
ATOM     20  C   UNL     1      45.659   5.628  10.957  0.00  0.00    +0.000 A 
ATOM     21  C   UNL     1      45.787   5.611   9.576  0.00  0.00    +0.000 A 
ATOM     22  S   UNL     1      45.077   4.247   8.838  0.00  0.00    +0.000 S 
ATOM     23  C   UNL     1      44.528   3.654  10.337  0.00  0.00    +0.000 A 
ATOM     24  N   UNL     1      43.796   2.513  10.412  0.00  0.00    +0.000 NA
ATOM     25  C   UNL     1      43.400   2.204  11.604  0.00  0.00    +0.000 A 
ATOM     26  N   UNL     1      43.692   2.929  12.729  0.00  0.00    +0.000 N 
ATOM     27  C   UNL     1      44.502   4.035  12.712  0.00  0.00    +0.000 A 
ATOM     28  O   UNL     1      44.882   4.561  13.751  0.00  0.00    +0.000 OA
ATOM     29  C   UNL     1      44.919   4.463  11.390  0.00  0.00    +0.000 A 
ATOM     30  H   UNL     1      43.392   2.612  13.640  0.00  0.00    +0.000 HD
ENDBRANCH  17  20
ENDBRANCH   1  16
BRANCH   1  31
ATOM     31  C   UNL     1      49.204   7.999  12.719  0.00  0.00    +0.000 C 
BRANCH  31  32
ATOM     32  N   UNL     1      50.066   7.022  12.038  0.00  0.00    +0.000 NA
ATOM     33  H   UNL     1      50.997   7.054  12.452  0.00  0.00    +0.000 HD
ATOM     34  H   UNL     1      50.181   7.292  11.060  0.00  0.00    +0.000 HD
ENDBRANCH  31  32
ENDBRANCH   1  31
TORSDOF 8
ENDMDL
MODEL 9
REMARK VINA RESULT:    -6.462      4.529      8.992
REMARK INTER + INTRA:         -10.410
REMARK INTER:                  -9.508
REMARK INTRA:                  -0.902
REMARK UNBOUND:                -1.115
REMARK  Name = 
REMARK  8 active torsions:
REMARK  status: ('A' for Active; 'I' for Inactive)
REMARK    1  A    between atoms: N_1  and  C_2
REMARK    2  A    between atoms: C_2  and  C_3
REMARK    3  A    between atoms: C_3  and  N_4
REMARK    4  A    between atoms: C_3  and  C_17
REMARK    5  A    between atoms: C_5  and  C_7
REMARK    6  A    between atoms: C_20  and  O_21
REMARK    7  A    between atoms: O_21  and  C_22
REMARK    8  A    between atoms: C_22  and  C_23
REMARK                            x       y       z     vdW  Elec       q    Type
REMARK                         _______ _______ _______ _____ _____    ______ ____
ROOT
ATOM      1  C   UNL     1      47.574   4.319  17.481  0.00  0.00    +0.000 C 
ENDROOT
BRANCH   1   2
ATOM      2  C   UNL     1      49.048   3.934  17.559  0.00  0.00    +0.000 A 
ATOM      3  C   UNL     1      49.442   2.597  17.414  0.00  0.00    +0.000 A 
ATOM      4  C   UNL     1      50.798   2.257  17.400  0.00  0.00    +0.000 A 
ATOM      5  C   UNL     1      51.775   3.247  17.511  0.00  0.00    +0.000 A 
ATOM      6  C   UNL     1      51.392   4.571  17.714  0.00  0.00    +0.000 A 
ATOM      7  C   UNL     1      50.040   4.913  17.725  0.00  0.00    +0.000 A 
BRANCH   5   8
ATOM      8  O   UNL     1      53.072   2.822  17.394  0.00  0.00    +0.000 OA
BRANCH   8   9
ATOM      9  C   UNL     1      53.550   2.054  18.508  0.00  0.00    +0.000 C 
BRANCH   9  10
ATOM     10  C   UNL     1      54.096   0.719  18.067  0.00  0.00    +0.000 A 
ATOM     11  C   UNL     1      54.597   0.527  16.784  0.00  0.00    +0.000 A 
ATOM     12  C   UNL     1      55.059  -0.732  16.426  0.00  0.00    +0.000 A 
ATOM     13  C   UNL     1      55.003  -1.774  17.345  0.00  0.00    +0.000 A 
ATOM     14  C   UNL     1      54.477  -1.509  18.594  0.00  0.00    +0.000 A 
ATOM     15  N   UNL     1      54.015  -0.296  18.972  0.00  0.00    +0.000 NA
ENDBRANCH   9  10
ENDBRANCH   8   9
ENDBRANCH   5   8
ENDBRANCH   1   2
BRANCH   1  16
ATOM     16  N   UNL     1      47.363   5.057  16.241  0.00  0.00    +0.000 N 
ATOM     17  C   UNL     1      47.256   4.468  15.012  0.00  0.00    +0.000 C 
ATOM     18  O   UNL     1      47.258   3.252  14.863  0.00  0.00    +0.000 OA
ATOM     19  H   UNL     1      47.462   6.065  16.295  0.00  0.00    +0.000 HD
BRANCH  17  20
ATOM     20  C   UNL     1      47.088   5.384  13.874  0.00  0.00    +0.000 A 
ATOM     21  C   UNL     1      48.112   6.251  13.523  0.00  0.00    +0.000 A 
ATOM     22  S   UNL     1      47.748   7.233  12.177  0.00  0.00    +0.000 S 
ATOM     23  C   UNL     1      46.186   6.569  12.045  0.00  0.00    +0.000 A 
ATOM     24  N   UNL     1      45.316   7.009  11.100  0.00  0.00    +0.000 NA
ATOM     25  C   UNL     1      44.148   6.456  11.144  0.00  0.00    +0.000 A 
ATOM     26  N   UNL     1      43.783   5.486  12.040  0.00  0.00    +0.000 N 
ATOM     27  C   UNL     1      44.657   4.949  12.951  0.00  0.00    +0.000 A 
ATOM     28  O   UNL     1      44.352   3.969  13.621  0.00  0.00    +0.000 OA
ATOM     29  C   UNL     1      45.962   5.581  12.988  0.00  0.00    +0.000 A 
ATOM     30  H   UNL     1      42.869   5.059  11.996  0.00  0.00    +0.000 HD
ENDBRANCH  17  20
ENDBRANCH   1  16
BRANCH   1  31
ATOM     31  C   UNL     1      47.122   5.153  18.715  0.00  0.00    +0.000 C 
BRANCH  31  32
ATOM     32  N   UNL     1      47.069   6.603  18.481  0.00  0.00    +0.000 NA
ATOM     33  H   UNL     1      48.011   6.945  18.299  0.00  0.00    +0.000 HD
ATOM     34  H   UNL     1      46.754   7.075  19.330  0.00  0.00    +0.000 HD
ENDBRANCH  31  32
ENDBRANCH   1  31
TORSDOF 8
ENDMDL
