MODEL 1
REMARK VINA RESULT:    -7.275      0.000      0.000
REMARK INTER + INTRA:          -9.626
REMARK INTER:                  -9.189
REMARK INTRA:                  -0.437
REMARK UNBOUND:                -0.437
REMARK  Name = 
REMARK  5 active torsions:
REMARK  status: ('A' for Active; 'I' for Inactive)
REMARK    1  A    between atoms: N_1  and  C_2
REMARK    2  A    between atoms: C_2  and  C_3
REMARK    3  A    between atoms: C_6  and  O_7
REMARK    4  A    between atoms: O_7  and  C_8
REMARK    5  A    between atoms: C_8  and  C_9
REMARK                            x       y       z     vdW  Elec       q    Type
REMARK                         _______ _______ _______ _____ _____    ______ ____
ROOT
ATOM      1  C   UNL     1      46.576   2.269   7.576  0.00  0.00    +0.000 A 
ATOM      2  C   UNL     1      45.769   1.474   8.406  0.00  0.00    +0.000 A 
ATOM      3  C   UNL     1      44.809   2.061   9.232  0.00  0.00    +0.000 A 
ATOM      4  C   UNL     1      44.654   3.448   9.254  0.00  0.00    +0.000 A 
ATOM      5  C   UNL     1      45.408   4.238   8.387  0.00  0.00    +0.000 A 
ATOM      6  C   UNL     1      46.372   3.655   7.563  0.00  0.00    +0.000 A 
ENDROOT
BRANCH   1   7
ATOM      7  C   UNL     1      47.668   1.657   6.734  0.00  0.00    +0.000 C 
BRANCH   7   8
ATOM      8  N   UNL     1      48.642   2.652   6.308  0.00  0.00    +0.000 NA
ATOM      9  H   UNL     1      49.335   2.769   7.045  0.00  0.00    +0.000 HD
ATOM     10  H   UNL     1      48.170   3.550   6.212  0.00  0.00    +0.000 HD
ENDBRANCH   7   8
ENDBRANCH   1   7
BRANCH   4  11
ATOM     11  O   UNL     1      43.751   3.931  10.163  0.00  0.00    +0.000 OA
BRANCH  11  12
ATOM     12  C   UNL     1      43.857   3.361  11.473  0.00  0.00    +0.000 C 
BRANCH  12  13
ATOM     13  C   UNL     1      44.986   4.003  12.242  0.00  0.00    +0.000 A 
ATOM     14  C   UNL     1      45.083   5.392  12.311  0.00  0.00    +0.000 A 
ATOM     15  C   UNL     1      46.087   5.959  13.088  0.00  0.00    +0.000 A 
ATOM     16  C   UNL     1      46.966   5.129  13.772  0.00  0.00    +0.000 A 
ATOM     17  C   UNL     1      46.801   3.760  13.655  0.00  0.00    +0.000 A 
ATOM     18  N   UNL     1      45.830   3.180  12.917  0.00  0.00    +0.000 NA
ENDBRANCH  12  13
ENDBRANCH  11  12
ENDBRANCH   4  11
TORSDOF 5
ENDMDL
MODEL 2
REMARK VINA RESULT:    -6.874      1.561      5.728
REMARK INTER + INTRA:          -9.120
REMARK INTER:                  -8.727
REMARK INTRA:                  -0.393
REMARK UNBOUND:                -0.437
REMARK  Name = 
REMARK  5 active torsions:
REMARK  status: ('A' for Active; 'I' for Inactive)
REMARK    1  A    between atoms: N_1  and  C_2
REMARK    2  A    between atoms: C_2  and  C_3
REMARK    3  A    between atoms: C_6  and  O_7
REMARK    4  A    between atoms: O_7  and  C_8
REMARK    5  A    between atoms: C_8  and  C_9
REMARK                            x       y       z     vdW  Elec       q    Type
REMARK                         _______ _______ _______ _____ _____    ______ ____
ROOT
ATOM      1  C   UNL     1      46.591   5.488  12.847  0.00  0.00    +0.000 A 
ATOM      2  C   UNL     1      46.314   6.183  11.659  0.00  0.00    +0.000 A 
ATOM      3  C   UNL     1      45.493   5.618  10.682  0.00  0.00    +0.000 A 
ATOM      4  C   UNL     1      44.952   4.346  10.870  0.00  0.00    +0.000 A 
ATOM      5  C   UNL     1      45.171   3.675  12.073  0.00  0.00    +0.000 A 
ATOM      6  C   UNL     1      45.995   4.236  13.050  0.00  0.00    +0.000 A 
ENDROOT
BRANCH   1   7
ATOM      7  C   UNL     1      47.536   6.052  13.878  0.00  0.00    +0.000 C 
BRANCH   7   8
ATOM      8  N   UNL     1      47.578   5.230  15.078  0.00  0.00    +0.000 NA
ATOM      9  H   UNL     1      46.801   5.491  15.682  0.00  0.00    +0.000 HD
ATOM     10  H   UNL     1      48.429   5.450  15.594  0.00  0.00    +0.000 HD
ENDBRANCH   7   8
ENDBRANCH   1   7
BRANCH   4  11
ATOM     11  O   UNL     1      44.235   3.842   9.816  0.00  0.00    +0.000 OA
BRANCH  11  12
ATOM     12  C   UNL     1      44.486   2.462   9.528  0.00  0.00    +0.000 C 
BRANCH  12  13
ATOM     13  C   UNL     1      45.484   2.327   8.403  0.00  0.00    +0.000 A 
ATOM     14  C   UNL     1      45.721   3.402   7.548  0.00  0.00    +0.000 A 
ATOM     15  C   UNL     1      46.700   3.278   6.566  0.00  0.00    +0.000 A 
ATOM     16  C   UNL     1      47.411   2.090   6.464  0.00  0.00    +0.000 A 
ATOM     17  C   UNL     1      47.119   1.071   7.355  0.00  0.00    +0.000 A 
ATOM     18  N   UNL     1      46.182   1.165   8.323  0.00  0.00    +0.000 NA
ENDBRANCH  12  13
ENDBRANCH  11  12
ENDBRANCH   4  11
TORSDOF 5
ENDMDL
MODEL 3
REMARK VINA RESULT:    -6.565      1.427      5.712
REMARK INTER + INTRA:          -8.729
REMARK INTER:                  -8.347
REMARK INTRA:                  -0.382
REMARK UNBOUND:                -0.437
REMARK  Name = 
REMARK  5 active torsions:
REMARK  status: ('A' for Active; 'I' for Inactive)
REMARK    1  A    between atoms: N_1  and  C_2
REMARK    2  A    between atoms: C_2  and  C_3
REMARK    3  A    between atoms: C_6  and  O_7
REMARK    4  A    between atoms: O_7  and  C_8
REMARK    5  A    between atoms: C_8  and  C_9
REMARK                            x       y       z     vdW  Elec       q    Type
REMARK                         _______ _______ _______ _____ _____    ______ ____
ROOT
ATOM      1  C   UNL     1      46.221   4.708  13.064  0.00  0.00    +0.000 A 
ATOM      2  C   UNL     1      45.629   3.480  12.727  0.00  0.00    +0.000 A 
ATOM      3  C   UNL     1      45.009   3.310  11.488  0.00  0.00    +0.000 A 
ATOM      4  C   UNL     1      44.956   4.365  10.577  0.00  0.00    +0.000 A 
ATOM      5  C   UNL     1      45.596   5.567  10.880  0.00  0.00    +0.000 A 
ATOM      6  C   UNL     1      46.213   5.742  12.119  0.00  0.00    +0.000 A 
ENDROOT
BRANCH   1   7
ATOM      7  C   UNL     1      46.828   4.932  14.426  0.00  0.00    +0.000 C 
BRANCH   7   8
ATOM      8  N   UNL     1      47.366   3.701  14.986  0.00  0.00    +0.000 NA
ATOM      9  H   UNL     1      48.332   3.596  14.682  0.00  0.00    +0.000 HD
ATOM     10  H   UNL     1      46.854   2.912  14.592  0.00  0.00    +0.000 HD
ENDBRANCH   7   8
ENDBRANCH   1   7
BRANCH   4  11
ATOM     11  O   UNL     1      44.247   4.127   9.430  0.00  0.00    +0.000 OA
BRANCH  11  12
ATOM     12  C   UNL     1      44.352   2.789   8.930  0.00  0.00    +0.000 C 
BRANCH  12  13
ATOM     13  C   UNL     1      45.559   2.649   8.034  0.00  0.00    +0.000 A 
ATOM     14  C   UNL     1      46.329   1.487   8.076  0.00  0.00    +0.000 A 
ATOM     15  C   UNL     1      47.390   1.350   7.187  0.00  0.00    +0.000 A 
ATOM     16  C   UNL     1      47.655   2.371   6.285  0.00  0.00    +0.000 A 
ATOM     17  C   UNL     1      46.841   3.491   6.303  0.00  0.00    +0.000 A 
ATOM     18  N   UNL     1      45.798   3.649   7.147  0.00  0.00    +0.000 NA
ENDBRANCH  12  13
ENDBRANCH  11  12
ENDBRANCH   4  11
TORSDOF 5
ENDMDL
MODEL 4
REMARK VINA RESULT:    -6.423      2.182      5.865
REMARK INTER + INTRA:          -8.550
REMARK INTER:                  -8.375
REMARK INTRA:                  -0.175
REMARK UNBOUND:                -0.437
REMARK  Name = 
REMARK  5 active torsions:
REMARK  status: ('A' for Active; 'I' for Inactive)
REMARK    1  A    between atoms: N_1  and  C_2
REMARK    2  A    between atoms: C_2  and  C_3
REMARK    3  A    between atoms: C_6  and  O_7
REMARK    4  A    between atoms: O_7  and  C_8
REMARK    5  A    between atoms: C_8  and  C_9
REMARK                            x       y       z     vdW  Elec       q    Type
REMARK                         _______ _______ _______ _____ _____    ______ ____
ROOT
ATOM      1  C   UNL     1      45.525   6.854  12.196  0.00  0.00    +0.000 A 
ATOM      2  C   UNL     1      44.350   6.131  12.457  0.00  0.00    +0.000 A 
ATOM      3  C   UNL     1      43.913   5.147  11.569  0.00  0.00    +0.000 A 
ATOM      4  C   UNL     1      44.631   4.883  10.402  0.00  0.00    +0.000 A 
ATOM      5  C   UNL     1      45.832   5.553  10.168  0.00  0.00    +0.000 A 
ATOM      6  C   UNL     1      46.270   6.541  11.051  0.00  0.00    +0.000 A 
ENDROOT
BRANCH   1   7
ATOM      7  C   UNL     1      45.970   7.971  13.105  0.00  0.00    +0.000 C 
BRANCH   7   8
ATOM      8  N   UNL     1      45.123   9.147  12.971  0.00  0.00    +0.000 NA
ATOM      9  H   UNL     1      45.596   9.827  12.379  0.00  0.00    +0.000 HD
ATOM     10  H   UNL     1      45.023   9.584  13.886  0.00  0.00    +0.000 HD
ENDBRANCH   7   8
ENDBRANCH   1   7
BRANCH   4  11
ATOM     11  O   UNL     1      44.072   3.965   9.554  0.00  0.00    +0.000 OA
BRANCH  11  12
ATOM     12  C   UNL     1      44.640   2.653   9.634  0.00  0.00    +0.000 C 
BRANCH  12  13
ATOM     13  C   UNL     1      45.527   2.383   8.443  0.00  0.00    +0.000 A 
ATOM     14  C   UNL     1      45.713   3.369   7.474  0.00  0.00    +0.000 A 
ATOM     15  C   UNL     1      46.595   3.124   6.426  0.00  0.00    +0.000 A 
ATOM     16  C   UNL     1      47.263   1.908   6.371  0.00  0.00    +0.000 A 
ATOM     17  C   UNL     1      47.026   0.984   7.374  0.00  0.00    +0.000 A 
ATOM     18  N   UNL     1      46.184   1.195   8.409  0.00  0.00    +0.000 NA
ENDBRANCH  12  13
ENDBRANCH  11  12
ENDBRANCH   4  11
TORSDOF 5
ENDMDL
MODEL 5
REMARK VINA RESULT:    -5.372      3.942      8.006
REMARK INTER + INTRA:          -7.222
REMARK INTER:                  -6.913
REMARK INTRA:                  -0.310
REMARK UNBOUND:                -0.437
REMARK  Name = 
REMARK  5 active torsions:
REMARK  status: ('A' for Active; 'I' for Inactive)
REMARK    1  A    between atoms: N_1  and  C_2
REMARK    2  A    between atoms: C_2  and  C_3
REMARK    3  A    between atoms: C_6  and  O_7
REMARK    4  A    between atoms: O_7  and  C_8
REMARK    5  A    between atoms: C_8  and  C_9
REMARK                            x       y       z     vdW  Elec       q    Type
REMARK                         _______ _______ _______ _____ _____    ______ ____
ROOT
ATOM      1  C   UNL     1      48.570   4.383  18.425  0.00  0.00    +0.000 A 
ATOM      2  C   UNL     1      48.370   5.411  17.490  0.00  0.00    +0.000 A 
ATOM      3  C   UNL     1      47.897   5.120  16.209  0.00  0.00    +0.000 A 
ATOM      4  C   UNL     1      47.635   3.800  15.840  0.00  0.00    +0.000 A 
ATOM      5  C   UNL     1      47.772   2.782  16.783  0.00  0.00    +0.000 A 
ATOM      6  C   UNL     1      48.249   3.069  18.063  0.00  0.00    +0.000 A 
ENDROOT
BRANCH   1   7
ATOM      7  C   UNL     1      49.151   4.672  19.787  0.00  0.00    +0.000 C 
BRANCH   7   8
ATOM      8  N   UNL     1      48.489   3.903  20.830  0.00  0.00    +0.000 NA
ATOM      9  H   UNL     1      49.140   3.207  21.189  0.00  0.00    +0.000 HD
ATOM     10  H   UNL     1      47.716   3.385  20.413  0.00  0.00    +0.000 HD
ENDBRANCH   7   8
ENDBRANCH   1   7
BRANCH   4  11
ATOM     11  O   UNL     1      47.263   3.610  14.535  0.00  0.00    +0.000 OA
BRANCH  11  12
ATOM     12  C   UNL     1      46.835   4.797  13.857  0.00  0.00    +0.000 C 
BRANCH  12  13
ATOM     13  C   UNL     1      45.499   4.576  13.189  0.00  0.00    +0.000 A 
ATOM     14  C   UNL     1      44.671   5.662  12.908  0.00  0.00    +0.000 A 
ATOM     15  C   UNL     1      43.480   5.441  12.224  0.00  0.00    +0.000 A 
ATOM     16  C   UNL     1      43.147   4.148  11.843  0.00  0.00    +0.000 A 
ATOM     17  C   UNL     1      44.024   3.124  12.156  0.00  0.00    +0.000 A 
ATOM     18  N   UNL     1      45.192   3.308  12.810  0.00  0.00    +0.000 NA
ENDBRANCH  12  13
ENDBRANCH  11  12
ENDBRANCH   4  11
TORSDOF 5
ENDMDL
MODEL 6
REMARK VINA RESULT:    -5.225      3.839      5.350
REMARK INTER + INTRA:          -7.037
REMARK INTER:                  -6.743
REMARK INTRA:                  -0.293
REMARK UNBOUND:                -0.437
REMARK  Name = 
REMARK  5 active torsions:
REMARK  status: ('A' for Active; 'I' for Inactive)
REMARK    1  A    between atoms: N_1  and  C_2
REMARK    2  A    between atoms: C_2  and  C_3
REMARK    3  A    between atoms: C_6  and  O_7
REMARK    4  A    between atoms: O_7  and  C_8
REMARK    5  A    between atoms: C_8  and  C_9
REMARK                            x       y       z     vdW  Elec       q    Type
REMARK                         _______ _______ _______ _____ _____    ______ ____
ROOT
ATOM      1  C   UNL     1      44.627   5.006  11.598  0.00  0.00    +0.000 A 
ATOM      2  C   UNL     1      45.075   4.024  12.496  0.00  0.00    +0.000 A 
ATOM      3  C   UNL     1      46.235   4.226  13.245  0.00  0.00    +0.000 A 
ATOM      4  C   UNL     1      46.972   5.401  13.095  0.00  0.00    +0.000 A 
ATOM      5  C   UNL     1      46.500   6.407  12.252  0.00  0.00    +0.000 A 
ATOM      6  C   UNL     1      45.343   6.206  11.498  0.00  0.00    +0.000 A 
ENDROOT
BRANCH   1   7
ATOM      7  C   UNL     1      43.418   4.772  10.727  0.00  0.00    +0.000 C 
BRANCH   7   8
ATOM      8  N   UNL     1      43.772   4.719   9.316  0.00  0.00    +0.000 NA
ATOM      9  H   UNL     1      44.306   3.870   9.143  0.00  0.00    +0.000 HD
ATOM     10  H   UNL     1      44.395   5.498   9.107  0.00  0.00    +0.000 HD
ENDBRANCH   7   8
ENDBRANCH   1   7
BRANCH   4  11
ATOM     11  O   UNL     1      48.142   5.465  13.805  0.00  0.00    +0.000 OA
BRANCH  11  12
ATOM     12  C   UNL     1      48.026   6.079  15.094  0.00  0.00    +0.000 C 
BRANCH  12  13
ATOM     13  C   UNL     1      48.269   5.069  16.189  0.00  0.00    +0.000 A 
ATOM     14  C   UNL     1      47.236   4.228  16.604  0.00  0.00    +0.000 A 
ATOM     15  C   UNL     1      47.505   3.255  17.561  0.00  0.00    +0.000 A 
ATOM     16  C   UNL     1      48.790   3.147  18.077  0.00  0.00    +0.000 A 
ATOM     17  C   UNL     1      49.760   4.017  17.609  0.00  0.00    +0.000 A 
ATOM     18  N   UNL     1      49.532   4.965  16.675  0.00  0.00    +0.000 NA
ENDBRANCH  12  13
ENDBRANCH  11  12
ENDBRANCH   4  11
TORSDOF 5
ENDMDL
MODEL 7
REMARK VINA RESULT:    -5.063      2.916      6.131
REMARK INTER + INTRA:          -6.832
REMARK INTER:                  -6.518
REMARK INTRA:                  -0.314
REMARK UNBOUND:                -0.437
REMARK  Name = 
REMARK  5 active torsions:
REMARK  status: ('A' for Active; 'I' for Inactive)
REMARK    1  A    between atoms: N_1  and  C_2
REMARK    2  A    between atoms: C_2  and  C_3
REMARK    3  A    between atoms: C_6  and  O_7
REMARK    4  A    between atoms: O_7  and  C_8
REMARK    5  A    between atoms: C_8  and  C_9
REMARK                            x       y       z     vdW  Elec       q    Type
REMARK                         _______ _______ _______ _____ _____    ______ ____
ROOT
ATOM      1  C   UNL     1      44.700   8.430  11.563  0.00  0.00    +0.000 A 
ATOM      2  C   UNL     1      45.867   7.671  11.740  0.00  0.00    +0.000 A 
ATOM      3  C   UNL     1      45.839   6.284  11.584  0.00  0.00    +0.000 A 
ATOM      4  C   UNL     1      44.645   5.636  11.269  0.00  0.00    +0.000 A 
ATOM      5  C   UNL     1      43.496   6.390  11.030  0.00  0.00    +0.000 A 
ATOM      6  C   UNL     1      43.519   7.776  11.189  0.00  0.00    +0.000 A 
ENDROOT
BRANCH   1   7
ATOM      7  C   UNL     1      44.697   9.920  11.801  0.00  0.00    +0.000 C 
BRANCH   7   8
ATOM      8  N   UNL     1      43.989  10.633  10.748  0.00  0.00    +0.000 NA
ATOM      9  H   UNL     1      44.490  10.505   9.871  0.00  0.00    +0.000 HD
ATOM     10  H   UNL     1      44.019  11.631  10.953  0.00  0.00    +0.000 HD
ENDBRANCH   7   8
ENDBRANCH   1   7
BRANCH   4  11
ATOM     11  O   UNL     1      44.702   4.268  11.228  0.00  0.00    +0.000 OA
BRANCH  11  12
ATOM     12  C   UNL     1      44.069   3.677  10.087  0.00  0.00    +0.000 C 
BRANCH  12  13
ATOM     13  C   UNL     1      45.097   3.258   9.065  0.00  0.00    +0.000 A 
ATOM     14  C   UNL     1      45.473   1.919   8.962  0.00  0.00    +0.000 A 
ATOM     15  C   UNL     1      46.366   1.546   7.962  0.00  0.00    +0.000 A 
ATOM     16  C   UNL     1      46.858   2.514   7.096  0.00  0.00    +0.000 A 
ATOM     17  C   UNL     1      46.432   3.820   7.262  0.00  0.00    +0.000 A 
ATOM     18  N   UNL     1      45.560   4.212   8.216  0.00  0.00    +0.000 NA
ENDBRANCH  12  13
ENDBRANCH  11  12
ENDBRANCH   4  11
TORSDOF 5
ENDMDL
MODEL 8
REMARK VINA RESULT:    -4.878      3.428      5.211
REMARK INTER + INTRA:          -6.598
REMARK INTER:                  -6.279
REMARK INTRA:                  -0.319
REMARK UNBOUND:                -0.437
REMARK  Name = 
REMARK  5 active torsions:
REMARK  status: ('A' for Active; 'I' for Inactive)
REMARK    1  A    between atoms: N_1  and  C_2
REMARK    2  A    between atoms: C_2  and  C_3
REMARK    3  A    between atoms: C_6  and  O_7
REMARK    4  A    between atoms: O_7  and  C_8
REMARK    5  A    between atoms: C_8  and  C_9
REMARK                            x       y       z     vdW  Elec       q    Type
REMARK                         _______ _______ _______ _____ _____    ______ ____
ROOT
ATOM      1  C   UNL     1      44.829   3.918  11.256  0.00  0.00    +0.000 A 
ATOM      2  C   UNL     1      45.125   5.105  10.567  0.00  0.00    +0.000 A 
ATOM      3  C   UNL     1      45.920   6.088  11.159  0.00  0.00    +0.000 A 
ATOM      4  C   UNL     1      46.416   5.907  12.450  0.00  0.00    +0.000 A 
ATOM      5  C   UNL     1      46.178   4.704  13.116  0.00  0.00    +0.000 A 
ATOM      6  C   UNL     1      45.380   3.722  12.529  0.00  0.00    +0.000 A 
ENDROOT
BRANCH   1   7
ATOM      7  C   UNL     1      43.910   2.881  10.661  0.00  0.00    +0.000 C 
BRANCH   7   8
ATOM      8  N   UNL     1      43.079   2.250  11.676  0.00  0.00    +0.000 NA
ATOM      9  H   UNL     1      42.887   2.928  12.411  0.00  0.00    +0.000 HD
ATOM     10  H   UNL     1      43.611   1.498  12.112  0.00  0.00    +0.000 HD
ENDBRANCH   7   8
ENDBRANCH   1   7
BRANCH   4  11
ATOM     11  O   UNL     1      47.108   6.965  12.976  0.00  0.00    +0.000 OA
BRANCH  11  12
ATOM     12  C   UNL     1      48.449   6.662  13.377  0.00  0.00    +0.000 C 
BRANCH  12  13
ATOM     13  C   UNL     1      48.644   6.953  14.846  0.00  0.00    +0.000 A 
ATOM     14  C   UNL     1      48.577   8.266  15.312  0.00  0.00    +0.000 A 
ATOM     15  C   UNL     1      48.684   8.500  16.679  0.00  0.00    +0.000 A 
ATOM     16  C   UNL     1      48.855   7.424  17.540  0.00  0.00    +0.000 A 
ATOM     17  C   UNL     1      48.907   6.152  16.999  0.00  0.00    +0.000 A 
ATOM     18  N   UNL     1      48.797   5.891  15.678  0.00  0.00    +0.000 NA
ENDBRANCH  12  13
ENDBRANCH  11  12
ENDBRANCH   4  11
TORSDOF 5
ENDMDL
MODEL 9
REMARK VINA RESULT:    -4.615      3.435      6.441
REMARK INTER + INTRA:          -6.266
REMARK INTER:                  -5.900
REMARK INTRA:                  -0.366
REMARK UNBOUND:                -0.437
REMARK  Name = 
REMARK  5 active torsions:
REMARK  status: ('A' for Active; 'I' for Inactive)
REMARK    1  A    between atoms: N_1  and  C_2
REMARK    2  A    between atoms: C_2  and  C_3
REMARK    3  A    between atoms: C_6  and  O_7
REMARK    4  A    between atoms: O_7  and  C_8
REMARK    5  A    between atoms: C_8  and  C_9
REMARK                            x       y       z     vdW  Elec       q    Type
REMARK                         _______ _______ _______ _____ _____    ______ ____
ROOT
ATOM      1  C   UNL     1      45.220   9.914  11.700  0.00  0.00    +0.000 A 
ATOM      2  C   UNL     1      44.021   9.645  11.020  0.00  0.00    +0.000 A 
ATOM      3  C   UNL     1      43.547   8.337  10.911  0.00  0.00    +0.000 A 
ATOM      4  C   UNL     1      44.270   7.279  11.463  0.00  0.00    +0.000 A 
ATOM      5  C   UNL     1      45.429   7.545  12.193  0.00  0.00    +0.000 A 
ATOM      6  C   UNL     1      45.908   8.851  12.299  0.00  0.00    +0.000 A 
ENDROOT
BRANCH   1   7
ATOM      7  C   UNL     1      45.784  11.311  11.761  0.00  0.00    +0.000 C 
BRANCH   7   8
ATOM      8  N   UNL     1      46.992  11.370  12.571  0.00  0.00    +0.000 NA
ATOM      9  H   UNL     1      47.591  10.584  12.326  0.00  0.00    +0.000 HD
ATOM     10  H   UNL     1      46.735  11.241  13.550  0.00  0.00    +0.000 HD
ENDBRANCH   7   8
ENDBRANCH   1   7
BRANCH   4  11
ATOM     11  O   UNL     1      43.770   6.027  11.224  0.00  0.00    +0.000 OA
BRANCH  11  12
ATOM     12  C   UNL     1      44.693   4.958  11.463  0.00  0.00    +0.000 C 
BRANCH  12  13
ATOM     13  C   UNL     1      44.956   4.188  10.192  0.00  0.00    +0.000 A 
ATOM     14  C   UNL     1      45.588   4.811   9.117  0.00  0.00    +0.000 A 
ATOM     15  C   UNL     1      45.888   4.060   7.985  0.00  0.00    +0.000 A 
ATOM     16  C   UNL     1      45.550   2.713   7.955  0.00  0.00    +0.000 A 
ATOM     17  C   UNL     1      44.928   2.168   9.065  0.00  0.00    +0.000 A 
ATOM     18  N   UNL     1      44.632   2.869  10.181  0.00  0.00    +0.000 NA
ENDBRANCH  12  13
ENDBRANCH  11  12
ENDBRANCH   4  11
TORSDOF 5
ENDMDL
