MODEL 1
REMARK VINA RESULT:    -8.939      0.000      0.000
REMARK INTER + INTRA:         -12.343
REMARK INTER:                 -11.551
REMARK INTRA:                  -0.791
REMARK UNBOUND:                -0.791
REMARK  Name = 
REMARK  5 active torsions:
REMARK  status: ('A' for Active; 'I' for Inactive)
REMARK    1  A    between atoms: C_2  and  C_4
REMARK    2  A    between atoms: C_7  and  O_8
REMARK    3  A    between atoms: O_8  and  C_9
REMARK    4  A    between atoms: C_9  and  C_10
REMARK    5  A    between atoms: C_12  and  C_13
REMARK                            x       y       z     vdW  Elec       q    Type
REMARK                         _______ _______ _______ _____ _____    ______ ____
ROOT
ATOM      1  C   UNL     1      43.737   3.203  11.621  0.00  0.00    +0.000 C 
ENDROOT
BRANCH   1   2
ATOM      2  C   UNL     1      44.937   3.922  12.201  0.00  0.00    +0.000 A 
ATOM      3  C   UNL     1      45.128   5.293  12.007  0.00  0.00    +0.000 A 
ATOM      4  C   UNL     1      46.207   5.954  12.616  0.00  0.00    +0.000 A 
ATOM      5  C   UNL     1      47.060   5.171  13.404  0.00  0.00    +0.000 A 
ATOM      6  C   UNL     1      46.806   3.818  13.549  0.00  0.00    +0.000 A 
ATOM      7  N   UNL     1      45.765   3.182  12.979  0.00  0.00    +0.000 NA
BRANCH   4   8
ATOM      8  C   UNL     1      46.420   7.413  12.463  0.00  0.00    +0.000 A 
ATOM      9  C   UNL     1      47.711   7.957  12.327  0.00  0.00    +0.000 A 
ATOM     10  C   UNL     1      47.912   9.328  12.141  0.00  0.00    +0.000 A 
ATOM     11  C   UNL     1      46.825  10.191  12.079  0.00  0.00    +0.000 A 
ATOM     12  C   UNL     1      45.538   9.686  12.220  0.00  0.00    +0.000 A 
ATOM     13  C   UNL     1      45.340   8.316  12.418  0.00  0.00    +0.000 A 
ENDBRANCH   4   8
ENDBRANCH   1   2
BRANCH   1  14
ATOM     14  O   UNL     1      43.538   3.539  10.246  0.00  0.00    +0.000 OA
BRANCH  14  18
ATOM     15  C   UNL     1      46.461   2.514   7.452  0.00  0.00    +0.000 A 
ATOM     16  C   UNL     1      45.980   1.515   8.307  0.00  0.00    +0.000 A 
ATOM     17  C   UNL     1      44.994   1.816   9.255  0.00  0.00    +0.000 A 
ATOM     18  C   UNL     1      44.487   3.113   9.358  0.00  0.00    +0.000 A 
ATOM     19  C   UNL     1      44.972   4.106   8.504  0.00  0.00    +0.000 A 
ATOM     20  C   UNL     1      45.959   3.814   7.559  0.00  0.00    +0.000 A 
BRANCH  15  22
ATOM     21  N   UNL     1      47.532   3.017   5.321  0.00  0.00    +0.000 N 
ATOM     22  C   UNL     1      47.523   2.246   6.449  0.00  0.00    +0.000 C 
ATOM     23  O   UNL     1      48.383   1.392   6.634  0.00  0.00    +0.000 OA
ATOM     24  H   UNL     1      48.323   2.892   4.703  0.00  0.00    +0.000 HD
ATOM     25  H   UNL     1      47.019   3.885   5.254  0.00  0.00    +0.000 HD
ENDBRANCH  15  22
ENDBRANCH  14  18
ENDBRANCH   1  14
TORSDOF 5
ENDMDL
MODEL 2
REMARK VINA RESULT:    -8.482      0.927      1.725
REMARK INTER + INTRA:         -11.752
REMARK INTER:                 -11.118
REMARK INTRA:                  -0.634
REMARK UNBOUND:                -0.791
REMARK  Name = 
REMARK  5 active torsions:
REMARK  status: ('A' for Active; 'I' for Inactive)
REMARK    1  A    between atoms: C_2  and  C_4
REMARK    2  A    between atoms: C_7  and  O_8
REMARK    3  A    between atoms: O_8  and  C_9
REMARK    4  A    between atoms: C_9  and  C_10
REMARK    5  A    between atoms: C_12  and  C_13
REMARK                            x       y       z     vdW  Elec       q    Type
REMARK                         _______ _______ _______ _____ _____    ______ ____
ROOT
ATOM      1  C   UNL     1      43.541   4.061  11.231  0.00  0.00    +0.000 C 
ENDROOT
BRANCH   1   2
ATOM      2  C   UNL     1      44.824   4.483  11.916  0.00  0.00    +0.000 A 
ATOM      3  C   UNL     1      45.413   5.723  11.657  0.00  0.00    +0.000 A 
ATOM      4  C   UNL     1      46.562   6.125  12.358  0.00  0.00    +0.000 A 
ATOM      5  C   UNL     1      47.069   5.224  13.304  0.00  0.00    +0.000 A 
ATOM      6  C   UNL     1      46.430   4.013  13.504  0.00  0.00    +0.000 A 
ATOM      7  N   UNL     1      45.320   3.629  12.844  0.00  0.00    +0.000 NA
BRANCH   4   8
ATOM      8  C   UNL     1      47.191   7.449  12.137  0.00  0.00    +0.000 A 
ATOM      9  C   UNL     1      46.458   8.643  12.274  0.00  0.00    +0.000 A 
ATOM     10  C   UNL     1      47.060   9.894  12.107  0.00  0.00    +0.000 A 
ATOM     11  C   UNL     1      48.413   9.984  11.805  0.00  0.00    +0.000 A 
ATOM     12  C   UNL     1      49.161   8.823  11.653  0.00  0.00    +0.000 A 
ATOM     13  C   UNL     1      48.554   7.572  11.809  0.00  0.00    +0.000 A 
ENDBRANCH   4   8
ENDBRANCH   1   2
BRANCH   1  14
ATOM     14  O   UNL     1      43.724   2.874  10.457  0.00  0.00    +0.000 OA
BRANCH  14  18
ATOM     15  C   UNL     1      46.404   2.826   7.260  0.00  0.00    +0.000 A 
ATOM     16  C   UNL     1      45.713   4.013   7.529  0.00  0.00    +0.000 A 
ATOM     17  C   UNL     1      44.808   4.074   8.597  0.00  0.00    +0.000 A 
ATOM     18  C   UNL     1      44.586   2.951   9.397  0.00  0.00    +0.000 A 
ATOM     19  C   UNL     1      45.277   1.769   9.123  0.00  0.00    +0.000 A 
ATOM     20  C   UNL     1      46.176   1.700   8.056  0.00  0.00    +0.000 A 
BRANCH  15  22
ATOM     21  N   UNL     1      48.646   2.380   6.415  0.00  0.00    +0.000 N 
ATOM     22  C   UNL     1      47.353   2.709   6.123  0.00  0.00    +0.000 C 
ATOM     23  O   UNL     1      46.989   2.865   4.963  0.00  0.00    +0.000 OA
ATOM     24  H   UNL     1      49.249   2.201   5.623  0.00  0.00    +0.000 HD
ATOM     25  H   UNL     1      48.918   1.992   7.307  0.00  0.00    +0.000 HD
ENDBRANCH  15  22
ENDBRANCH  14  18
ENDBRANCH   1  14
TORSDOF 5
ENDMDL
MODEL 3
REMARK VINA RESULT:    -8.083      2.905      6.598
REMARK INTER + INTRA:         -11.237
REMARK INTER:                 -10.339
REMARK INTRA:                  -0.898
REMARK UNBOUND:                -0.791
REMARK  Name = 
REMARK  5 active torsions:
REMARK  status: ('A' for Active; 'I' for Inactive)
REMARK    1  A    between atoms: C_2  and  C_4
REMARK    2  A    between atoms: C_7  and  O_8
REMARK    3  A    between atoms: O_8  and  C_9
REMARK    4  A    between atoms: C_9  and  C_10
REMARK    5  A    between atoms: C_12  and  C_13
REMARK                            x       y       z     vdW  Elec       q    Type
REMARK                         _______ _______ _______ _____ _____    ______ ____
ROOT
ATOM      1  C   UNL     1      43.486   6.227  11.276  0.00  0.00    +0.000 C 
ENDROOT
BRANCH   1   2
ATOM      2  C   UNL     1      43.697   4.786  10.860  0.00  0.00    +0.000 A 
ATOM      3  C   UNL     1      44.502   4.455   9.767  0.00  0.00    +0.000 A 
ATOM      4  C   UNL     1      44.745   3.110   9.444  0.00  0.00    +0.000 A 
ATOM      5  C   UNL     1      44.139   2.147  10.263  0.00  0.00    +0.000 A 
ATOM      6  C   UNL     1      43.354   2.553  11.328  0.00  0.00    +0.000 A 
ATOM      7  N   UNL     1      43.130   3.842  11.650  0.00  0.00    +0.000 NA
BRANCH   4   8
ATOM      8  C   UNL     1      45.623   2.721   8.315  0.00  0.00    +0.000 A 
ATOM      9  C   UNL     1      45.933   3.624   7.281  0.00  0.00    +0.000 A 
ATOM     10  C   UNL     1      46.794   3.274   6.237  0.00  0.00    +0.000 A 
ATOM     11  C   UNL     1      47.374   2.012   6.204  0.00  0.00    +0.000 A 
ATOM     12  C   UNL     1      47.079   1.094   7.204  0.00  0.00    +0.000 A 
ATOM     13  C   UNL     1      46.208   1.443   8.241  0.00  0.00    +0.000 A 
ENDBRANCH   4   8
ENDBRANCH   1   2
BRANCH   1  14
ATOM     14  O   UNL     1      43.994   6.474  12.589  0.00  0.00    +0.000 OA
BRANCH  14  18
ATOM     15  C   UNL     1      48.116   7.038  12.886  0.00  0.00    +0.000 A 
ATOM     16  C   UNL     1      47.571   5.852  13.389  0.00  0.00    +0.000 A 
ATOM     17  C   UNL     1      46.191   5.619  13.303  0.00  0.00    +0.000 A 
ATOM     18  C   UNL     1      45.351   6.571  12.721  0.00  0.00    +0.000 A 
ATOM     19  C   UNL     1      45.901   7.754  12.223  0.00  0.00    +0.000 A 
ATOM     20  C   UNL     1      47.275   7.994  12.309  0.00  0.00    +0.000 A 
BRANCH  15  22
ATOM     21  N   UNL     1      50.283   7.342  11.814  0.00  0.00    +0.000 N 
ATOM     22  C   UNL     1      49.568   7.337  12.978  0.00  0.00    +0.000 C 
ATOM     23  O   UNL     1      50.104   7.604  14.047  0.00  0.00    +0.000 OA
ATOM     24  H   UNL     1      51.244   7.652  11.884  0.00  0.00    +0.000 HD
ATOM     25  H   UNL     1      49.842   7.390  10.907  0.00  0.00    +0.000 HD
ENDBRANCH  15  22
ENDBRANCH  14  18
ENDBRANCH   1  14
TORSDOF 5
ENDMDL
MODEL 4
REMARK VINA RESULT:    -8.031      1.581      2.488
REMARK INTER + INTRA:         -11.170
REMARK INTER:                 -10.479
REMARK INTRA:                  -0.691
REMARK UNBOUND:                -0.791
REMARK  Name = 
REMARK  5 active torsions:
REMARK  status: ('A' for Active; 'I' for Inactive)
REMARK    1  A    between atoms: C_2  and  C_4
REMARK    2  A    between atoms: C_7  and  O_8
REMARK    3  A    between atoms: O_8  and  C_9
REMARK    4  A    between atoms: C_9  and  C_10
REMARK    5  A    between atoms: C_12  and  C_13
REMARK                            x       y       z     vdW  Elec       q    Type
REMARK                         _______ _______ _______ _____ _____    ______ ____
ROOT
ATOM      1  C   UNL     1      44.091   3.256  11.663  0.00  0.00    +0.000 C 
ENDROOT
BRANCH   1   2
ATOM      2  C   UNL     1      44.470   4.719  11.762  0.00  0.00    +0.000 A 
ATOM      3  C   UNL     1      45.767   5.113  12.104  0.00  0.00    +0.000 A 
ATOM      4  C   UNL     1      46.116   6.473  12.118  0.00  0.00    +0.000 A 
ATOM      5  C   UNL     1      45.108   7.385  11.781  0.00  0.00    +0.000 A 
ATOM      6  C   UNL     1      43.847   6.918  11.453  0.00  0.00    +0.000 A 
ATOM      7  N   UNL     1      43.510   5.614  11.425  0.00  0.00    +0.000 NA
BRANCH   4   8
ATOM      8  C   UNL     1      47.491   6.926  12.439  0.00  0.00    +0.000 A 
ATOM      9  C   UNL     1      48.318   7.514  11.463  0.00  0.00    +0.000 A 
ATOM     10  C   UNL     1      49.599   7.979  11.772  0.00  0.00    +0.000 A 
ATOM     11  C   UNL     1      50.085   7.875  13.070  0.00  0.00    +0.000 A 
ATOM     12  C   UNL     1      49.298   7.290  14.054  0.00  0.00    +0.000 A 
ATOM     13  C   UNL     1      48.021   6.814  13.738  0.00  0.00    +0.000 A 
ENDBRANCH   4   8
ENDBRANCH   1   2
BRANCH   1  14
ATOM     14  O   UNL     1      43.621   2.924  10.354  0.00  0.00    +0.000 OA
BRANCH  14  18
ATOM     15  C   UNL     1      46.450   2.763   7.293  0.00  0.00    +0.000 A 
ATOM     16  C   UNL     1      45.777   3.971   7.512  0.00  0.00    +0.000 A 
ATOM     17  C   UNL     1      44.824   4.069   8.534  0.00  0.00    +0.000 A 
ATOM     18  C   UNL     1      44.535   2.964   9.337  0.00  0.00    +0.000 A 
ATOM     19  C   UNL     1      45.208   1.762   9.113  0.00  0.00    +0.000 A 
ATOM     20  C   UNL     1      46.156   1.655   8.092  0.00  0.00    +0.000 A 
BRANCH  15  22
ATOM     21  N   UNL     1      48.666   2.084   6.540  0.00  0.00    +0.000 N 
ATOM     22  C   UNL     1      47.449   2.607   6.205  0.00  0.00    +0.000 C 
ATOM     23  O   UNL     1      47.188   2.899   5.044  0.00  0.00    +0.000 OA
ATOM     24  H   UNL     1      49.292   1.886   5.770  0.00  0.00    +0.000 HD
ATOM     25  H   UNL     1      48.825   1.595   7.409  0.00  0.00    +0.000 HD
ENDBRANCH  15  22
ENDBRANCH  14  18
ENDBRANCH   1  14
TORSDOF 5
ENDMDL
MODEL 5
REMARK VINA RESULT:    -7.405      3.174      7.555
REMARK INTER + INTRA:         -10.361
REMARK INTER:                  -9.752
REMARK INTRA:                  -0.609
REMARK UNBOUND:                -0.791
REMARK  Name = 
REMARK  5 active torsions:
REMARK  status: ('A' for Active; 'I' for Inactive)
REMARK    1  A    between atoms: C_2  and  C_4
REMARK    2  A    between atoms: C_7  and  O_8
REMARK    3  A    between atoms: O_8  and  C_9
REMARK    4  A    between atoms: C_9  and  C_10
REMARK    5  A    between atoms: C_12  and  C_13
REMARK                            x       y       z     vdW  Elec       q    Type
REMARK                         _______ _______ _______ _____ _____    ______ ____
ROOT
ATOM      1  C   UNL     1      46.005   7.108  12.373  0.00  0.00    +0.000 C 
ENDROOT
BRANCH   1   2
ATOM      2  C   UNL     1      45.200   6.185  11.481  0.00  0.00    +0.000 A 
ATOM      3  C   UNL     1      45.818   5.383  10.518  0.00  0.00    +0.000 A 
ATOM      4  C   UNL     1      45.062   4.479   9.754  0.00  0.00    +0.000 A 
ATOM      5  C   UNL     1      43.685   4.439  10.008  0.00  0.00    +0.000 A 
ATOM      6  C   UNL     1      43.145   5.265  10.979  0.00  0.00    +0.000 A 
ATOM      7  N   UNL     1      43.868   6.123  11.724  0.00  0.00    +0.000 NA
BRANCH   4   8
ATOM      8  C   UNL     1      45.689   3.586   8.750  0.00  0.00    +0.000 A 
ATOM      9  C   UNL     1      45.679   2.187   8.904  0.00  0.00    +0.000 A 
ATOM     10  C   UNL     1      46.233   1.340   7.939  0.00  0.00    +0.000 A 
ATOM     11  C   UNL     1      46.804   1.872   6.789  0.00  0.00    +0.000 A 
ATOM     12  C   UNL     1      46.839   3.249   6.613  0.00  0.00    +0.000 A 
ATOM     13  C   UNL     1      46.296   4.095   7.586  0.00  0.00    +0.000 A 
ENDBRANCH   4   8
ENDBRANCH   1   2
BRANCH   1  14
ATOM     14  O   UNL     1      47.315   6.592  12.616  0.00  0.00    +0.000 OA
BRANCH  14  18
ATOM     15  C   UNL     1      47.890   4.771  16.325  0.00  0.00    +0.000 A 
ATOM     16  C   UNL     1      48.566   5.968  16.062  0.00  0.00    +0.000 A 
ATOM     17  C   UNL     1      48.396   6.616  14.831  0.00  0.00    +0.000 A 
ATOM     18  C   UNL     1      47.556   6.070  13.857  0.00  0.00    +0.000 A 
ATOM     19  C   UNL     1      46.887   4.874  14.125  0.00  0.00    +0.000 A 
ATOM     20  C   UNL     1      47.056   4.220  15.348  0.00  0.00    +0.000 A 
BRANCH  15  22
ATOM     21  N   UNL     1      47.233   2.976  17.837  0.00  0.00    +0.000 N 
ATOM     22  C   UNL     1      48.061   4.037  17.606  0.00  0.00    +0.000 C 
ATOM     23  O   UNL     1      48.932   4.344  18.412  0.00  0.00    +0.000 OA
ATOM     24  H   UNL     1      47.435   2.426  18.662  0.00  0.00    +0.000 HD
ATOM     25  H   UNL     1      46.697   2.537  17.103  0.00  0.00    +0.000 HD
ENDBRANCH  15  22
ENDBRANCH  14  18
ENDBRANCH   1  14
TORSDOF 5
ENDMDL
MODEL 6
REMARK VINA RESULT:    -7.252      1.967      3.724
REMARK INTER + INTRA:         -10.164
REMARK INTER:                  -9.509
REMARK INTRA:                  -0.654
REMARK UNBOUND:                -0.791
REMARK  Name = 
REMARK  5 active torsions:
REMARK  status: ('A' for Active; 'I' for Inactive)
REMARK    1  A    between atoms: C_2  and  C_4
REMARK    2  A    between atoms: C_7  and  O_8
REMARK    3  A    between atoms: O_8  and  C_9
REMARK    4  A    between atoms: C_9  and  C_10
REMARK    5  A    between atoms: C_12  and  C_13
REMARK                            x       y       z     vdW  Elec       q    Type
REMARK                         _______ _______ _______ _____ _____    ______ ____
ROOT
ATOM      1  C   UNL     1      44.221   5.691  11.207  0.00  0.00    +0.000 C 
ENDROOT
BRANCH   1   2
ATOM      2  C   UNL     1      45.417   6.200  11.982  0.00  0.00    +0.000 A 
ATOM      3  C   UNL     1      45.887   5.534  13.117  0.00  0.00    +0.000 A 
ATOM      4  C   UNL     1      47.043   5.981  13.778  0.00  0.00    +0.000 A 
ATOM      5  C   UNL     1      47.675   7.111  13.243  0.00  0.00    +0.000 A 
ATOM      6  C   UNL     1      47.150   7.718  12.115  0.00  0.00    +0.000 A 
ATOM      7  N   UNL     1      46.050   7.285  11.470  0.00  0.00    +0.000 NA
BRANCH   4   8
ATOM      8  C   UNL     1      47.591   5.278  14.962  0.00  0.00    +0.000 A 
ATOM      9  C   UNL     1      48.490   5.910  15.841  0.00  0.00    +0.000 A 
ATOM     10  C   UNL     1      48.977   5.263  16.981  0.00  0.00    +0.000 A 
ATOM     11  C   UNL     1      48.570   3.968  17.276  0.00  0.00    +0.000 A 
ATOM     12  C   UNL     1      47.691   3.313  16.422  0.00  0.00    +0.000 A 
ATOM     13  C   UNL     1      47.215   3.958  15.276  0.00  0.00    +0.000 A 
ENDBRANCH   4   8
ENDBRANCH   1   2
BRANCH   1  14
ATOM     14  O   UNL     1      44.306   4.283  10.976  0.00  0.00    +0.000 OA
BRANCH  14  18
ATOM     15  C   UNL     1      46.304   2.770   7.641  0.00  0.00    +0.000 A 
ATOM     16  C   UNL     1      46.225   4.159   7.794  0.00  0.00    +0.000 A 
ATOM     17  C   UNL     1      45.569   4.709   8.904  0.00  0.00    +0.000 A 
ATOM     18  C   UNL     1      44.984   3.876   9.860  0.00  0.00    +0.000 A 
ATOM     19  C   UNL     1      45.064   2.491   9.701  0.00  0.00    +0.000 A 
ATOM     20  C   UNL     1      45.712   1.937   8.594  0.00  0.00    +0.000 A 
BRANCH  15  22
ATOM     21  N   UNL     1      47.234   2.948   5.396  0.00  0.00    +0.000 N 
ATOM     22  C   UNL     1      46.968   2.145   6.468  0.00  0.00    +0.000 C 
ATOM     23  O   UNL     1      47.299   0.966   6.469  0.00  0.00    +0.000 OA
ATOM     24  H   UNL     1      47.781   2.531   4.653  0.00  0.00    +0.000 HD
ATOM     25  H   UNL     1      47.221   3.956   5.457  0.00  0.00    +0.000 HD
ENDBRANCH  15  22
ENDBRANCH  14  18
ENDBRANCH   1  14
TORSDOF 5
ENDMDL
MODEL 7
REMARK VINA RESULT:    -6.913      3.589      7.155
REMARK INTER + INTRA:          -9.725
REMARK INTER:                  -9.052
REMARK INTRA:                  -0.673
REMARK UNBOUND:                -0.791
REMARK  Name = 
REMARK  5 active torsions:
REMARK  status: ('A' for Active; 'I' for Inactive)
REMARK    1  A    between atoms: C_2  and  C_4
REMARK    2  A    between atoms: C_7  and  O_8
REMARK    3  A    between atoms: O_8  and  C_9
REMARK    4  A    between atoms: C_9  and  C_10
REMARK    5  A    between atoms: C_12  and  C_13
REMARK                            x       y       z     vdW  Elec       q    Type
REMARK                         _______ _______ _______ _____ _____    ______ ____
ROOT
ATOM      1  C   UNL     1      45.680   7.436  12.004  0.00  0.00    +0.000 C 
ENDROOT
BRANCH   1   2
ATOM      2  C   UNL     1      44.952   6.313  11.295  0.00  0.00    +0.000 A 
ATOM      3  C   UNL     1      45.590   5.526  10.332  0.00  0.00    +0.000 A 
ATOM      4  C   UNL     1      44.920   4.443   9.741  0.00  0.00    +0.000 A 
ATOM      5  C   UNL     1      43.604   4.212  10.162  0.00  0.00    +0.000 A 
ATOM      6  C   UNL     1      43.039   5.035  11.120  0.00  0.00    +0.000 A 
ATOM      7  N   UNL     1      43.682   6.067  11.701  0.00  0.00    +0.000 NA
BRANCH   4   8
ATOM      8  C   UNL     1      45.578   3.564   8.745  0.00  0.00    +0.000 A 
ATOM      9  C   UNL     1      46.242   4.094   7.622  0.00  0.00    +0.000 A 
ATOM     10  C   UNL     1      46.898   3.270   6.703  0.00  0.00    +0.000 A 
ATOM     11  C   UNL     1      46.914   1.893   6.887  0.00  0.00    +0.000 A 
ATOM     12  C   UNL     1      46.258   1.338   7.979  0.00  0.00    +0.000 A 
ATOM     13  C   UNL     1      45.592   2.164   8.890  0.00  0.00    +0.000 A 
ENDBRANCH   4   8
ENDBRANCH   1   2
BRANCH   1  14
ATOM     14  O   UNL     1      46.511   6.940  13.056  0.00  0.00    +0.000 OA
BRANCH  14  18
ATOM     15  C   UNL     1      50.492   8.152  12.767  0.00  0.00    +0.000 A 
ATOM     16  C   UNL     1      49.899   8.118  14.035  0.00  0.00    +0.000 A 
ATOM     17  C   UNL     1      48.566   7.711  14.177  0.00  0.00    +0.000 A 
ATOM     18  C   UNL     1      47.818   7.341  13.056  0.00  0.00    +0.000 A 
ATOM     19  C   UNL     1      48.415   7.379  11.794  0.00  0.00    +0.000 A 
ATOM     20  C   UNL     1      49.742   7.789  11.645  0.00  0.00    +0.000 A 
BRANCH  15  22
ATOM     21  N   UNL     1      52.698   7.819  11.787  0.00  0.00    +0.000 N 
ATOM     22  C   UNL     1      51.894   8.601  12.568  0.00  0.00    +0.000 C 
ATOM     23  O   UNL     1      52.310   9.647  13.050  0.00  0.00    +0.000 OA
ATOM     24  H   UNL     1      53.614   8.196  11.576  0.00  0.00    +0.000 HD
ATOM     25  H   UNL     1      52.331   7.110  11.170  0.00  0.00    +0.000 HD
ENDBRANCH  15  22
ENDBRANCH  14  18
ENDBRANCH   1  14
TORSDOF 5
ENDMDL
MODEL 8
REMARK VINA RESULT:    -6.617      3.974      8.016
REMARK INTER + INTRA:          -9.343
REMARK INTER:                  -8.806
REMARK INTRA:                  -0.537
REMARK UNBOUND:                -0.791
REMARK  Name = 
REMARK  5 active torsions:
REMARK  status: ('A' for Active; 'I' for Inactive)
REMARK    1  A    between atoms: C_2  and  C_4
REMARK    2  A    between atoms: C_7  and  O_8
REMARK    3  A    between atoms: O_8  and  C_9
REMARK    4  A    between atoms: C_9  and  C_10
REMARK    5  A    between atoms: C_12  and  C_13
REMARK                            x       y       z     vdW  Elec       q    Type
REMARK                         _______ _______ _______ _____ _____    ______ ____
ROOT
ATOM      1  C   UNL     1      45.870   5.219  14.030  0.00  0.00    +0.000 C 
ENDROOT
BRANCH   1   2
ATOM      2  C   UNL     1      45.062   4.977  12.773  0.00  0.00    +0.000 A 
ATOM      3  C   UNL     1      45.646   4.435  11.625  0.00  0.00    +0.000 A 
ATOM      4  C   UNL     1      44.862   4.149  10.495  0.00  0.00    +0.000 A 
ATOM      5  C   UNL     1      43.495   4.439  10.589  0.00  0.00    +0.000 A 
ATOM      6  C   UNL     1      42.989   4.975  11.760  0.00  0.00    +0.000 A 
ATOM      7  N   UNL     1      43.734   5.238  12.851  0.00  0.00    +0.000 NA
BRANCH   4   8
ATOM      8  C   UNL     1      45.441   3.540   9.274  0.00  0.00    +0.000 A 
ATOM      9  C   UNL     1      45.529   2.143   9.121  0.00  0.00    +0.000 A 
ATOM     10  C   UNL     1      46.037   1.565   7.953  0.00  0.00    +0.000 A 
ATOM     11  C   UNL     1      46.462   2.370   6.904  0.00  0.00    +0.000 A 
ATOM     12  C   UNL     1      46.397   3.753   7.028  0.00  0.00    +0.000 A 
ATOM     13  C   UNL     1      45.901   4.328   8.203  0.00  0.00    +0.000 A 
ENDBRANCH   4   8
ENDBRANCH   1   2
BRANCH   1  14
ATOM     14  O   UNL     1      46.436   4.006  14.532  0.00  0.00    +0.000 OA
BRANCH  14  18
ATOM     15  C   UNL     1      49.110   4.612  17.676  0.00  0.00    +0.000 A 
ATOM     16  C   UNL     1      48.482   3.366  17.570  0.00  0.00    +0.000 A 
ATOM     17  C   UNL     1      47.581   3.118  16.525  0.00  0.00    +0.000 A 
ATOM     18  C   UNL     1      47.301   4.114  15.586  0.00  0.00    +0.000 A 
ATOM     19  C   UNL     1      47.930   5.355  15.698  0.00  0.00    +0.000 A 
ATOM     20  C   UNL     1      48.825   5.610  16.740  0.00  0.00    +0.000 A 
BRANCH  15  22
ATOM     21  N   UNL     1      49.787   4.382  20.006  0.00  0.00    +0.000 N 
ATOM     22  C   UNL     1      50.052   4.926  18.781  0.00  0.00    +0.000 C 
ATOM     23  O   UNL     1      51.049   5.615  18.601  0.00  0.00    +0.000 OA
ATOM     24  H   UNL     1      50.495   4.519  20.716  0.00  0.00    +0.000 HD
ATOM     25  H   UNL     1      49.143   3.614  20.129  0.00  0.00    +0.000 HD
ENDBRANCH  15  22
ENDBRANCH  14  18
ENDBRANCH   1  14
TORSDOF 5
ENDMDL
MODEL 9
REMARK VINA RESULT:    -6.541      4.383      8.419
REMARK INTER + INTRA:          -9.244
REMARK INTER:                  -8.617
REMARK INTRA:                  -0.627
REMARK UNBOUND:                -0.791
REMARK  Name = 
REMARK  5 active torsions:
REMARK  status: ('A' for Active; 'I' for Inactive)
REMARK    1  A    between atoms: C_2  and  C_4
REMARK    2  A    between atoms: C_7  and  O_8
REMARK    3  A    between atoms: O_8  and  C_9
REMARK    4  A    between atoms: C_9  and  C_10
REMARK    5  A    between atoms: C_12  and  C_13
REMARK                            x       y       z     vdW  Elec       q    Type
REMARK                         _______ _______ _______ _____ _____    ______ ____
ROOT
ATOM      1  C   UNL     1      48.185   7.208  14.066  0.00  0.00    +0.000 C 
ENDROOT
BRANCH   1   2
ATOM      2  C   UNL     1      47.040   7.257  13.077  0.00  0.00    +0.000 A 
ATOM      3  C   UNL     1      46.761   6.180  12.232  0.00  0.00    +0.000 A 
ATOM      4  C   UNL     1      45.648   6.218  11.375  0.00  0.00    +0.000 A 
ATOM      5  C   UNL     1      44.861   7.376  11.418  0.00  0.00    +0.000 A 
ATOM      6  C   UNL     1      45.201   8.401  12.283  0.00  0.00    +0.000 A 
ATOM      7  N   UNL     1      46.259   8.365  13.116  0.00  0.00    +0.000 NA
BRANCH   4   8
ATOM      8  C   UNL     1      45.300   5.079  10.493  0.00  0.00    +0.000 A 
ATOM      9  C   UNL     1      45.679   5.058   9.137  0.00  0.00    +0.000 A 
ATOM     10  C   UNL     1      45.388   3.968   8.312  0.00  0.00    +0.000 A 
ATOM     11  C   UNL     1      44.716   2.864   8.824  0.00  0.00    +0.000 A 
ATOM     12  C   UNL     1      44.320   2.859  10.156  0.00  0.00    +0.000 A 
ATOM     13  C   UNL     1      44.601   3.957  10.976  0.00  0.00    +0.000 A 
ENDBRANCH   4   8
ENDBRANCH   1   2
BRANCH   1  14
ATOM     14  O   UNL     1      48.460   5.869  14.484  0.00  0.00    +0.000 OA
BRANCH  14  18
ATOM     15  C   UNL     1      48.145   5.253  18.598  0.00  0.00    +0.000 A 
ATOM     16  C   UNL     1      47.449   4.391  17.743  0.00  0.00    +0.000 A 
ATOM     17  C   UNL     1      47.533   4.559  16.354  0.00  0.00    +0.000 A 
ATOM     18  C   UNL     1      48.306   5.589  15.814  0.00  0.00    +0.000 A 
ATOM     19  C   UNL     1      48.996   6.447  16.673  0.00  0.00    +0.000 A 
ATOM     20  C   UNL     1      48.913   6.289  18.058  0.00  0.00    +0.000 A 
BRANCH  15  22
ATOM     21  N   UNL     1      48.657   4.037  20.647  0.00  0.00    +0.000 N 
ATOM     22  C   UNL     1      48.064   5.128  20.076  0.00  0.00    +0.000 C 
ATOM     23  O   UNL     1      47.520   5.982  20.766  0.00  0.00    +0.000 OA
ATOM     24  H   UNL     1      48.685   4.025  21.658  0.00  0.00    +0.000 HD
ATOM     25  H   UNL     1      49.328   3.465  20.154  0.00  0.00    +0.000 HD
ENDBRANCH  15  22
ENDBRANCH  14  18
ENDBRANCH   1  14
TORSDOF 5
ENDMDL
