MODEL 1
REMARK VINA RESULT:    -7.498      0.000      0.000
REMARK INTER + INTRA:         -10.106
REMARK INTER:                  -9.471
REMARK INTRA:                  -0.636
REMARK UNBOUND:                -0.636
REMARK  Name = 
REMARK  5 active torsions:
REMARK  status: ('A' for Active; 'I' for Inactive)
REMARK    1  A    between atoms: N_1  and  C_2
REMARK    2  A    between atoms: C_2  and  C_3
REMARK    3  A    between atoms: C_3  and  C_4
REMARK    4  A    between atoms: C_7  and  C_8
REMARK    5  A    between atoms: C_8  and  N_9
REMARK                            x       y       z     vdW  Elec       q    Type
REMARK                         _______ _______ _______ _____ _____    ______ ____
ROOT
ATOM      1  C   UNL     1      46.084   2.342   7.802  0.00  0.00    +0.000 A 
ATOM      2  C   UNL     1      45.281   1.734   8.774  0.00  0.00    +0.000 A 
ATOM      3  C   UNL     1      44.578   2.507   9.701  0.00  0.00    +0.000 A 
ATOM      4  C   UNL     1      44.655   3.906   9.674  0.00  0.00    +0.000 A 
ATOM      5  C   UNL     1      45.437   4.513   8.681  0.00  0.00    +0.000 A 
ATOM      6  C   UNL     1      46.140   3.740   7.752  0.00  0.00    +0.000 A 
ENDROOT
BRANCH   1   7
ATOM      7  C   UNL     1      46.889   1.507   6.835  0.00  0.00    +0.000 C 
BRANCH   7   8
ATOM      8  C   UNL     1      48.224   2.157   6.459  0.00  0.00    +0.000 C 
BRANCH   8   9
ATOM      9  N   UNL     1      48.274   2.458   5.028  0.00  0.00    +0.000 NA
ATOM     10  H   UNL     1      47.325   2.576   4.674  0.00  0.00    +0.000 HD
ATOM     11  H   UNL     1      48.669   1.665   4.524  0.00  0.00    +0.000 HD
ENDBRANCH   8   9
ENDBRANCH   7   8
ENDBRANCH   1   7
BRANCH   4  12
ATOM     12  C   UNL     1      43.915   4.742  10.689  0.00  0.00    +0.000 C 
BRANCH  12  13
ATOM     13  N   UNL     1      44.803   5.608  11.462  0.00  0.00    +0.000 N 
ATOM     14  C   UNL     1      44.755   6.984  11.426  0.00  0.00    +0.000 A 
ATOM     15  C   UNL     1      45.623   7.469  12.377  0.00  0.00    +0.000 A 
ATOM     16  C   UNL     1      46.221   6.354  13.025  0.00  0.00    +0.000 A 
ATOM     17  C   UNL     1      47.147   6.222  14.068  0.00  0.00    +0.000 A 
ATOM     18  N   UNL     1      47.539   4.996  14.496  0.00  0.00    +0.000 NA
ATOM     19  C   UNL     1      47.022   3.906  13.892  0.00  0.00    +0.000 A 
ATOM     20  C   UNL     1      46.101   3.929  12.855  0.00  0.00    +0.000 A 
ATOM     21  C   UNL     1      45.701   5.199  12.430  0.00  0.00    +0.000 A 
ENDBRANCH  12  13
ENDBRANCH   4  12
TORSDOF 5
ENDMDL
MODEL 2
REMARK VINA RESULT:    -7.283      1.112      2.260
REMARK INTER + INTRA:          -9.835
REMARK INTER:                  -9.237
REMARK INTRA:                  -0.598
REMARK UNBOUND:                -0.636
REMARK  Name = 
REMARK  5 active torsions:
REMARK  status: ('A' for Active; 'I' for Inactive)
REMARK    1  A    between atoms: N_1  and  C_2
REMARK    2  A    between atoms: C_2  and  C_3
REMARK    3  A    between atoms: C_3  and  C_4
REMARK    4  A    between atoms: C_7  and  C_8
REMARK    5  A    between atoms: C_8  and  N_9
REMARK                            x       y       z     vdW  Elec       q    Type
REMARK                         _______ _______ _______ _____ _____    ______ ____
ROOT
ATOM      1  C   UNL     1      46.054   2.365   7.815  0.00  0.00    +0.000 A 
ATOM      2  C   UNL     1      45.267   1.743   8.790  0.00  0.00    +0.000 A 
ATOM      3  C   UNL     1      44.559   2.503   9.725  0.00  0.00    +0.000 A 
ATOM      4  C   UNL     1      44.615   3.903   9.701  0.00  0.00    +0.000 A 
ATOM      5  C   UNL     1      45.380   4.524   8.704  0.00  0.00    +0.000 A 
ATOM      6  C   UNL     1      46.089   3.764   7.767  0.00  0.00    +0.000 A 
ENDROOT
BRANCH   1   7
ATOM      7  C   UNL     1      46.864   1.545   6.840  0.00  0.00    +0.000 C 
BRANCH   7   8
ATOM      8  C   UNL     1      48.199   2.203   6.476  0.00  0.00    +0.000 C 
BRANCH   8   9
ATOM      9  N   UNL     1      48.269   2.486   5.042  0.00  0.00    +0.000 NA
ATOM     10  H   UNL     1      48.074   3.474   4.883  0.00  0.00    +0.000 HD
ATOM     11  H   UNL     1      47.538   1.969   4.554  0.00  0.00    +0.000 HD
ENDBRANCH   8   9
ENDBRANCH   7   8
ENDBRANCH   1   7
BRANCH   4  12
ATOM     12  C   UNL     1      43.870   4.725  10.723  0.00  0.00    +0.000 C 
BRANCH  12  13
ATOM     13  N   UNL     1      44.749   5.288  11.745  0.00  0.00    +0.000 N 
ATOM     14  C   UNL     1      45.539   4.530  12.581  0.00  0.00    +0.000 A 
ATOM     15  C   UNL     1      46.337   5.382  13.308  0.00  0.00    +0.000 A 
ATOM     16  C   UNL     1      46.035   6.710  12.901  0.00  0.00    +0.000 A 
ATOM     17  C   UNL     1      46.528   7.971  13.263  0.00  0.00    +0.000 A 
ATOM     18  N   UNL     1      46.042   9.097  12.686  0.00  0.00    +0.000 NA
ATOM     19  C   UNL     1      45.069   8.980  11.759  0.00  0.00    +0.000 A 
ATOM     20  C   UNL     1      44.514   7.782  11.331  0.00  0.00    +0.000 A 
ATOM     21  C   UNL     1      45.031   6.629  11.929  0.00  0.00    +0.000 A 
ENDBRANCH  12  13
ENDBRANCH   4  12
TORSDOF 5
ENDMDL
MODEL 3
REMARK VINA RESULT:    -5.952      1.279      1.980
REMARK INTER + INTRA:          -8.154
REMARK INTER:                  -7.541
REMARK INTRA:                  -0.613
REMARK UNBOUND:                -0.636
REMARK  Name = 
REMARK  5 active torsions:
REMARK  status: ('A' for Active; 'I' for Inactive)
REMARK    1  A    between atoms: N_1  and  C_2
REMARK    2  A    between atoms: C_2  and  C_3
REMARK    3  A    between atoms: C_3  and  C_4
REMARK    4  A    between atoms: C_7  and  C_8
REMARK    5  A    between atoms: C_8  and  N_9
REMARK                            x       y       z     vdW  Elec       q    Type
REMARK                         _______ _______ _______ _____ _____    ______ ____
ROOT
ATOM      1  C   UNL     1      45.258   3.369   8.594  0.00  0.00    +0.000 A 
ATOM      2  C   UNL     1      45.877   4.624   8.610  0.00  0.00    +0.000 A 
ATOM      3  C   UNL     1      45.566   5.557   9.602  0.00  0.00    +0.000 A 
ATOM      4  C   UNL     1      44.635   5.255  10.605  0.00  0.00    +0.000 A 
ATOM      5  C   UNL     1      44.038   3.986  10.603  0.00  0.00    +0.000 A 
ATOM      6  C   UNL     1      44.350   3.050   9.611  0.00  0.00    +0.000 A 
ENDROOT
BRANCH   1   7
ATOM      7  C   UNL     1      45.551   2.379   7.490  0.00  0.00    +0.000 C 
BRANCH   7   8
ATOM      8  C   UNL     1      46.589   1.329   7.896  0.00  0.00    +0.000 C 
BRANCH   8   9
ATOM      9  N   UNL     1      47.775   1.411   7.043  0.00  0.00    +0.000 NA
ATOM     10  H   UNL     1      47.673   2.193   6.397  0.00  0.00    +0.000 HD
ATOM     11  H   UNL     1      47.842   0.572   6.467  0.00  0.00    +0.000 HD
ENDBRANCH   8   9
ENDBRANCH   7   8
ENDBRANCH   1   7
BRANCH   4  12
ATOM     12  C   UNL     1      44.280   6.270  11.663  0.00  0.00    +0.000 C 
BRANCH  12  13
ATOM     13  N   UNL     1      45.456   6.907  12.251  0.00  0.00    +0.000 N 
ATOM     14  C   UNL     1      45.781   8.233  12.072  0.00  0.00    +0.000 A 
ATOM     15  C   UNL     1      46.856   8.525  12.879  0.00  0.00    +0.000 A 
ATOM     16  C   UNL     1      47.201   7.342  13.585  0.00  0.00    +0.000 A 
ATOM     17  C   UNL     1      48.175   7.034  14.544  0.00  0.00    +0.000 A 
ATOM     18  N   UNL     1      48.267   5.785  15.063  0.00  0.00    +0.000 NA
ATOM     19  C   UNL     1      47.404   4.841  14.631  0.00  0.00    +0.000 A 
ATOM     20  C   UNL     1      46.406   5.043  13.689  0.00  0.00    +0.000 A 
ATOM     21  C   UNL     1      46.318   6.338  13.169  0.00  0.00    +0.000 A 
ENDBRANCH  12  13
ENDBRANCH   4  12
TORSDOF 5
ENDMDL
MODEL 4
REMARK VINA RESULT:    -5.854      1.551      6.413
REMARK INTER + INTRA:          -8.030
REMARK INTER:                  -7.409
REMARK INTRA:                  -0.621
REMARK UNBOUND:                -0.636
REMARK  Name = 
REMARK  5 active torsions:
REMARK  status: ('A' for Active; 'I' for Inactive)
REMARK    1  A    between atoms: N_1  and  C_2
REMARK    2  A    between atoms: C_2  and  C_3
REMARK    3  A    between atoms: C_3  and  C_4
REMARK    4  A    between atoms: C_7  and  C_8
REMARK    5  A    between atoms: C_8  and  N_9
REMARK                            x       y       z     vdW  Elec       q    Type
REMARK                         _______ _______ _______ _____ _____    ______ ____
ROOT
ATOM      1  C   UNL     1      46.377   6.448  12.523  0.00  0.00    +0.000 A 
ATOM      2  C   UNL     1      45.377   5.488  12.709  0.00  0.00    +0.000 A 
ATOM      3  C   UNL     1      44.781   4.860  11.611  0.00  0.00    +0.000 A 
ATOM      4  C   UNL     1      45.177   5.173  10.304  0.00  0.00    +0.000 A 
ATOM      5  C   UNL     1      46.200   6.114  10.122  0.00  0.00    +0.000 A 
ATOM      6  C   UNL     1      46.798   6.742  11.220  0.00  0.00    +0.000 A 
ENDROOT
BRANCH   1   7
ATOM      7  C   UNL     1      46.983   7.168  13.704  0.00  0.00    +0.000 C 
BRANCH   7   8
ATOM      8  C   UNL     1      48.090   6.360  14.387  0.00  0.00    +0.000 C 
BRANCH   8   9
ATOM      9  N   UNL     1      49.396   6.665  13.803  0.00  0.00    +0.000 NA
ATOM     10  H   UNL     1      49.350   7.565  13.324  0.00  0.00    +0.000 HD
ATOM     11  H   UNL     1      49.623   5.974  13.088  0.00  0.00    +0.000 HD
ENDBRANCH   8   9
ENDBRANCH   7   8
ENDBRANCH   1   7
BRANCH   4  12
ATOM     12  C   UNL     1      44.519   4.514   9.117  0.00  0.00    +0.000 C 
BRANCH  12  13
ATOM     13  N   UNL     1      45.059   3.185   8.837  0.00  0.00    +0.000 N 
ATOM     14  C   UNL     1      44.488   2.014   9.282  0.00  0.00    +0.000 A 
ATOM     15  C   UNL     1      45.168   0.961   8.717  0.00  0.00    +0.000 A 
ATOM     16  C   UNL     1      46.189   1.501   7.889  0.00  0.00    +0.000 A 
ATOM     17  C   UNL     1      47.166   0.934   7.060  0.00  0.00    +0.000 A 
ATOM     18  N   UNL     1      48.025   1.719   6.363  0.00  0.00    +0.000 NA
ATOM     19  C   UNL     1      47.923   3.058   6.490  0.00  0.00    +0.000 A 
ATOM     20  C   UNL     1      46.994   3.717   7.282  0.00  0.00    +0.000 A 
ATOM     21  C   UNL     1      46.110   2.895   7.987  0.00  0.00    +0.000 A 
ENDBRANCH  12  13
ENDBRANCH   4  12
TORSDOF 5
ENDMDL
MODEL 5
REMARK VINA RESULT:    -5.852      1.933      6.474
REMARK INTER + INTRA:          -8.028
REMARK INTER:                  -7.524
REMARK INTRA:                  -0.503
REMARK UNBOUND:                -0.636
REMARK  Name = 
REMARK  5 active torsions:
REMARK  status: ('A' for Active; 'I' for Inactive)
REMARK    1  A    between atoms: N_1  and  C_2
REMARK    2  A    between atoms: C_2  and  C_3
REMARK    3  A    between atoms: C_3  and  C_4
REMARK    4  A    between atoms: C_7  and  C_8
REMARK    5  A    between atoms: C_8  and  N_9
REMARK                            x       y       z     vdW  Elec       q    Type
REMARK                         _______ _______ _______ _____ _____    ______ ____
ROOT
ATOM      1  C   UNL     1      47.642   7.525  13.715  0.00  0.00    +0.000 A 
ATOM      2  C   UNL     1      47.318   6.167  13.627  0.00  0.00    +0.000 A 
ATOM      3  C   UNL     1      46.163   5.754  12.958  0.00  0.00    +0.000 A 
ATOM      4  C   UNL     1      45.310   6.688  12.356  0.00  0.00    +0.000 A 
ATOM      5  C   UNL     1      45.653   8.046  12.421  0.00  0.00    +0.000 A 
ATOM      6  C   UNL     1      46.810   8.461  13.089  0.00  0.00    +0.000 A 
ENDROOT
BRANCH   1   7
ATOM      7  C   UNL     1      48.860   7.978  14.486  0.00  0.00    +0.000 C 
BRANCH   7   8
ATOM      8  C   UNL     1      49.297   6.969  15.551  0.00  0.00    +0.000 C 
BRANCH   8   9
ATOM      9  N   UNL     1      50.730   6.691  15.452  0.00  0.00    +0.000 NA
ATOM     10  H   UNL     1      50.879   5.682  15.450  0.00  0.00    +0.000 HD
ATOM     11  H   UNL     1      51.207   7.047  16.279  0.00  0.00    +0.000 HD
ENDBRANCH   8   9
ENDBRANCH   7   8
ENDBRANCH   1   7
BRANCH   4  12
ATOM     12  C   UNL     1      44.050   6.246  11.653  0.00  0.00    +0.000 C 
BRANCH  12  13
ATOM     13  N   UNL     1      44.054   4.821  11.330  0.00  0.00    +0.000 N 
ATOM     14  C   UNL     1      43.372   3.868  12.054  0.00  0.00    +0.000 A 
ATOM     15  C   UNL     1      43.476   2.668  11.390  0.00  0.00    +0.000 A 
ATOM     16  C   UNL     1      44.241   2.890  10.214  0.00  0.00    +0.000 A 
ATOM     17  C   UNL     1      44.652   2.069   9.155  0.00  0.00    +0.000 A 
ATOM     18  N   UNL     1      45.389   2.571   8.134  0.00  0.00    +0.000 NA
ATOM     19  C   UNL     1      45.724   3.878   8.161  0.00  0.00    +0.000 A 
ATOM     20  C   UNL     1      45.368   4.772   9.159  0.00  0.00    +0.000 A 
ATOM     21  C   UNL     1      44.601   4.243  10.201  0.00  0.00    +0.000 A 
ENDBRANCH  12  13
ENDBRANCH   4  12
TORSDOF 5
ENDMDL
MODEL 6
REMARK VINA RESULT:    -5.813      1.579      6.412
REMARK INTER + INTRA:          -7.978
REMARK INTER:                  -7.709
REMARK INTRA:                  -0.269
REMARK UNBOUND:                -0.636
REMARK  Name = 
REMARK  5 active torsions:
REMARK  status: ('A' for Active; 'I' for Inactive)
REMARK    1  A    between atoms: N_1  and  C_2
REMARK    2  A    between atoms: C_2  and  C_3
REMARK    3  A    between atoms: C_3  and  C_4
REMARK    4  A    between atoms: C_7  and  C_8
REMARK    5  A    between atoms: C_8  and  N_9
REMARK                            x       y       z     vdW  Elec       q    Type
REMARK                         _______ _______ _______ _____ _____    ______ ____
ROOT
ATOM      1  C   UNL     1      46.771   5.427  13.264  0.00  0.00    +0.000 A 
ATOM      2  C   UNL     1      46.582   6.205  12.118  0.00  0.00    +0.000 A 
ATOM      3  C   UNL     1      45.869   5.702  11.026  0.00  0.00    +0.000 A 
ATOM      4  C   UNL     1      45.324   4.411  11.059  0.00  0.00    +0.000 A 
ATOM      5  C   UNL     1      45.491   3.645  12.221  0.00  0.00    +0.000 A 
ATOM      6  C   UNL     1      46.203   4.148  13.315  0.00  0.00    +0.000 A 
ENDROOT
BRANCH   1   7
ATOM      7  C   UNL     1      47.588   5.948  14.423  0.00  0.00    +0.000 C 
BRANCH   7   8
ATOM      8  C   UNL     1      48.458   7.150  14.042  0.00  0.00    +0.000 C 
BRANCH   8   9
ATOM      9  N   UNL     1      49.865   6.896  14.350  0.00  0.00    +0.000 NA
ATOM     10  H   UNL     1      49.927   6.282  15.163  0.00  0.00    +0.000 HD
ATOM     11  H   UNL     1      50.322   7.768  14.617  0.00  0.00    +0.000 HD
ENDBRANCH   8   9
ENDBRANCH   7   8
ENDBRANCH   1   7
BRANCH   4  12
ATOM     12  C   UNL     1      44.575   3.856   9.873  0.00  0.00    +0.000 C 
BRANCH  12  13
ATOM     13  N   UNL     1      45.425   3.688   8.696  0.00  0.00    +0.000 N 
ATOM     14  C   UNL     1      45.988   4.733   7.999  0.00  0.00    +0.000 A 
ATOM     15  C   UNL     1      46.836   4.211   7.051  0.00  0.00    +0.000 A 
ATOM     16  C   UNL     1      46.800   2.796   7.172  0.00  0.00    +0.000 A 
ATOM     17  C   UNL     1      47.455   1.749   6.508  0.00  0.00    +0.000 A 
ATOM     18  N   UNL     1      47.224   0.458   6.852  0.00  0.00    +0.000 NA
ATOM     19  C   UNL     1      46.345   0.201   7.843  0.00  0.00    +0.000 A 
ATOM     20  C   UNL     1      45.648   1.162   8.561  0.00  0.00    +0.000 A 
ATOM     21  C   UNL     1      45.903   2.489   8.201  0.00  0.00    +0.000 A 
ENDBRANCH  12  13
ENDBRANCH   4  12
TORSDOF 5
ENDMDL
MODEL 7
REMARK VINA RESULT:    -5.529      1.603      6.640
REMARK INTER + INTRA:          -7.620
REMARK INTER:                  -6.977
REMARK INTRA:                  -0.643
REMARK UNBOUND:                -0.636
REMARK  Name = 
REMARK  5 active torsions:
REMARK  status: ('A' for Active; 'I' for Inactive)
REMARK    1  A    between atoms: N_1  and  C_2
REMARK    2  A    between atoms: C_2  and  C_3
REMARK    3  A    between atoms: C_3  and  C_4
REMARK    4  A    between atoms: C_7  and  C_8
REMARK    5  A    between atoms: C_8  and  N_9
REMARK                            x       y       z     vdW  Elec       q    Type
REMARK                         _______ _______ _______ _____ _____    ______ ____
ROOT
ATOM      1  C   UNL     1      47.308   6.677  13.312  0.00  0.00    +0.000 A 
ATOM      2  C   UNL     1      46.885   7.379  12.179  0.00  0.00    +0.000 A 
ATOM      3  C   UNL     1      45.858   6.878  11.374  0.00  0.00    +0.000 A 
ATOM      4  C   UNL     1      45.226   5.667  11.688  0.00  0.00    +0.000 A 
ATOM      5  C   UNL     1      45.633   4.981  12.841  0.00  0.00    +0.000 A 
ATOM      6  C   UNL     1      46.659   5.482  13.648  0.00  0.00    +0.000 A 
ENDROOT
BRANCH   1   7
ATOM      7  C   UNL     1      48.454   7.188  14.152  0.00  0.00    +0.000 C 
BRANCH   7   8
ATOM      8  C   UNL     1      48.400   8.703  14.370  0.00  0.00    +0.000 C 
BRANCH   8   9
ATOM      9  N   UNL     1      47.496   9.041  15.470  0.00  0.00    +0.000 NA
ATOM     10  H   UNL     1      46.570   8.662  15.274  0.00  0.00    +0.000 HD
ATOM     11  H   UNL     1      47.384  10.053  15.524  0.00  0.00    +0.000 HD
ENDBRANCH   8   9
ENDBRANCH   7   8
ENDBRANCH   1   7
BRANCH   4  12
ATOM     12  C   UNL     1      44.134   5.113  10.807  0.00  0.00    +0.000 C 
BRANCH  12  13
ATOM     13  N   UNL     1      44.519   3.868  10.146  0.00  0.00    +0.000 N 
ATOM     14  C   UNL     1      43.982   2.638  10.452  0.00  0.00    +0.000 A 
ATOM     15  C   UNL     1      44.461   1.722   9.545  0.00  0.00    +0.000 A 
ATOM     16  C   UNL     1      45.315   2.412   8.644  0.00  0.00    +0.000 A 
ATOM     17  C   UNL     1      46.058   2.022   7.520  0.00  0.00    +0.000 A 
ATOM     18  N   UNL     1      46.797   2.925   6.831  0.00  0.00    +0.000 NA
ATOM     19  C   UNL     1      46.809   4.208   7.252  0.00  0.00    +0.000 A 
ATOM     20  C   UNL     1      46.110   4.694   8.348  0.00  0.00    +0.000 A 
ATOM     21  C   UNL     1      45.346   3.753   9.044  0.00  0.00    +0.000 A 
ENDBRANCH  12  13
ENDBRANCH   4  12
TORSDOF 5
ENDMDL
MODEL 8
REMARK VINA RESULT:    -5.446      2.248      3.315
REMARK INTER + INTRA:          -7.514
REMARK INTER:                  -7.078
REMARK INTRA:                  -0.437
REMARK UNBOUND:                -0.636
REMARK  Name = 
REMARK  5 active torsions:
REMARK  status: ('A' for Active; 'I' for Inactive)
REMARK    1  A    between atoms: N_1  and  C_2
REMARK    2  A    between atoms: C_2  and  C_3
REMARK    3  A    between atoms: C_3  and  C_4
REMARK    4  A    between atoms: C_7  and  C_8
REMARK    5  A    between atoms: C_8  and  N_9
REMARK                            x       y       z     vdW  Elec       q    Type
REMARK                         _______ _______ _______ _____ _____    ______ ____
ROOT
ATOM      1  C   UNL     1      44.833   3.543   9.642  0.00  0.00    +0.000 A 
ATOM      2  C   UNL     1      45.418   4.794   9.424  0.00  0.00    +0.000 A 
ATOM      3  C   UNL     1      45.525   5.721  10.465  0.00  0.00    +0.000 A 
ATOM      4  C   UNL     1      45.056   5.413  11.749  0.00  0.00    +0.000 A 
ATOM      5  C   UNL     1      44.496   4.147  11.971  0.00  0.00    +0.000 A 
ATOM      6  C   UNL     1      44.390   3.219  10.930  0.00  0.00    +0.000 A 
ENDROOT
BRANCH   1   7
ATOM      7  C   UNL     1      44.666   2.562   8.505  0.00  0.00    +0.000 C 
BRANCH   7   8
ATOM      8  C   UNL     1      45.799   1.533   8.438  0.00  0.00    +0.000 C 
BRANCH   8   9
ATOM      9  N   UNL     1      46.854   1.978   7.527  0.00  0.00    +0.000 NA
ATOM     10  H   UNL     1      46.782   1.462   6.649  0.00  0.00    +0.000 HD
ATOM     11  H   UNL     1      47.766   1.746   7.918  0.00  0.00    +0.000 HD
ENDBRANCH   8   9
ENDBRANCH   7   8
ENDBRANCH   1   7
BRANCH   4  12
ATOM     12  C   UNL     1      45.148   6.420  12.869  0.00  0.00    +0.000 C 
BRANCH  12  13
ATOM     13  N   UNL     1      45.861   7.634  12.479  0.00  0.00    +0.000 N 
ATOM     14  C   UNL     1      45.245   8.842  12.237  0.00  0.00    +0.000 A 
ATOM     15  C   UNL     1      46.221   9.791  12.040  0.00  0.00    +0.000 A 
ATOM     16  C   UNL     1      47.482   9.148  12.172  0.00  0.00    +0.000 A 
ATOM     17  C   UNL     1      48.809   9.592  12.101  0.00  0.00    +0.000 A 
ATOM     18  N   UNL     1      49.839   8.730  12.281  0.00  0.00    +0.000 NA
ATOM     19  C   UNL     1      49.561   7.433  12.526  0.00  0.00    +0.000 A 
ATOM     20  C   UNL     1      48.286   6.894  12.617  0.00  0.00    +0.000 A 
ATOM     21  C   UNL     1      47.233   7.796  12.437  0.00  0.00    +0.000 A 
ENDBRANCH  12  13
ENDBRANCH   4  12
TORSDOF 5
ENDMDL
MODEL 9
REMARK VINA RESULT:    -5.407      2.623      4.370
REMARK INTER + INTRA:          -7.465
REMARK INTER:                  -7.022
REMARK INTRA:                  -0.443
REMARK UNBOUND:                -0.636
REMARK  Name = 
REMARK  5 active torsions:
REMARK  status: ('A' for Active; 'I' for Inactive)
REMARK    1  A    between atoms: N_1  and  C_2
REMARK    2  A    between atoms: C_2  and  C_3
REMARK    3  A    between atoms: C_3  and  C_4
REMARK    4  A    between atoms: C_7  and  C_8
REMARK    5  A    between atoms: C_8  and  N_9
REMARK                            x       y       z     vdW  Elec       q    Type
REMARK                         _______ _______ _______ _____ _____    ______ ____
ROOT
ATOM      1  C   UNL     1      44.951   4.357   9.096  0.00  0.00    +0.000 A 
ATOM      2  C   UNL     1      45.971   5.254   9.432  0.00  0.00    +0.000 A 
ATOM      3  C   UNL     1      45.888   6.021  10.597  0.00  0.00    +0.000 A 
ATOM      4  C   UNL     1      44.787   5.904  11.456  0.00  0.00    +0.000 A 
ATOM      5  C   UNL     1      43.781   4.983  11.131  0.00  0.00    +0.000 A 
ATOM      6  C   UNL     1      43.864   4.214   9.966  0.00  0.00    +0.000 A 
ENDROOT
BRANCH   1   7
ATOM      7  C   UNL     1      45.012   3.569   7.809  0.00  0.00    +0.000 C 
BRANCH   7   8
ATOM      8  C   UNL     1      46.038   2.433   7.858  0.00  0.00    +0.000 C 
BRANCH   8   9
ATOM      9  N   UNL     1      45.640   1.410   8.825  0.00  0.00    +0.000 NA
ATOM     10  H   UNL     1      46.411   1.237   9.470  0.00  0.00    +0.000 HD
ATOM     11  H   UNL     1      45.470   0.528   8.343  0.00  0.00    +0.000 HD
ENDBRANCH   8   9
ENDBRANCH   7   8
ENDBRANCH   1   7
BRANCH   4  12
ATOM     12  C   UNL     1      44.684   6.748  12.702  0.00  0.00    +0.000 C 
BRANCH  12  13
ATOM     13  N   UNL     1      45.444   7.991  12.607  0.00  0.00    +0.000 N 
ATOM     14  C   UNL     1      46.690   8.175  13.165  0.00  0.00    +0.000 A 
ATOM     15  C   UNL     1      47.167   9.399  12.759  0.00  0.00    +0.000 A 
ATOM     16  C   UNL     1      46.186   9.988  11.917  0.00  0.00    +0.000 A 
ATOM     17  C   UNL     1      46.116  11.192  11.204  0.00  0.00    +0.000 A 
ATOM     18  N   UNL     1      45.027  11.493  10.456  0.00  0.00    +0.000 NA
ATOM     19  C   UNL     1      44.006  10.611  10.416  0.00  0.00    +0.000 A 
ATOM     20  C   UNL     1      43.977   9.395  11.083  0.00  0.00    +0.000 A 
ATOM     21  C   UNL     1      45.111   9.094  11.843  0.00  0.00    +0.000 A 
ENDBRANCH  12  13
ENDBRANCH   4  12
TORSDOF 5
ENDMDL
