MODEL 1
REMARK VINA RESULT:    -8.866      0.000      0.000
REMARK INTER + INTRA:         -12.256
REMARK INTER:                 -11.458
REMARK INTRA:                  -0.798
REMARK UNBOUND:                -0.798
REMARK  Name = 
REMARK  7 active torsions:
REMARK  status: ('A' for Active; 'I' for Inactive)
REMARK    1  A    between atoms: C_1  and  C_2
REMARK    2  A    between atoms: C_5  and  C_6
REMARK    3  A    between atoms: C_10  and  C_11
REMARK    4  A    between atoms: C_11  and  C_12
REMARK    5  A    between atoms: C_11  and  C_13
REMARK    6  A    between atoms: C_13  and  N_14
REMARK    7  A    between atoms: C_18  and  C_19
REMARK                            x       y       z     vdW  Elec       q    Type
REMARK                         _______ _______ _______ _____ _____    ______ ____
ROOT
ATOM      1  C   UNL     1      43.707   4.545  11.991  0.00  0.00    +0.000 C 
ATOM      2  C   UNL     1      42.593   5.543  12.349  0.00  0.00    +0.000 C 
ENDROOT
BRANCH   1   7
ATOM      3  C   UNL     1      46.910   5.276  14.048  0.00  0.00    +0.000 A 
ATOM      4  C   UNL     1      47.584   6.120  13.151  0.00  0.00    +0.000 A 
ATOM      5  C   UNL     1      47.021   6.462  11.919  0.00  0.00    +0.000 A 
ATOM      6  C   UNL     1      45.768   5.967  11.556  0.00  0.00    +0.000 A 
ATOM      7  C   UNL     1      45.062   5.111  12.414  0.00  0.00    +0.000 A 
ATOM      8  C   UNL     1      45.650   4.792  13.648  0.00  0.00    +0.000 A 
BRANCH   3  13
ATOM      9  C   UNL     1      49.001   3.955  19.159  0.00  0.00    +0.000 C 
ATOM     10  C   UNL     1      48.476   4.260  17.799  0.00  0.00    +0.000 A 
ATOM     11  C   UNL     1      47.406   3.596  17.239  0.00  0.00    +0.000 A 
ATOM     12  N   UNL     1      46.893   3.878  16.026  0.00  0.00    +0.000 NA
ATOM     13  C   UNL     1      47.486   4.877  15.346  0.00  0.00    +0.000 A 
ATOM     14  N   UNL     1      48.550   5.573  15.797  0.00  0.00    +0.000 NA
ATOM     15  C   UNL     1      49.020   5.249  17.013  0.00  0.00    +0.000 A 
ENDBRANCH   3  13
ENDBRANCH   1   7
BRANCH   1  16
ATOM     16  C   UNL     1      43.558   4.181  10.490  0.00  0.00    +0.000 C 
BRANCH  16  17
ATOM     17  N   UNL     1      44.005   2.809  10.207  0.00  0.00    +0.000 N 
ATOM     18  C   UNL     1      44.926   2.718   9.153  0.00  0.00    +0.000 A 
ATOM     19  C   UNL     1      45.477   1.478   8.794  0.00  0.00    +0.000 A 
ATOM     20  N   UNL     1      46.362   1.296   7.774  0.00  0.00    +0.000 NA
ATOM     21  C   UNL     1      46.704   2.442   7.125  0.00  0.00    +0.000 A 
ATOM     22  C   UNL     1      46.200   3.680   7.487  0.00  0.00    +0.000 A 
ATOM     23  N   UNL     1      45.310   3.836   8.498  0.00  0.00    +0.000 NA
ATOM     24  H   UNL     1      43.234   2.163  10.067  0.00  0.00    +0.000 HD
BRANCH  21  25
ATOM     25  C   UNL     1      47.636   2.353   5.969  0.00  0.00    +0.000 C 
ATOM     26  N   UNL     1      47.484   3.303   4.997  0.00  0.00    +0.000 N 
ATOM     27  O   UNL     1      48.499   1.489   5.889  0.00  0.00    +0.000 OA
ATOM     28  H   UNL     1      46.771   4.022   5.091  0.00  0.00    +0.000 HD
ATOM     29  H   UNL     1      48.108   3.304   4.206  0.00  0.00    +0.000 HD
ENDBRANCH  21  25
ENDBRANCH  16  17
ENDBRANCH   1  16
TORSDOF 5
ENDMDL
MODEL 2
REMARK VINA RESULT:    -7.900      2.956      8.410
REMARK INTER + INTRA:         -11.007
REMARK INTER:                 -10.430
REMARK INTRA:                  -0.577
REMARK UNBOUND:                -0.798
REMARK  Name = 
REMARK  7 active torsions:
REMARK  status: ('A' for Active; 'I' for Inactive)
REMARK    1  A    between atoms: C_1  and  C_2
REMARK    2  A    between atoms: C_5  and  C_6
REMARK    3  A    between atoms: C_10  and  C_11
REMARK    4  A    between atoms: C_11  and  C_12
REMARK    5  A    between atoms: C_11  and  C_13
REMARK    6  A    between atoms: C_13  and  N_14
REMARK    7  A    between atoms: C_18  and  C_19
REMARK                            x       y       z     vdW  Elec       q    Type
REMARK                         _______ _______ _______ _____ _____    ______ ____
ROOT
ATOM      1  C   UNL     1      46.384   7.643  12.267  0.00  0.00    +0.000 C 
ATOM      2  C   UNL     1      45.576   8.765  12.941  0.00  0.00    +0.000 C 
ENDROOT
BRANCH   1   7
ATOM      3  C   UNL     1      45.026   4.850   9.948  0.00  0.00    +0.000 A 
ATOM      4  C   UNL     1      43.679   4.842  10.344  0.00  0.00    +0.000 A 
ATOM      5  C   UNL     1      43.209   5.723  11.321  0.00  0.00    +0.000 A 
ATOM      6  C   UNL     1      44.078   6.632  11.926  0.00  0.00    +0.000 A 
ATOM      7  C   UNL     1      45.434   6.669  11.572  0.00  0.00    +0.000 A 
ATOM      8  C   UNL     1      45.875   5.777  10.582  0.00  0.00    +0.000 A 
BRANCH   3  13
ATOM      9  C   UNL     1      47.334   1.309   6.156  0.00  0.00    +0.000 C 
ATOM     10  C   UNL     1      46.682   2.226   7.131  0.00  0.00    +0.000 A 
ATOM     11  C   UNL     1      46.013   1.783   8.251  0.00  0.00    +0.000 A 
ATOM     12  N   UNL     1      45.446   2.596   9.164  0.00  0.00    +0.000 NA
ATOM     13  C   UNL     1      45.560   3.918   8.936  0.00  0.00    +0.000 A 
ATOM     14  N   UNL     1      46.177   4.451   7.861  0.00  0.00    +0.000 NA
ATOM     15  C   UNL     1      46.723   3.594   6.983  0.00  0.00    +0.000 A 
ENDBRANCH   3  13
ENDBRANCH   1   7
BRANCH   1  16
ATOM     16  C   UNL     1      47.330   7.030  13.333  0.00  0.00    +0.000 C 
BRANCH  16  17
ATOM     17  N   UNL     1      46.838   5.736  13.830  0.00  0.00    +0.000 N 
ATOM     18  C   UNL     1      47.480   5.296  14.997  0.00  0.00    +0.000 A 
ATOM     19  C   UNL     1      47.088   4.099  15.616  0.00  0.00    +0.000 A 
ATOM     20  N   UNL     1      47.668   3.588  16.739  0.00  0.00    +0.000 NA
ATOM     21  C   UNL     1      48.666   4.359  17.247  0.00  0.00    +0.000 A 
ATOM     22  C   UNL     1      49.044   5.560  16.672  0.00  0.00    +0.000 A 
ATOM     23  N   UNL     1      48.461   6.044  15.548  0.00  0.00    +0.000 NA
ATOM     24  H   UNL     1      46.845   5.011  13.120  0.00  0.00    +0.000 HD
BRANCH  21  25
ATOM     25  C   UNL     1      49.394   3.876  18.452  0.00  0.00    +0.000 C 
ATOM     26  N   UNL     1      48.645   3.209  19.382  0.00  0.00    +0.000 N 
ATOM     27  O   UNL     1      50.596   4.051  18.604  0.00  0.00    +0.000 OA
ATOM     28  H   UNL     1      47.652   3.060  19.227  0.00  0.00    +0.000 HD
ATOM     29  H   UNL     1      49.096   2.837  20.203  0.00  0.00    +0.000 HD
ENDBRANCH  21  25
ENDBRANCH  16  17
ENDBRANCH   1  16
TORSDOF 5
ENDMDL
MODEL 3
REMARK VINA RESULT:    -7.620      1.205      1.487
REMARK INTER + INTRA:         -10.645
REMARK INTER:                  -9.853
REMARK INTRA:                  -0.792
REMARK UNBOUND:                -0.798
REMARK  Name = 
REMARK  7 active torsions:
REMARK  status: ('A' for Active; 'I' for Inactive)
REMARK    1  A    between atoms: C_1  and  C_2
REMARK    2  A    between atoms: C_5  and  C_6
REMARK    3  A    between atoms: C_10  and  C_11
REMARK    4  A    between atoms: C_11  and  C_12
REMARK    5  A    between atoms: C_11  and  C_13
REMARK    6  A    between atoms: C_13  and  N_14
REMARK    7  A    between atoms: C_18  and  C_19
REMARK                            x       y       z     vdW  Elec       q    Type
REMARK                         _______ _______ _______ _____ _____    ______ ____
ROOT
ATOM      1  C   UNL     1      44.223   4.342  12.198  0.00  0.00    +0.000 C 
ATOM      2  C   UNL     1      43.025   4.774  13.059  0.00  0.00    +0.000 C 
ENDROOT
BRANCH   1   7
ATOM      3  C   UNL     1      47.329   6.298  13.445  0.00  0.00    +0.000 A 
ATOM      4  C   UNL     1      47.412   7.279  12.445  0.00  0.00    +0.000 A 
ATOM      5  C   UNL     1      46.486   7.327  11.401  0.00  0.00    +0.000 A 
ATOM      6  C   UNL     1      45.453   6.391  11.333  0.00  0.00    +0.000 A 
ATOM      7  C   UNL     1      45.336   5.384  12.302  0.00  0.00    +0.000 A 
ATOM      8  C   UNL     1      46.277   5.367  13.343  0.00  0.00    +0.000 A 
BRANCH   3  13
ATOM      9  C   UNL     1      50.981   6.179  17.791  0.00  0.00    +0.000 C 
ATOM     10  C   UNL     1      50.042   6.165  16.636  0.00  0.00    +0.000 A 
ATOM     11  C   UNL     1      48.897   5.398  16.605  0.00  0.00    +0.000 A 
ATOM     12  N   UNL     1      48.016   5.395  15.586  0.00  0.00    +0.000 NA
ATOM     13  C   UNL     1      48.303   6.205  14.549  0.00  0.00    +0.000 A 
ATOM     14  N   UNL     1      49.406   6.978  14.475  0.00  0.00    +0.000 NA
ATOM     15  C   UNL     1      50.250   6.940  15.519  0.00  0.00    +0.000 A 
ENDBRANCH   3  13
ENDBRANCH   1   7
BRANCH   1  16
ATOM     16  C   UNL     1      43.700   4.044  10.768  0.00  0.00    +0.000 C 
BRANCH  16  17
ATOM     17  N   UNL     1      44.060   2.691  10.319  0.00  0.00    +0.000 N 
ATOM     18  C   UNL     1      44.976   2.671   9.256  0.00  0.00    +0.000 A 
ATOM     19  C   UNL     1      45.448   1.450   8.747  0.00  0.00    +0.000 A 
ATOM     20  N   UNL     1      46.321   1.338   7.707  0.00  0.00    +0.000 NA
ATOM     21  C   UNL     1      46.736   2.530   7.200  0.00  0.00    +0.000 A 
ATOM     22  C   UNL     1      46.310   3.744   7.711  0.00  0.00    +0.000 A 
ATOM     23  N   UNL     1      45.430   3.833   8.738  0.00  0.00    +0.000 NA
ATOM     24  H   UNL     1      43.251   2.116  10.107  0.00  0.00    +0.000 HD
BRANCH  21  25
ATOM     25  C   UNL     1      47.663   2.523   6.035  0.00  0.00    +0.000 C 
ATOM     26  N   UNL     1      48.983   2.745   6.314  0.00  0.00    +0.000 N 
ATOM     27  O   UNL     1      47.275   2.321   4.892  0.00  0.00    +0.000 OA
ATOM     28  H   UNL     1      49.285   2.895   7.273  0.00  0.00    +0.000 HD
ATOM     29  H   UNL     1      49.656   2.723   5.564  0.00  0.00    +0.000 HD
ENDBRANCH  21  25
ENDBRANCH  16  17
ENDBRANCH   1  16
TORSDOF 5
ENDMDL
MODEL 4
REMARK VINA RESULT:    -7.456      2.101      2.829
REMARK INTER + INTRA:         -10.434
REMARK INTER:                  -9.754
REMARK INTRA:                  -0.680
REMARK UNBOUND:                -0.798
REMARK  Name = 
REMARK  7 active torsions:
REMARK  status: ('A' for Active; 'I' for Inactive)
REMARK    1  A    between atoms: C_1  and  C_2
REMARK    2  A    between atoms: C_5  and  C_6
REMARK    3  A    between atoms: C_10  and  C_11
REMARK    4  A    between atoms: C_11  and  C_12
REMARK    5  A    between atoms: C_11  and  C_13
REMARK    6  A    between atoms: C_13  and  N_14
REMARK    7  A    between atoms: C_18  and  C_19
REMARK                            x       y       z     vdW  Elec       q    Type
REMARK                         _______ _______ _______ _____ _____    ______ ____
ROOT
ATOM      1  C   UNL     1      44.134   5.087  12.188  0.00  0.00    +0.000 C 
ATOM      2  C   UNL     1      42.964   5.135  13.185  0.00  0.00    +0.000 C 
ENDROOT
BRANCH   1   7
ATOM      3  C   UNL     1      46.891   7.698  12.964  0.00  0.00    +0.000 A 
ATOM      4  C   UNL     1      46.364   8.811  12.290  0.00  0.00    +0.000 A 
ATOM      5  C   UNL     1      45.144   8.735  11.614  0.00  0.00    +0.000 A 
ATOM      6  C   UNL     1      44.423   7.541  11.596  0.00  0.00    +0.000 A 
ATOM      7  C   UNL     1      44.914   6.399  12.245  0.00  0.00    +0.000 A 
ATOM      8  C   UNL     1      46.139   6.509  12.923  0.00  0.00    +0.000 A 
BRANCH   3  13
ATOM      9  C   UNL     1      51.947   7.619  15.547  0.00  0.00    +0.000 C 
ATOM     10  C   UNL     1      50.611   7.685  14.894  0.00  0.00    +0.000 A 
ATOM     11  C   UNL     1      50.334   8.511  13.826  0.00  0.00    +0.000 A 
ATOM     12  N   UNL     1      49.143   8.561  13.198  0.00  0.00    +0.000 NA
ATOM     13  C   UNL     1      48.186   7.738  13.669  0.00  0.00    +0.000 A 
ATOM     14  N   UNL     1      48.352   6.908  14.719  0.00  0.00    +0.000 NA
ATOM     15  C   UNL     1      49.559   6.900  15.307  0.00  0.00    +0.000 A 
ENDBRANCH   3  13
ENDBRANCH   1   7
BRANCH   1  16
ATOM     16  C   UNL     1      43.564   4.692  10.801  0.00  0.00    +0.000 C 
BRANCH  16  17
ATOM     17  N   UNL     1      43.857   3.292  10.460  0.00  0.00    +0.000 N 
ATOM     18  C   UNL     1      44.764   3.143   9.400  0.00  0.00    +0.000 A 
ATOM     19  C   UNL     1      45.175   1.865   8.990  0.00  0.00    +0.000 A 
ATOM     20  N   UNL     1      46.035   1.629   7.960  0.00  0.00    +0.000 NA
ATOM     21  C   UNL     1      46.503   2.756   7.358  0.00  0.00    +0.000 A 
ATOM     22  C   UNL     1      46.137   4.025   7.771  0.00  0.00    +0.000 A 
ATOM     23  N   UNL     1      45.269   4.237   8.790  0.00  0.00    +0.000 NA
ATOM     24  H   UNL     1      43.020   2.741  10.297  0.00  0.00    +0.000 HD
BRANCH  21  25
ATOM     25  C   UNL     1      47.421   2.612   6.195  0.00  0.00    +0.000 C 
ATOM     26  N   UNL     1      48.665   2.114   6.468  0.00  0.00    +0.000 N 
ATOM     27  O   UNL     1      47.085   2.908   5.057  0.00  0.00    +0.000 OA
ATOM     28  H   UNL     1      48.917   1.859   7.419  0.00  0.00    +0.000 HD
ATOM     29  H   UNL     1      49.316   1.971   5.711  0.00  0.00    +0.000 HD
ENDBRANCH  21  25
ENDBRANCH  16  17
ENDBRANCH   1  16
TORSDOF 5
ENDMDL
MODEL 5
REMARK VINA RESULT:    -7.013      3.233      7.853
REMARK INTER + INTRA:          -9.860
REMARK INTER:                  -9.282
REMARK INTRA:                  -0.579
REMARK UNBOUND:                -0.798
REMARK  Name = 
REMARK  7 active torsions:
REMARK  status: ('A' for Active; 'I' for Inactive)
REMARK    1  A    between atoms: C_1  and  C_2
REMARK    2  A    between atoms: C_5  and  C_6
REMARK    3  A    between atoms: C_10  and  C_11
REMARK    4  A    between atoms: C_11  and  C_12
REMARK    5  A    between atoms: C_11  and  C_13
REMARK    6  A    between atoms: C_13  and  N_14
REMARK    7  A    between atoms: C_18  and  C_19
REMARK                            x       y       z     vdW  Elec       q    Type
REMARK                         _______ _______ _______ _____ _____    ______ ____
ROOT
ATOM      1  C   UNL     1      45.259   5.636  13.186  0.00  0.00    +0.000 C 
ATOM      2  C   UNL     1      46.454   5.114  14.001  0.00  0.00    +0.000 C 
ENDROOT
BRANCH   1   7
ATOM      3  C   UNL     1      44.899   3.223  10.174  0.00  0.00    +0.000 A 
ATOM      4  C   UNL     1      43.806   2.457  10.609  0.00  0.00    +0.000 A 
ATOM      5  C   UNL     1      43.185   2.715  11.833  0.00  0.00    +0.000 A 
ATOM      6  C   UNL     1      43.644   3.748  12.652  0.00  0.00    +0.000 A 
ATOM      7  C   UNL     1      44.740   4.532  12.265  0.00  0.00    +0.000 A 
ATOM      8  C   UNL     1      45.339   4.254  11.027  0.00  0.00    +0.000 A 
BRANCH   3  13
ATOM      9  C   UNL     1      47.794   2.330   5.372  0.00  0.00    +0.000 C 
ATOM     10  C   UNL     1      46.994   2.541   6.609  0.00  0.00    +0.000 A 
ATOM     11  C   UNL     1      46.727   1.537   7.515  0.00  0.00    +0.000 A 
ATOM     12  N   UNL     1      46.035   1.713   8.657  0.00  0.00    +0.000 NA
ATOM     13  C   UNL     1      45.592   2.962   8.898  0.00  0.00    +0.000 A 
ATOM     14  N   UNL     1      45.783   4.007   8.067  0.00  0.00    +0.000 NA
ATOM     15  C   UNL     1      46.479   3.773   6.942  0.00  0.00    +0.000 A 
ENDBRANCH   3  13
ENDBRANCH   1   7
BRANCH   1  16
ATOM     16  C   UNL     1      45.693   6.954  12.492  0.00  0.00    +0.000 C 
BRANCH  16  17
ATOM     17  N   UNL     1      46.446   7.834  13.399  0.00  0.00    +0.000 N 
ATOM     18  C   UNL     1      47.770   8.065  12.996  0.00  0.00    +0.000 A 
ATOM     19  C   UNL     1      48.599   8.920  13.738  0.00  0.00    +0.000 A 
ATOM     20  N   UNL     1      49.900   9.186  13.431  0.00  0.00    +0.000 NA
ATOM     21  C   UNL     1      50.342   8.565  12.304  0.00  0.00    +0.000 A 
ATOM     22  C   UNL     1      49.529   7.746  11.540  0.00  0.00    +0.000 A 
ATOM     23  N   UNL     1      48.241   7.485  11.871  0.00  0.00    +0.000 NA
ATOM     24  H   UNL     1      46.412   7.527  14.366  0.00  0.00    +0.000 HD
BRANCH  21  25
ATOM     25  C   UNL     1      51.761   8.755  11.897  0.00  0.00    +0.000 C 
ATOM     26  N   UNL     1      52.693   8.057  12.615  0.00  0.00    +0.000 N 
ATOM     27  O   UNL     1      52.083   9.484  10.969  0.00  0.00    +0.000 OA
ATOM     28  H   UNL     1      52.402   7.444  13.372  0.00  0.00    +0.000 HD
ATOM     29  H   UNL     1      53.666   8.130  12.361  0.00  0.00    +0.000 HD
ENDBRANCH  21  25
ENDBRANCH  16  17
ENDBRANCH   1  16
TORSDOF 5
ENDMDL
MODEL 6
REMARK VINA RESULT:    -7.003      3.248      8.208
REMARK INTER + INTRA:          -9.848
REMARK INTER:                  -8.986
REMARK INTRA:                  -0.862
REMARK UNBOUND:                -0.798
REMARK  Name = 
REMARK  7 active torsions:
REMARK  status: ('A' for Active; 'I' for Inactive)
REMARK    1  A    between atoms: C_1  and  C_2
REMARK    2  A    between atoms: C_5  and  C_6
REMARK    3  A    between atoms: C_10  and  C_11
REMARK    4  A    between atoms: C_11  and  C_12
REMARK    5  A    between atoms: C_11  and  C_13
REMARK    6  A    between atoms: C_13  and  N_14
REMARK    7  A    between atoms: C_18  and  C_19
REMARK                            x       y       z     vdW  Elec       q    Type
REMARK                         _______ _______ _______ _____ _____    ______ ____
ROOT
ATOM      1  C   UNL     1      48.536   8.783  12.883  0.00  0.00    +0.000 C 
ATOM      2  C   UNL     1      48.421   9.746  14.076  0.00  0.00    +0.000 C 
ENDROOT
BRANCH   1   7
ATOM      3  C   UNL     1      45.564   6.915  11.239  0.00  0.00    +0.000 A 
ATOM      4  C   UNL     1      44.558   7.881  11.394  0.00  0.00    +0.000 A 
ATOM      5  C   UNL     1      44.825   9.112  11.998  0.00  0.00    +0.000 A 
ATOM      6  C   UNL     1      46.108   9.404  12.461  0.00  0.00    +0.000 A 
ATOM      7  C   UNL     1      47.144   8.467  12.339  0.00  0.00    +0.000 A 
ATOM      8  C   UNL     1      46.846   7.242  11.721  0.00  0.00    +0.000 A 
BRANCH   3  13
ATOM      9  C   UNL     1      44.856   1.786   8.907  0.00  0.00    +0.000 C 
ATOM     10  C   UNL     1      44.991   3.139   9.514  0.00  0.00    +0.000 A 
ATOM     11  C   UNL     1      44.656   3.414  10.823  0.00  0.00    +0.000 A 
ATOM     12  N   UNL     1      44.802   4.621  11.403  0.00  0.00    +0.000 NA
ATOM     13  C   UNL     1      45.311   5.597  10.627  0.00  0.00    +0.000 A 
ATOM     14  N   UNL     1      45.649   5.434   9.331  0.00  0.00    +0.000 NA
ATOM     15  C   UNL     1      45.482   4.210   8.805  0.00  0.00    +0.000 A 
ENDBRANCH   3  13
ENDBRANCH   1   7
BRANCH   1  16
ATOM     16  C   UNL     1      49.385   7.565  13.333  0.00  0.00    +0.000 C 
BRANCH  16  17
ATOM     17  N   UNL     1      49.697   7.609  14.769  0.00  0.00    +0.000 N 
ATOM     18  C   UNL     1      49.137   6.555  15.505  0.00  0.00    +0.000 A 
ATOM     19  C   UNL     1      49.384   6.438  16.882  0.00  0.00    +0.000 A 
ATOM     20  N   UNL     1      48.865   5.459  17.675  0.00  0.00    +0.000 NA
ATOM     21  C   UNL     1      48.090   4.560  17.012  0.00  0.00    +0.000 A 
ATOM     22  C   UNL     1      47.863   4.637  15.649  0.00  0.00    +0.000 A 
ATOM     23  N   UNL     1      48.379   5.627  14.880  0.00  0.00    +0.000 NA
ATOM     24  H   UNL     1      49.474   8.503  15.195  0.00  0.00    +0.000 HD
BRANCH  21  25
ATOM     25  C   UNL     1      47.442   3.469  17.790  0.00  0.00    +0.000 C 
ATOM     26  N   UNL     1      48.081   3.085  18.937  0.00  0.00    +0.000 N 
ATOM     27  O   UNL     1      46.393   2.948  17.437  0.00  0.00    +0.000 OA
ATOM     28  H   UNL     1      48.944   3.543  19.220  0.00  0.00    +0.000 HD
ATOM     29  H   UNL     1      47.669   2.369  19.515  0.00  0.00    +0.000 HD
ENDBRANCH  21  25
ENDBRANCH  16  17
ENDBRANCH   1  16
TORSDOF 5
ENDMDL
MODEL 7
REMARK VINA RESULT:    -6.684      3.726      6.221
REMARK INTER + INTRA:          -9.435
REMARK INTER:                  -8.656
REMARK INTRA:                  -0.780
REMARK UNBOUND:                -0.798
REMARK  Name = 
REMARK  7 active torsions:
REMARK  status: ('A' for Active; 'I' for Inactive)
REMARK    1  A    between atoms: C_1  and  C_2
REMARK    2  A    between atoms: C_5  and  C_6
REMARK    3  A    between atoms: C_10  and  C_11
REMARK    4  A    between atoms: C_11  and  C_12
REMARK    5  A    between atoms: C_11  and  C_13
REMARK    6  A    between atoms: C_13  and  N_14
REMARK    7  A    between atoms: C_18  and  C_19
REMARK                            x       y       z     vdW  Elec       q    Type
REMARK                         _______ _______ _______ _____ _____    ______ ____
ROOT
ATOM      1  C   UNL     1      48.545   6.762  15.988  0.00  0.00    +0.000 C 
ATOM      2  C   UNL     1      49.724   7.579  16.543  0.00  0.00    +0.000 C 
ENDROOT
BRANCH   1   7
ATOM      3  C   UNL     1      49.788   3.373  17.400  0.00  0.00    +0.000 A 
ATOM      4  C   UNL     1      48.560   2.805  17.777  0.00  0.00    +0.000 A 
ATOM      5  C   UNL     1      47.357   3.484  17.570  0.00  0.00    +0.000 A 
ATOM      6  C   UNL     1      47.354   4.748  16.980  0.00  0.00    +0.000 A 
ATOM      7  C   UNL     1      48.556   5.362  16.598  0.00  0.00    +0.000 A 
ATOM      8  C   UNL     1      49.748   4.652  16.812  0.00  0.00    +0.000 A 
BRANCH   3  13
ATOM      9  C   UNL     1      54.687   0.736  18.532  0.00  0.00    +0.000 C 
ATOM     10  C   UNL     1      53.416   1.429  18.185  0.00  0.00    +0.000 A 
ATOM     11  C   UNL     1      52.350   0.794  17.585  0.00  0.00    +0.000 A 
ATOM     12  N   UNL     1      51.179   1.393  17.294  0.00  0.00    +0.000 NA
ATOM     13  C   UNL     1      51.078   2.694  17.625  0.00  0.00    +0.000 A 
ATOM     14  N   UNL     1      52.069   3.410  18.195  0.00  0.00    +0.000 NA
ATOM     15  C   UNL     1      53.215   2.762  18.462  0.00  0.00    +0.000 A 
ENDBRANCH   3  13
ENDBRANCH   1   7
BRANCH   1  16
ATOM     16  C   UNL     1      48.603   6.831  14.439  0.00  0.00    +0.000 C 
BRANCH  16  17
ATOM     17  N   UNL     1      47.368   7.383  13.863  0.00  0.00    +0.000 N 
ATOM     18  C   UNL     1      46.479   6.407  13.386  0.00  0.00    +0.000 A 
ATOM     19  C   UNL     1      45.237   6.779  12.848  0.00  0.00    +0.000 A 
ATOM     20  N   UNL     1      44.324   5.901  12.346  0.00  0.00    +0.000 NA
ATOM     21  C   UNL     1      44.702   4.597  12.431  0.00  0.00    +0.000 A 
ATOM     22  C   UNL     1      45.907   4.208  12.991  0.00  0.00    +0.000 A 
ATOM     23  N   UNL     1      46.807   5.100  13.473  0.00  0.00    +0.000 NA
ATOM     24  H   UNL     1      47.542   8.088  13.154  0.00  0.00    +0.000 HD
BRANCH  21  25
ATOM     25  C   UNL     1      43.795   3.556  11.877  0.00  0.00    +0.000 C 
ATOM     26  N   UNL     1      43.939   2.296  12.390  0.00  0.00    +0.000 N 
ATOM     27  O   UNL     1      42.958   3.807  11.020  0.00  0.00    +0.000 OA
ATOM     28  H   UNL     1      44.629   2.114  13.113  0.00  0.00    +0.000 HD
ATOM     29  H   UNL     1      43.329   1.561  12.068  0.00  0.00    +0.000 HD
ENDBRANCH  21  25
ENDBRANCH  16  17
ENDBRANCH   1  16
TORSDOF 5
ENDMDL
MODEL 8
REMARK VINA RESULT:    -6.571      3.870      6.432
REMARK INTER + INTRA:          -9.290
REMARK INTER:                  -8.701
REMARK INTRA:                  -0.589
REMARK UNBOUND:                -0.798
REMARK  Name = 
REMARK  7 active torsions:
REMARK  status: ('A' for Active; 'I' for Inactive)
REMARK    1  A    between atoms: C_1  and  C_2
REMARK    2  A    between atoms: C_5  and  C_6
REMARK    3  A    between atoms: C_10  and  C_11
REMARK    4  A    between atoms: C_11  and  C_12
REMARK    5  A    between atoms: C_11  and  C_13
REMARK    6  A    between atoms: C_13  and  N_14
REMARK    7  A    between atoms: C_18  and  C_19
REMARK                            x       y       z     vdW  Elec       q    Type
REMARK                         _______ _______ _______ _____ _____    ______ ____
ROOT
ATOM      1  C   UNL     1      48.007   3.933  17.348  0.00  0.00    +0.000 C 
ATOM      2  C   UNL     1      47.186   5.069  17.981  0.00  0.00    +0.000 C 
ENDROOT
BRANCH   1   7
ATOM      3  C   UNL     1      51.846   3.589  17.757  0.00  0.00    +0.000 A 
ATOM      4  C   UNL     1      52.237   4.907  17.475  0.00  0.00    +0.000 A 
ATOM      5  C   UNL     1      51.293   5.892  17.175  0.00  0.00    +0.000 A 
ATOM      6  C   UNL     1      49.933   5.579  17.151  0.00  0.00    +0.000 A 
ATOM      7  C   UNL     1      49.495   4.273  17.414  0.00  0.00    +0.000 A 
ATOM      8  C   UNL     1      50.467   3.308  17.720  0.00  0.00    +0.000 A 
BRANCH   3  13
ATOM      9  C   UNL     1      55.469  -0.556  19.150  0.00  0.00    +0.000 C 
ATOM     10  C   UNL     1      54.542   0.534  18.738  0.00  0.00    +0.000 A 
ATOM     11  C   UNL     1      53.469   0.333  17.897  0.00  0.00    +0.000 A 
ATOM     12  N   UNL     1      52.598   1.296  17.539  0.00  0.00    +0.000 NA
ATOM     13  C   UNL     1      52.818   2.520  18.055  0.00  0.00    +0.000 A 
ATOM     14  N   UNL     1      53.849   2.823  18.871  0.00  0.00    +0.000 NA
ATOM     15  C   UNL     1      54.687   1.824  19.194  0.00  0.00    +0.000 A 
ENDBRANCH   3  13
ENDBRANCH   1   7
BRANCH   1  16
ATOM     16  C   UNL     1      47.432   3.660  15.933  0.00  0.00    +0.000 C 
BRANCH  16  17
ATOM     17  N   UNL     1      47.037   4.900  15.248  0.00  0.00    +0.000 N 
ATOM     18  C   UNL     1      46.395   4.689  14.019  0.00  0.00    +0.000 A 
ATOM     19  C   UNL     1      45.920   5.777  13.269  0.00  0.00    +0.000 A 
ATOM     20  N   UNL     1      45.303   5.665  12.059  0.00  0.00    +0.000 NA
ATOM     21  C   UNL     1      45.152   4.383  11.629  0.00  0.00    +0.000 A 
ATOM     22  C   UNL     1      45.582   3.296  12.371  0.00  0.00    +0.000 A 
ATOM     23  N   UNL     1      46.205   3.430  13.567  0.00  0.00    +0.000 NA
ATOM     24  H   UNL     1      47.804   5.557  15.145  0.00  0.00    +0.000 HD
BRANCH  21  25
ATOM     25  C   UNL     1      44.525   4.148  10.301  0.00  0.00    +0.000 C 
ATOM     26  N   UNL     1      44.874   5.019   9.306  0.00  0.00    +0.000 N 
ATOM     27  O   UNL     1      43.748   3.224  10.099  0.00  0.00    +0.000 OA
ATOM     28  H   UNL     1      45.533   5.770   9.492  0.00  0.00    +0.000 HD
ATOM     29  H   UNL     1      44.498   4.887   8.381  0.00  0.00    +0.000 HD
ENDBRANCH  21  25
ENDBRANCH  16  17
ENDBRANCH   1  16
TORSDOF 5
ENDMDL
MODEL 9
REMARK VINA RESULT:    -6.162      3.794      6.538
REMARK INTER + INTRA:          -8.761
REMARK INTER:                  -8.139
REMARK INTRA:                  -0.621
REMARK UNBOUND:                -0.798
REMARK  Name = 
REMARK  7 active torsions:
REMARK  status: ('A' for Active; 'I' for Inactive)
REMARK    1  A    between atoms: C_1  and  C_2
REMARK    2  A    between atoms: C_5  and  C_6
REMARK    3  A    between atoms: C_10  and  C_11
REMARK    4  A    between atoms: C_11  and  C_12
REMARK    5  A    between atoms: C_11  and  C_13
REMARK    6  A    between atoms: C_13  and  N_14
REMARK    7  A    between atoms: C_18  and  C_19
REMARK                            x       y       z     vdW  Elec       q    Type
REMARK                         _______ _______ _______ _____ _____    ______ ____
ROOT
ATOM      1  C   UNL     1      47.957   3.845  17.327  0.00  0.00    +0.000 C 
ATOM      2  C   UNL     1      47.826   5.315  17.759  0.00  0.00    +0.000 C 
ENDROOT
BRANCH   1   7
ATOM      3  C   UNL     1      51.788   3.913  17.908  0.00  0.00    +0.000 A 
ATOM      4  C   UNL     1      52.094   2.566  17.658  0.00  0.00    +0.000 A 
ATOM      5  C   UNL     1      51.098   1.655  17.295  0.00  0.00    +0.000 A 
ATOM      6  C   UNL     1      49.772   2.073  17.174  0.00  0.00    +0.000 A 
ATOM      7  C   UNL     1      49.417   3.406  17.426  0.00  0.00    +0.000 A 
ATOM      8  C   UNL     1      50.440   4.299  17.781  0.00  0.00    +0.000 A 
BRANCH   3  13
ATOM      9  C   UNL     1      55.775   7.742  19.208  0.00  0.00    +0.000 C 
ATOM     10  C   UNL     1      54.721   6.732  18.917  0.00  0.00    +0.000 A 
ATOM     11  C   UNL     1      53.372   7.008  18.990  0.00  0.00    +0.000 A 
ATOM     12  N   UNL     1      52.402   6.120  18.699  0.00  0.00    +0.000 NA
ATOM     13  C   UNL     1      52.811   4.895  18.314  0.00  0.00    +0.000 A 
ATOM     14  N   UNL     1      54.105   4.521  18.231  0.00  0.00    +0.000 NA
ATOM     15  C   UNL     1      55.029   5.447  18.534  0.00  0.00    +0.000 A 
ENDBRANCH   3  13
ENDBRANCH   1   7
BRANCH   1  16
ATOM     16  C   UNL     1      47.293   3.696  15.933  0.00  0.00    +0.000 C 
BRANCH  16  17
ATOM     17  N   UNL     1      47.239   4.974  15.207  0.00  0.00    +0.000 N 
ATOM     18  C   UNL     1      46.580   4.898  13.971  0.00  0.00    +0.000 A 
ATOM     19  C   UNL     1      46.410   6.047  13.183  0.00  0.00    +0.000 A 
ATOM     20  N   UNL     1      45.800   6.060  11.965  0.00  0.00    +0.000 NA
ATOM     21  C   UNL     1      45.328   4.848  11.567  0.00  0.00    +0.000 A 
ATOM     22  C   UNL     1      45.454   3.710  12.346  0.00  0.00    +0.000 A 
ATOM     23  N   UNL     1      46.076   3.717  13.550  0.00  0.00    +0.000 NA
ATOM     24  H   UNL     1      48.151   5.407  15.101  0.00  0.00    +0.000 HD
BRANCH  21  25
ATOM     25  C   UNL     1      44.677   4.741  10.233  0.00  0.00    +0.000 C 
ATOM     26  N   UNL     1      45.479   4.973   9.150  0.00  0.00    +0.000 N 
ATOM     27  O   UNL     1      43.495   4.452  10.104  0.00  0.00    +0.000 OA
ATOM     28  H   UNL     1      46.462   5.196   9.281  0.00  0.00    +0.000 HD
ATOM     29  H   UNL     1      45.093   4.886   8.223  0.00  0.00    +0.000 HD
ENDBRANCH  21  25
ENDBRANCH  16  17
ENDBRANCH   1  16
TORSDOF 5
ENDMDL
