MODEL 1
REMARK VINA RESULT:    -8.406      0.000      0.000
REMARK INTER + INTRA:         -11.346
REMARK INTER:                 -10.618
REMARK INTRA:                  -0.728
REMARK UNBOUND:                -0.728
REMARK  Name = 
REMARK  5 active torsions:
REMARK  status: ('A' for Active; 'I' for Inactive)
REMARK    1  A    between atoms: C_2  and  C_3
REMARK    2  A    between atoms: N_7  and  C_8
REMARK    3  A    between atoms: C_8  and  C_9
REMARK    4  A    between atoms: C_13  and  C_14
REMARK    5  A    between atoms: C_24  and  N_25
REMARK                            x       y       z     vdW  Elec       q    Type
REMARK                         _______ _______ _______ _____ _____    ______ ____
ROOT
ATOM      1  C   UNL     1      44.003   4.803  11.144  0.00  0.00    +0.000 C 
ATOM      2  C   UNL     1      42.699   4.851  11.931  0.00  0.00    +0.000 C 
ATOM      3  C   UNL     1      43.036   5.956  10.986  0.00  0.00    +0.000 C 
ENDROOT
BRANCH   1   8
ATOM      4  C   UNL     1      46.754   2.723   7.321  0.00  0.00    +0.000 A 
ATOM      5  N   UNL     1      46.528   4.053   7.503  0.00  0.00    +0.000 NA
ATOM      6  C   UNL     1      45.677   4.355   8.518  0.00  0.00    +0.000 A 
ATOM      7  C   UNL     1      45.080   3.391   9.321  0.00  0.00    +0.000 A 
ATOM      8  N   UNL     1      44.069   3.642  10.244  0.00  0.00    +0.000 N 
ATOM      9  N   UNL     1      45.365   2.078   9.149  0.00  0.00    +0.000 NA
ATOM     10  C   UNL     1      46.209   1.741   8.151  0.00  0.00    +0.000 A 
ATOM     11  H   UNL     1      43.888   2.745  10.696  0.00  0.00    +0.000 HD
BRANCH  10  12
ATOM     12  N   UNL     1      46.392   0.370   7.986  0.00  0.00    +0.000 N 
ATOM     13  H   UNL     1      46.196  -0.081   8.875  0.00  0.00    +0.000 HD
ATOM     14  H   UNL     1      47.305   0.111   7.621  0.00  0.00    +0.000 HD
ENDBRANCH  10  12
BRANCH   4  16
ATOM     15  N   UNL     1      48.253   2.058   5.308  0.00  0.00    +0.000 NA
ATOM     16  C   UNL     1      47.574   2.372   6.203  0.00  0.00    +0.000 C 
ENDBRANCH   4  16
ENDBRANCH   1   8
BRANCH   1  17
ATOM     17  C   UNL     1      45.320   5.047  11.870  0.00  0.00    +0.000 A 
ATOM     18  C   UNL     1      45.726   4.255  12.956  0.00  0.00    +0.000 A 
ATOM     19  C   UNL     1      46.848   4.592  13.714  0.00  0.00    +0.000 A 
ATOM     20  C   UNL     1      47.573   5.745  13.415  0.00  0.00    +0.000 A 
ATOM     21  C   UNL     1      47.209   6.571  12.339  0.00  0.00    +0.000 A 
ATOM     22  C   UNL     1      46.107   6.173  11.560  0.00  0.00    +0.000 A 
BRANCH  21  23
ATOM     23  C   UNL     1      47.896   7.847  12.063  0.00  0.00    +0.000 A 
ATOM     24  C   UNL     1      49.243   7.901  11.699  0.00  0.00    +0.000 A 
ATOM     25  C   UNL     1      49.846   9.138  11.488  0.00  0.00    +0.000 A 
ATOM     26  C   UNL     1      49.096  10.294  11.647  0.00  0.00    +0.000 A 
ATOM     27  C   UNL     1      47.771  10.162  12.023  0.00  0.00    +0.000 A 
ATOM     28  N   UNL     1      47.161   8.975  12.238  0.00  0.00    +0.000 NA
ENDBRANCH  21  23
ENDBRANCH   1  17
TORSDOF 5
ENDMDL
MODEL 2
REMARK VINA RESULT:    -7.785      2.020      3.866
REMARK INTER + INTRA:         -10.561
REMARK INTER:                 -10.125
REMARK INTRA:                  -0.436
REMARK UNBOUND:                -0.728
REMARK  Name = 
REMARK  5 active torsions:
REMARK  status: ('A' for Active; 'I' for Inactive)
REMARK    1  A    between atoms: C_2  and  C_3
REMARK    2  A    between atoms: N_7  and  C_8
REMARK    3  A    between atoms: C_8  and  C_9
REMARK    4  A    between atoms: C_13  and  C_14
REMARK    5  A    between atoms: C_24  and  N_25
REMARK                            x       y       z     vdW  Elec       q    Type
REMARK                         _______ _______ _______ _____ _____    ______ ____
ROOT
ATOM      1  C   UNL     1      43.899   5.091  11.596  0.00  0.00    +0.000 C 
ATOM      2  C   UNL     1      42.631   5.119  12.439  0.00  0.00    +0.000 C 
ATOM      3  C   UNL     1      42.867   6.184  11.420  0.00  0.00    +0.000 C 
ENDROOT
BRANCH   1   8
ATOM      4  C   UNL     1      46.250   3.125   7.458  0.00  0.00    +0.000 A 
ATOM      5  N   UNL     1      45.863   4.421   7.610  0.00  0.00    +0.000 NA
ATOM      6  C   UNL     1      45.158   4.680   8.741  0.00  0.00    +0.000 A 
ATOM      7  C   UNL     1      44.854   3.707   9.686  0.00  0.00    +0.000 A 
ATOM      8  N   UNL     1      43.985   3.886  10.759  0.00  0.00    +0.000 N 
ATOM      9  N   UNL     1      45.298   2.435   9.534  0.00  0.00    +0.000 NA
ATOM     10  C   UNL     1      46.004   2.143   8.421  0.00  0.00    +0.000 A 
ATOM     11  H   UNL     1      44.019   3.009  11.280  0.00  0.00    +0.000 HD
BRANCH  10  12
ATOM     12  N   UNL     1      46.359   0.802   8.296  0.00  0.00    +0.000 N 
ATOM     13  H   UNL     1      45.997   0.306   9.106  0.00  0.00    +0.000 HD
ATOM     14  H   UNL     1      47.355   0.643   8.166  0.00  0.00    +0.000 HD
ENDBRANCH  10  12
BRANCH   4  16
ATOM     15  N   UNL     1      47.442   2.573   5.219  0.00  0.00    +0.000 NA
ATOM     16  C   UNL     1      46.915   2.805   6.232  0.00  0.00    +0.000 C 
ENDBRANCH   4  16
ENDBRANCH   1   8
BRANCH   1  17
ATOM     17  C   UNL     1      45.233   5.442  12.244  0.00  0.00    +0.000 A 
ATOM     18  C   UNL     1      46.193   6.227  11.587  0.00  0.00    +0.000 A 
ATOM     19  C   UNL     1      47.471   6.398  12.121  0.00  0.00    +0.000 A 
ATOM     20  C   UNL     1      47.821   5.766  13.314  0.00  0.00    +0.000 A 
ATOM     21  C   UNL     1      46.896   4.971  14.011  0.00  0.00    +0.000 A 
ATOM     22  C   UNL     1      45.600   4.864  13.475  0.00  0.00    +0.000 A 
BRANCH  21  23
ATOM     23  C   UNL     1      47.270   4.212  15.219  0.00  0.00    +0.000 A 
ATOM     24  C   UNL     1      47.100   4.731  16.504  0.00  0.00    +0.000 A 
ATOM     25  C   UNL     1      47.507   3.982  17.605  0.00  0.00    +0.000 A 
ATOM     26  C   UNL     1      48.076   2.733  17.402  0.00  0.00    +0.000 A 
ATOM     27  C   UNL     1      48.225   2.290  16.099  0.00  0.00    +0.000 A 
ATOM     28  N   UNL     1      47.842   2.998  15.013  0.00  0.00    +0.000 NA
ENDBRANCH  21  23
ENDBRANCH   1  17
TORSDOF 5
ENDMDL
MODEL 3
REMARK VINA RESULT:    -7.036      3.066      6.969
REMARK INTER + INTRA:          -9.616
REMARK INTER:                  -9.814
REMARK INTRA:                   0.199
REMARK UNBOUND:                -0.728
REMARK  Name = 
REMARK  5 active torsions:
REMARK  status: ('A' for Active; 'I' for Inactive)
REMARK    1  A    between atoms: C_2  and  C_3
REMARK    2  A    between atoms: N_7  and  C_8
REMARK    3  A    between atoms: C_8  and  C_9
REMARK    4  A    between atoms: C_13  and  C_14
REMARK    5  A    between atoms: C_24  and  N_25
REMARK                            x       y       z     vdW  Elec       q    Type
REMARK                         _______ _______ _______ _____ _____    ______ ____
ROOT
ATOM      1  C   UNL     1      45.305   6.137  12.178  0.00  0.00    +0.000 C 
ATOM      2  C   UNL     1      46.479   6.899  11.577  0.00  0.00    +0.000 C 
ATOM      3  C   UNL     1      45.116   7.509  11.570  0.00  0.00    +0.000 C 
ENDROOT
BRANCH   1   8
ATOM      4  C   UNL     1      48.034   3.358  15.546  0.00  0.00    +0.000 A 
ATOM      5  N   UNL     1      47.612   2.932  14.324  0.00  0.00    +0.000 NA
ATOM      6  C   UNL     1      46.809   3.803  13.660  0.00  0.00    +0.000 A 
ATOM      7  C   UNL     1      46.444   5.042  14.174  0.00  0.00    +0.000 A 
ATOM      8  N   UNL     1      45.483   5.881  13.615  0.00  0.00    +0.000 N 
ATOM      9  N   UNL     1      46.922   5.460  15.371  0.00  0.00    +0.000 NA
ATOM     10  C   UNL     1      47.725   4.621  16.057  0.00  0.00    +0.000 A 
ATOM     11  H   UNL     1      45.488   6.719  14.197  0.00  0.00    +0.000 HD
BRANCH  10  12
ATOM     12  N   UNL     1      48.114   5.086  17.311  0.00  0.00    +0.000 N 
ATOM     13  H   UNL     1      47.444   5.793  17.603  0.00  0.00    +0.000 HD
ATOM     14  H   UNL     1      49.071   5.428  17.353  0.00  0.00    +0.000 HD
ENDBRANCH  10  12
BRANCH   4  16
ATOM     15  N   UNL     1      49.407   1.646  16.934  0.00  0.00    +0.000 NA
ATOM     16  C   UNL     1      48.807   2.423  16.306  0.00  0.00    +0.000 C 
ENDBRANCH   4  16
ENDBRANCH   1   8
BRANCH   1  17
ATOM     17  C   UNL     1      44.746   4.926  11.441  0.00  0.00    +0.000 A 
ATOM     18  C   UNL     1      43.775   4.090  12.015  0.00  0.00    +0.000 A 
ATOM     19  C   UNL     1      43.398   2.896  11.401  0.00  0.00    +0.000 A 
ATOM     20  C   UNL     1      44.004   2.501  10.208  0.00  0.00    +0.000 A 
ATOM     21  C   UNL     1      44.980   3.302   9.592  0.00  0.00    +0.000 A 
ATOM     22  C   UNL     1      45.298   4.526  10.208  0.00  0.00    +0.000 A 
BRANCH  21  23
ATOM     23  C   UNL     1      45.708   2.862   8.387  0.00  0.00    +0.000 A 
ATOM     24  C   UNL     1      46.194   1.560   8.248  0.00  0.00    +0.000 A 
ATOM     25  C   UNL     1      46.908   1.214   7.103  0.00  0.00    +0.000 A 
ATOM     26  C   UNL     1      47.123   2.173   6.123  0.00  0.00    +0.000 A 
ATOM     27  C   UNL     1      46.623   3.446   6.338  0.00  0.00    +0.000 A 
ATOM     28  N   UNL     1      45.931   3.809   7.441  0.00  0.00    +0.000 NA
ENDBRANCH  21  23
ENDBRANCH   1  17
TORSDOF 5
ENDMDL
MODEL 4
REMARK VINA RESULT:    -6.576      3.384      8.088
REMARK INTER + INTRA:          -9.034
REMARK INTER:                  -8.234
REMARK INTRA:                  -0.800
REMARK UNBOUND:                -0.728
REMARK  Name = 
REMARK  5 active torsions:
REMARK  status: ('A' for Active; 'I' for Inactive)
REMARK    1  A    between atoms: C_2  and  C_3
REMARK    2  A    between atoms: N_7  and  C_8
REMARK    3  A    between atoms: C_8  and  C_9
REMARK    4  A    between atoms: C_13  and  C_14
REMARK    5  A    between atoms: C_24  and  N_25
REMARK                            x       y       z     vdW  Elec       q    Type
REMARK                         _______ _______ _______ _____ _____    ______ ____
ROOT
ATOM      1  C   UNL     1      49.072   7.912  12.514  0.00  0.00    +0.000 C 
ATOM      2  C   UNL     1      50.098   7.990  11.390  0.00  0.00    +0.000 C 
ATOM      3  C   UNL     1      49.796   9.204  12.204  0.00  0.00    +0.000 C 
ENDROOT
BRANCH   1   8
ATOM      4  C   UNL     1      48.635   6.962  17.556  0.00  0.00    +0.000 A 
ATOM      5  N   UNL     1      48.737   8.194  16.986  0.00  0.00    +0.000 NA
ATOM      6  C   UNL     1      48.958   8.189  15.647  0.00  0.00    +0.000 A 
ATOM      7  C   UNL     1      49.066   7.023  14.899  0.00  0.00    +0.000 A 
ATOM      8  N   UNL     1      49.471   6.967  13.568  0.00  0.00    +0.000 N 
ATOM      9  N   UNL     1      48.907   5.811  15.485  0.00  0.00    +0.000 NA
ATOM     10  C   UNL     1      48.684   5.779  16.815  0.00  0.00    +0.000 A 
ATOM     11  H   UNL     1      49.398   5.984  13.306  0.00  0.00    +0.000 HD
BRANCH  10  12
ATOM     12  N   UNL     1      48.610   4.498  17.359  0.00  0.00    +0.000 N 
ATOM     13  H   UNL     1      48.626   4.588  18.371  0.00  0.00    +0.000 HD
ATOM     14  H   UNL     1      49.324   3.857  17.022  0.00  0.00    +0.000 HD
ENDBRANCH  10  12
BRANCH   4  16
ATOM     15  N   UNL     1      48.389   6.882  20.139  0.00  0.00    +0.000 NA
ATOM     16  C   UNL     1      48.494   6.936  18.979  0.00  0.00    +0.000 C 
ENDBRANCH   4  16
ENDBRANCH   1   8
BRANCH   1  17
ATOM     17  C   UNL     1      47.593   7.798  12.166  0.00  0.00    +0.000 A 
ATOM     18  C   UNL     1      46.636   8.676  12.700  0.00  0.00    +0.000 A 
ATOM     19  C   UNL     1      45.272   8.458  12.507  0.00  0.00    +0.000 A 
ATOM     20  C   UNL     1      44.836   7.341  11.795  0.00  0.00    +0.000 A 
ATOM     21  C   UNL     1      45.753   6.433  11.239  0.00  0.00    +0.000 A 
ATOM     22  C   UNL     1      47.122   6.712  11.403  0.00  0.00    +0.000 A 
BRANCH  21  23
ATOM     23  C   UNL     1      45.319   5.193  10.568  0.00  0.00    +0.000 A 
ATOM     24  C   UNL     1      45.589   4.945   9.221  0.00  0.00    +0.000 A 
ATOM     25  C   UNL     1      45.121   3.772   8.633  0.00  0.00    +0.000 A 
ATOM     26  C   UNL     1      44.392   2.875   9.400  0.00  0.00    +0.000 A 
ATOM     27  C   UNL     1      44.152   3.195  10.724  0.00  0.00    +0.000 A 
ATOM     28  N   UNL     1      44.591   4.327  11.318  0.00  0.00    +0.000 NA
ENDBRANCH  21  23
ENDBRANCH   1  17
TORSDOF 5
ENDMDL
MODEL 5
REMARK VINA RESULT:    -6.377      1.935      6.980
REMARK INTER + INTRA:          -8.783
REMARK INTER:                  -8.411
REMARK INTRA:                  -0.372
REMARK UNBOUND:                -0.728
REMARK  Name = 
REMARK  5 active torsions:
REMARK  status: ('A' for Active; 'I' for Inactive)
REMARK    1  A    between atoms: C_2  and  C_3
REMARK    2  A    between atoms: N_7  and  C_8
REMARK    3  A    between atoms: C_8  and  C_9
REMARK    4  A    between atoms: C_13  and  C_14
REMARK    5  A    between atoms: C_24  and  N_25
REMARK                            x       y       z     vdW  Elec       q    Type
REMARK                         _______ _______ _______ _____ _____    ______ ____
ROOT
ATOM      1  C   UNL     1      44.700   6.195  11.477  0.00  0.00    +0.000 C 
ATOM      2  C   UNL     1      43.583   7.230  11.408  0.00  0.00    +0.000 C 
ATOM      3  C   UNL     1      43.905   6.571  12.708  0.00  0.00    +0.000 C 
ENDROOT
BRANCH   1   8
ATOM      4  C   UNL     1      48.968   8.233  13.512  0.00  0.00    +0.000 A 
ATOM      5  N   UNL     1      47.703   8.408  13.983  0.00  0.00    +0.000 NA
ATOM      6  C   UNL     1      46.725   7.864  13.213  0.00  0.00    +0.000 A 
ATOM      7  C   UNL     1      46.982   7.174  12.034  0.00  0.00    +0.000 A 
ATOM      8  N   UNL     1      46.010   6.764  11.126  0.00  0.00    +0.000 N 
ATOM      9  N   UNL     1      48.255   6.971  11.618  0.00  0.00    +0.000 NA
ATOM     10  C   UNL     1      49.252   7.495  12.360  0.00  0.00    +0.000 A 
ATOM     11  H   UNL     1      46.516   6.250  10.405  0.00  0.00    +0.000 HD
BRANCH  10  12
ATOM     12  N   UNL     1      50.528   7.314  11.829  0.00  0.00    +0.000 N 
ATOM     13  H   UNL     1      50.452   7.352  10.817  0.00  0.00    +0.000 HD
ATOM     14  H   UNL     1      50.996   6.468  12.145  0.00  0.00    +0.000 HD
ENDBRANCH  10  12
BRANCH   4  16
ATOM     15  N   UNL     1      50.866   9.364  14.876  0.00  0.00    +0.000 NA
ATOM     16  C   UNL     1      50.010   8.873  14.255  0.00  0.00    +0.000 C 
ENDBRANCH   4  16
ENDBRANCH   1   8
BRANCH   1  17
ATOM     17  C   UNL     1      44.482   4.822  10.855  0.00  0.00    +0.000 A 
ATOM     18  C   UNL     1      43.714   3.833  11.491  0.00  0.00    +0.000 A 
ATOM     19  C   UNL     1      43.662   2.530  10.994  0.00  0.00    +0.000 A 
ATOM     20  C   UNL     1      44.398   2.184   9.860  0.00  0.00    +0.000 A 
ATOM     21  C   UNL     1      45.180   3.137   9.186  0.00  0.00    +0.000 A 
ATOM     22  C   UNL     1      45.167   4.454   9.681  0.00  0.00    +0.000 A 
BRANCH  21  23
ATOM     23  C   UNL     1      46.046   2.776   8.047  0.00  0.00    +0.000 A 
ATOM     24  C   UNL     1      46.301   3.662   6.999  0.00  0.00    +0.000 A 
ATOM     25  C   UNL     1      47.095   3.251   5.932  0.00  0.00    +0.000 A 
ATOM     26  C   UNL     1      47.616   1.965   5.932  0.00  0.00    +0.000 A 
ATOM     27  C   UNL     1      47.309   1.138   6.998  0.00  0.00    +0.000 A 
ATOM     28  N   UNL     1      46.538   1.510   8.044  0.00  0.00    +0.000 NA
ENDBRANCH  21  23
ENDBRANCH   1  17
TORSDOF 5
ENDMDL
MODEL 6
REMARK VINA RESULT:    -6.376      3.415      6.363
REMARK INTER + INTRA:          -8.782
REMARK INTER:                  -8.093
REMARK INTRA:                  -0.689
REMARK UNBOUND:                -0.728
REMARK  Name = 
REMARK  5 active torsions:
REMARK  status: ('A' for Active; 'I' for Inactive)
REMARK    1  A    between atoms: C_2  and  C_3
REMARK    2  A    between atoms: N_7  and  C_8
REMARK    3  A    between atoms: C_8  and  C_9
REMARK    4  A    between atoms: C_13  and  C_14
REMARK    5  A    between atoms: C_24  and  N_25
REMARK                            x       y       z     vdW  Elec       q    Type
REMARK                         _______ _______ _______ _____ _____    ______ ____
ROOT
ATOM      1  C   UNL     1      47.952   8.049  13.005  0.00  0.00    +0.000 C 
ATOM      2  C   UNL     1      48.558   9.256  12.302  0.00  0.00    +0.000 C 
ATOM      3  C   UNL     1      49.131   7.898  12.069  0.00  0.00    +0.000 C 
ENDROOT
BRANCH   1   8
ATOM      4  C   UNL     1      44.464   4.355  12.163  0.00  0.00    +0.000 A 
ATOM      5  N   UNL     1      45.789   4.280  11.858  0.00  0.00    +0.000 NA
ATOM      6  C   UNL     1      46.491   5.423  12.069  0.00  0.00    +0.000 A 
ATOM      7  C   UNL     1      45.915   6.587  12.564  0.00  0.00    +0.000 A 
ATOM      8  N   UNL     1      46.550   7.825  12.621  0.00  0.00    +0.000 N 
ATOM      9  N   UNL     1      44.605   6.617  12.908  0.00  0.00    +0.000 NA
ATOM     10  C   UNL     1      43.877   5.497  12.714  0.00  0.00    +0.000 A 
ATOM     11  H   UNL     1      45.882   8.449  13.075  0.00  0.00    +0.000 HD
BRANCH  10  12
ATOM     12  N   UNL     1      42.524   5.625  13.016  0.00  0.00    +0.000 N 
ATOM     13  H   UNL     1      42.100   6.219  12.308  0.00  0.00    +0.000 HD
ATOM     14  H   UNL     1      42.334   5.961  13.957  0.00  0.00    +0.000 HD
ENDBRANCH  10  12
BRANCH   4  16
ATOM     15  N   UNL     1      43.040   2.244  11.656  0.00  0.00    +0.000 NA
ATOM     16  C   UNL     1      43.683   3.194  11.865  0.00  0.00    +0.000 C 
ENDBRANCH   4  16
ENDBRANCH   1   8
BRANCH   1  17
ATOM     17  C   UNL     1      48.177   7.867  14.501  0.00  0.00    +0.000 A 
ATOM     18  C   UNL     1      48.256   8.961  15.378  0.00  0.00    +0.000 A 
ATOM     19  C   UNL     1      48.628   8.791  16.711  0.00  0.00    +0.000 A 
ATOM     20  C   UNL     1      48.954   7.522  17.190  0.00  0.00    +0.000 A 
ATOM     21  C   UNL     1      48.890   6.395  16.354  0.00  0.00    +0.000 A 
ATOM     22  C   UNL     1      48.457   6.592  15.031  0.00  0.00    +0.000 A 
BRANCH  21  23
ATOM     23  C   UNL     1      49.324   5.059  16.806  0.00  0.00    +0.000 A 
ATOM     24  C   UNL     1      50.573   4.844  17.392  0.00  0.00    +0.000 A 
ATOM     25  C   UNL     1      50.942   3.554  17.763  0.00  0.00    +0.000 A 
ATOM     26  C   UNL     1      50.061   2.506  17.540  0.00  0.00    +0.000 A 
ATOM     27  C   UNL     1      48.847   2.794  16.942  0.00  0.00    +0.000 A 
ATOM     28  N   UNL     1      48.465   4.036  16.568  0.00  0.00    +0.000 NA
ENDBRANCH  21  23
ENDBRANCH   1  17
TORSDOF 5
ENDMDL
MODEL 7
REMARK VINA RESULT:    -5.989      3.107      5.645
REMARK INTER + INTRA:          -8.292
REMARK INTER:                  -7.656
REMARK INTRA:                  -0.636
REMARK UNBOUND:                -0.728
REMARK  Name = 
REMARK  5 active torsions:
REMARK  status: ('A' for Active; 'I' for Inactive)
REMARK    1  A    between atoms: C_2  and  C_3
REMARK    2  A    between atoms: N_7  and  C_8
REMARK    3  A    between atoms: C_8  and  C_9
REMARK    4  A    between atoms: C_13  and  C_14
REMARK    5  A    between atoms: C_24  and  N_25
REMARK                            x       y       z     vdW  Elec       q    Type
REMARK                         _______ _______ _______ _____ _____    ______ ____
ROOT
ATOM      1  C   UNL     1      47.094   8.044  13.058  0.00  0.00    +0.000 C 
ATOM      2  C   UNL     1      46.579   9.471  12.914  0.00  0.00    +0.000 C 
ATOM      3  C   UNL     1      47.420   8.874  11.835  0.00  0.00    +0.000 C 
ENDROOT
BRANCH   1   8
ATOM      4  C   UNL     1      45.046   3.993  10.628  0.00  0.00    +0.000 A 
ATOM      5  N   UNL     1      45.609   5.077  10.027  0.00  0.00    +0.000 NA
ATOM      6  C   UNL     1      45.979   6.072  10.873  0.00  0.00    +0.000 A 
ATOM      7  C   UNL     1      45.808   6.001  12.251  0.00  0.00    +0.000 A 
ATOM      8  N   UNL     1      46.001   7.063  13.131  0.00  0.00    +0.000 N 
ATOM      9  N   UNL     1      45.293   4.888  12.825  0.00  0.00    +0.000 NA
ATOM     10  C   UNL     1      44.916   3.877  12.014  0.00  0.00    +0.000 A 
ATOM     11  H   UNL     1      45.843   6.673  14.060  0.00  0.00    +0.000 HD
BRANCH  10  12
ATOM     12  N   UNL     1      44.324   2.799  12.668  0.00  0.00    +0.000 N 
ATOM     13  H   UNL     1      44.158   2.069  11.980  0.00  0.00    +0.000 HD
ATOM     14  H   UNL     1      43.480   3.034  13.184  0.00  0.00    +0.000 HD
ENDBRANCH  10  12
BRANCH   4  16
ATOM     15  N   UNL     1      44.151   2.156   9.026  0.00  0.00    +0.000 NA
ATOM     16  C   UNL     1      44.564   2.968   9.753  0.00  0.00    +0.000 C 
ENDBRANCH   4  16
ENDBRANCH   1   8
BRANCH   1  17
ATOM     17  C   UNL     1      48.203   7.750  14.060  0.00  0.00    +0.000 A 
ATOM     18  C   UNL     1      49.489   8.296  13.926  0.00  0.00    +0.000 A 
ATOM     19  C   UNL     1      50.536   7.887  14.751  0.00  0.00    +0.000 A 
ATOM     20  C   UNL     1      50.322   6.902  15.715  0.00  0.00    +0.000 A 
ATOM     21  C   UNL     1      49.054   6.325  15.892  0.00  0.00    +0.000 A 
ATOM     22  C   UNL     1      48.007   6.799  15.081  0.00  0.00    +0.000 A 
BRANCH  21  23
ATOM     23  C   UNL     1      48.823   5.212  16.833  0.00  0.00    +0.000 A 
ATOM     24  C   UNL     1      47.855   4.234  16.602  0.00  0.00    +0.000 A 
ATOM     25  C   UNL     1      47.657   3.229  17.546  0.00  0.00    +0.000 A 
ATOM     26  C   UNL     1      48.426   3.224  18.701  0.00  0.00    +0.000 A 
ATOM     27  C   UNL     1      49.356   4.235  18.867  0.00  0.00    +0.000 A 
ATOM     28  N   UNL     1      49.566   5.223  17.969  0.00  0.00    +0.000 NA
ENDBRANCH  21  23
ENDBRANCH   1  17
TORSDOF 5
ENDMDL
MODEL 8
REMARK VINA RESULT:    -5.721      2.416      6.974
REMARK INTER + INTRA:          -7.955
REMARK INTER:                  -7.547
REMARK INTRA:                  -0.408
REMARK UNBOUND:                -0.728
REMARK  Name = 
REMARK  5 active torsions:
REMARK  status: ('A' for Active; 'I' for Inactive)
REMARK    1  A    between atoms: C_2  and  C_3
REMARK    2  A    between atoms: N_7  and  C_8
REMARK    3  A    between atoms: C_8  and  C_9
REMARK    4  A    between atoms: C_13  and  C_14
REMARK    5  A    between atoms: C_24  and  N_25
REMARK                            x       y       z     vdW  Elec       q    Type
REMARK                         _______ _______ _______ _____ _____    ______ ____
ROOT
ATOM      1  C   UNL     1      46.256   8.048  12.085  0.00  0.00    +0.000 C 
ATOM      2  C   UNL     1      45.529   9.387  12.074  0.00  0.00    +0.000 C 
ATOM      3  C   UNL     1      46.005   8.813  13.367  0.00  0.00    +0.000 C 
ENDROOT
BRANCH   1   8
ATOM      4  C   UNL     1      51.349   8.612  12.597  0.00  0.00    +0.000 A 
ATOM      5  N   UNL     1      50.401   9.258  13.331  0.00  0.00    +0.000 NA
ATOM      6  C   UNL     1      49.121   9.033  12.938  0.00  0.00    +0.000 A 
ATOM      7  C   UNL     1      48.788   8.204  11.874  0.00  0.00    +0.000 A 
ATOM      8  N   UNL     1      47.514   8.091  11.324  0.00  0.00    +0.000 N 
ATOM      9  N   UNL     1      49.750   7.534  11.194  0.00  0.00    +0.000 NA
ATOM     10  C   UNL     1      51.033   7.732  11.560  0.00  0.00    +0.000 A 
ATOM     11  H   UNL     1      47.595   7.375  10.602  0.00  0.00    +0.000 HD
BRANCH  10  12
ATOM     12  N   UNL     1      51.970   7.071  10.768  0.00  0.00    +0.000 N 
ATOM     13  H   UNL     1      52.660   6.651  11.385  0.00  0.00    +0.000 HD
ATOM     14  H   UNL     1      52.401   7.654  10.055  0.00  0.00    +0.000 HD
ENDBRANCH  10  12
BRANCH   4  16
ATOM     15  N   UNL     1      53.811   9.132  13.237  0.00  0.00    +0.000 NA
ATOM     16  C   UNL     1      52.709   8.902  12.932  0.00  0.00    +0.000 C 
ENDBRANCH   4  16
ENDBRANCH   1   8
BRANCH   1  17
ATOM     17  C   UNL     1      45.468   6.771  11.828  0.00  0.00    +0.000 A 
ATOM     18  C   UNL     1      44.614   6.218  12.796  0.00  0.00    +0.000 A 
ATOM     19  C   UNL     1      44.032   4.964  12.612  0.00  0.00    +0.000 A 
ATOM     20  C   UNL     1      44.311   4.225  11.462  0.00  0.00    +0.000 A 
ATOM     21  C   UNL     1      45.157   4.733  10.463  0.00  0.00    +0.000 A 
ATOM     22  C   UNL     1      45.684   6.024  10.653  0.00  0.00    +0.000 A 
BRANCH  21  23
ATOM     23  C   UNL     1      45.549   3.934   9.286  0.00  0.00    +0.000 A 
ATOM     24  C   UNL     1      45.448   2.542   9.269  0.00  0.00    +0.000 A 
ATOM     25  C   UNL     1      45.870   1.839   8.143  0.00  0.00    +0.000 A 
ATOM     26  C   UNL     1      46.385   2.538   7.061  0.00  0.00    +0.000 A 
ATOM     27  C   UNL     1      46.467   3.916   7.157  0.00  0.00    +0.000 A 
ATOM     28  N   UNL     1      46.069   4.623   8.238  0.00  0.00    +0.000 NA
ENDBRANCH  21  23
ENDBRANCH   1  17
TORSDOF 5
ENDMDL
