MODEL 1
REMARK VINA RESULT:    -8.911      0.000      0.000
REMARK INTER + INTRA:         -14.012
REMARK INTER:                 -12.557
REMARK INTRA:                  -1.455
REMARK UNBOUND:                -1.455
REMARK  Name = 
REMARK  8 active torsions:
REMARK  status: ('A' for Active; 'I' for Inactive)
REMARK    1  A    between atoms: C_1  and  O_2
REMARK    2  A    between atoms: O_2  and  C_3
REMARK    3  A    between atoms: C_10  and  C_11
REMARK    4  A    between atoms: N_13  and  C_14
REMARK    5  A    between atoms: C_14  and  C_15
REMARK    6  A    between atoms: C_18  and  N_19
REMARK    7  A    between atoms: N_19  and  C_20
REMARK    8  A    between atoms: C_20  and  C_21
REMARK                            x       y       z     vdW  Elec       q    Type
REMARK                         _______ _______ _______ _____ _____    ______ ____
ROOT
ATOM      1  C   UNL     1      46.676   7.995  13.116  0.00  0.00    +0.000 C 
ENDROOT
BRANCH   1   2
ATOM      2  C   UNL     1      45.982   7.016  12.204  0.00  0.00    +0.000 A 
ATOM      3  C   UNL     1      44.697   6.541  12.497  0.00  0.00    +0.000 A 
ATOM      4  C   UNL     1      44.039   5.669  11.616  0.00  0.00    +0.000 A 
ATOM      5  C   UNL     1      44.643   5.262  10.424  0.00  0.00    +0.000 A 
ATOM      6  C   UNL     1      45.964   5.660  10.191  0.00  0.00    +0.000 A 
ATOM      7  C   UNL     1      46.623   6.537  11.058  0.00  0.00    +0.000 A 
BRANCH   5   8
ATOM      8  N   UNL     1      44.043   4.421   9.483  0.00  0.00    +0.000 N 
ATOM      9  H   UNL     1      44.117   4.809   8.545  0.00  0.00    +0.000 HD
BRANCH   8  10
ATOM     10  C   UNL     1      44.369   2.998   9.509  0.00  0.00    +0.000 C 
BRANCH  10  11
ATOM     11  C   UNL     1      45.337   2.639   8.396  0.00  0.00    +0.000 A 
ATOM     12  C   UNL     1      45.643   3.590   7.407  0.00  0.00    +0.000 A 
ATOM     13  C   UNL     1      46.602   3.315   6.426  0.00  0.00    +0.000 A 
ATOM     14  C   UNL     1      47.263   2.095   6.432  0.00  0.00    +0.000 A 
ATOM     15  F   UNL     1      48.189   1.841   5.500  0.00  0.00    +0.000 F 
ATOM     16  C   UNL     1      46.984   1.140   7.401  0.00  0.00    +0.000 A 
ATOM     17  C   UNL     1      46.031   1.414   8.385  0.00  0.00    +0.000 A 
ENDBRANCH  10  11
ENDBRANCH   8  10
ENDBRANCH   5   8
ENDBRANCH   1   2
BRANCH   1  20
ATOM     18  C   UNL     1      48.492   6.930  14.386  0.00  0.00    +0.000 C 
ATOM     19  O   UNL     1      49.284   7.108  13.464  0.00  0.00    +0.000 OA
ATOM     20  N   UNL     1      47.189   7.339  14.291  0.00  0.00    +0.000 N 
ATOM     21  H   UNL     1      46.535   7.126  15.029  0.00  0.00    +0.000 HD
BRANCH  18  29
ATOM     22  C   UNL     1      47.261   4.252  16.164  0.00  0.00    +0.000 A 
ATOM     23  N   UNL     1      46.998   3.262  17.038  0.00  0.00    +0.000 NA
ATOM     24  C   UNL     1      47.791   3.140  18.105  0.00  0.00    +0.000 A 
ATOM     25  N   UNL     1      48.839   3.900  18.417  0.00  0.00    +0.000 NA
ATOM     26  C   UNL     1      49.070   4.869  17.516  0.00  0.00    +0.000 A 
ATOM     27  S   UNL     1      50.368   5.938  17.753  0.00  0.00    +0.000 S 
ATOM     28  C   UNL     1      50.004   6.774  16.319  0.00  0.00    +0.000 A 
ATOM     29  C   UNL     1      48.904   6.269  15.635  0.00  0.00    +0.000 A 
ATOM     30  C   UNL     1      48.347   5.126  16.356  0.00  0.00    +0.000 A 
BRANCH  22  32
ATOM     31  C   UNL     1      46.983   3.652  13.916  0.00  0.00    +0.000 C 
ATOM     32  O   UNL     1      46.466   4.357  15.042  0.00  0.00    +0.000 OA
ENDBRANCH  22  32
ENDBRANCH  18  29
ENDBRANCH   1  20
TORSDOF 7
ENDMDL
MODEL 2
REMARK VINA RESULT:    -8.114      0.967      1.413
REMARK INTER + INTRA:         -12.889
REMARK INTER:                 -11.500
REMARK INTRA:                  -1.389
REMARK UNBOUND:                -1.455
REMARK  Name = 
REMARK  8 active torsions:
REMARK  status: ('A' for Active; 'I' for Inactive)
REMARK    1  A    between atoms: C_1  and  O_2
REMARK    2  A    between atoms: O_2  and  C_3
REMARK    3  A    between atoms: C_10  and  C_11
REMARK    4  A    between atoms: N_13  and  C_14
REMARK    5  A    between atoms: C_14  and  C_15
REMARK    6  A    between atoms: C_18  and  N_19
REMARK    7  A    between atoms: N_19  and  C_20
REMARK    8  A    between atoms: C_20  and  C_21
REMARK                            x       y       z     vdW  Elec       q    Type
REMARK                         _______ _______ _______ _____ _____    ______ ____
ROOT
ATOM      1  C   UNL     1      47.602   8.579  13.983  0.00  0.00    +0.000 C 
ENDROOT
BRANCH   1   2
ATOM      2  C   UNL     1      46.784   7.875  12.930  0.00  0.00    +0.000 A 
ATOM      3  C   UNL     1      47.331   6.838  12.163  0.00  0.00    +0.000 A 
ATOM      4  C   UNL     1      46.547   6.155  11.221  0.00  0.00    +0.000 A 
ATOM      5  C   UNL     1      45.203   6.486  11.031  0.00  0.00    +0.000 A 
ATOM      6  C   UNL     1      44.696   7.588  11.726  0.00  0.00    +0.000 A 
ATOM      7  C   UNL     1      45.467   8.268  12.675  0.00  0.00    +0.000 A 
BRANCH   5   8
ATOM      8  N   UNL     1      44.350   5.835  10.135  0.00  0.00    +0.000 N 
ATOM      9  H   UNL     1      44.563   6.092   9.174  0.00  0.00    +0.000 HD
BRANCH   8  10
ATOM     10  C   UNL     1      44.152   4.396  10.280  0.00  0.00    +0.000 C 
BRANCH  10  11
ATOM     11  C   UNL     1      44.949   3.627   9.242  0.00  0.00    +0.000 A 
ATOM     12  C   UNL     1      45.657   4.328   8.249  0.00  0.00    +0.000 A 
ATOM     13  C   UNL     1      46.472   3.646   7.339  0.00  0.00    +0.000 A 
ATOM     14  C   UNL     1      46.590   2.266   7.421  0.00  0.00    +0.000 A 
ATOM     15  F   UNL     1      47.382   1.619   6.557  0.00  0.00    +0.000 F 
ATOM     16  C   UNL     1      45.907   1.549   8.395  0.00  0.00    +0.000 A 
ATOM     17  C   UNL     1      45.097   2.228   9.308  0.00  0.00    +0.000 A 
ENDBRANCH  10  11
ENDBRANCH   8  10
ENDBRANCH   5   8
ENDBRANCH   1   2
BRANCH   1  20
ATOM     18  C   UNL     1      49.101   7.091  15.242  0.00  0.00    +0.000 C 
ATOM     19  O   UNL     1      50.006   7.264  14.430  0.00  0.00    +0.000 OA
ATOM     20  N   UNL     1      47.887   7.705  15.092  0.00  0.00    +0.000 N 
ATOM     21  H   UNL     1      47.132   7.501  15.730  0.00  0.00    +0.000 HD
BRANCH  18  29
ATOM     22  C   UNL     1      47.425   4.318  16.401  0.00  0.00    +0.000 A 
ATOM     23  N   UNL     1      46.963   3.241  17.066  0.00  0.00    +0.000 NA
ATOM     24  C   UNL     1      47.584   2.888  18.195  0.00  0.00    +0.000 A 
ATOM     25  N   UNL     1      48.631   3.489  18.756  0.00  0.00    +0.000 NA
ATOM     26  C   UNL     1      49.064   4.551  18.057  0.00  0.00    +0.000 A 
ATOM     27  S   UNL     1      50.392   5.442  18.626  0.00  0.00    +0.000 S 
ATOM     28  C   UNL     1      50.303   6.510  17.307  0.00  0.00    +0.000 A 
ATOM     29  C   UNL     1      49.277   6.219  16.415  0.00  0.00    +0.000 A 
ATOM     30  C   UNL     1      48.536   5.044  16.868  0.00  0.00    +0.000 A 
BRANCH  22  32
ATOM     31  C   UNL     1      47.034   3.720  14.170  0.00  0.00    +0.000 C 
ATOM     32  O   UNL     1      46.809   4.662  15.215  0.00  0.00    +0.000 OA
ENDBRANCH  22  32
ENDBRANCH  18  29
ENDBRANCH   1  20
TORSDOF 7
ENDMDL
MODEL 3
REMARK VINA RESULT:    -7.989      1.913      2.678
REMARK INTER + INTRA:         -12.713
REMARK INTER:                 -11.718
REMARK INTRA:                  -0.995
REMARK UNBOUND:                -1.455
REMARK  Name = 
REMARK  8 active torsions:
REMARK  status: ('A' for Active; 'I' for Inactive)
REMARK    1  A    between atoms: C_1  and  O_2
REMARK    2  A    between atoms: O_2  and  C_3
REMARK    3  A    between atoms: C_10  and  C_11
REMARK    4  A    between atoms: N_13  and  C_14
REMARK    5  A    between atoms: C_14  and  C_15
REMARK    6  A    between atoms: C_18  and  N_19
REMARK    7  A    between atoms: N_19  and  C_20
REMARK    8  A    between atoms: C_20  and  C_21
REMARK                            x       y       z     vdW  Elec       q    Type
REMARK                         _______ _______ _______ _____ _____    ______ ____
ROOT
ATOM      1  C   UNL     1      47.505   6.762  13.621  0.00  0.00    +0.000 C 
ENDROOT
BRANCH   1   2
ATOM      2  C   UNL     1      46.598   6.050  12.650  0.00  0.00    +0.000 A 
ATOM      3  C   UNL     1      46.309   6.599  11.395  0.00  0.00    +0.000 A 
ATOM      4  C   UNL     1      45.505   5.905  10.478  0.00  0.00    +0.000 A 
ATOM      5  C   UNL     1      44.982   4.647  10.791  0.00  0.00    +0.000 A 
ATOM      6  C   UNL     1      45.192   4.154  12.083  0.00  0.00    +0.000 A 
ATOM      7  C   UNL     1      46.001   4.835  12.999  0.00  0.00    +0.000 A 
BRANCH   5   8
ATOM      8  N   UNL     1      44.198   3.881   9.923  0.00  0.00    +0.000 N 
ATOM      9  H   UNL     1      44.022   4.379   9.053  0.00  0.00    +0.000 HD
BRANCH   8  10
ATOM     10  C   UNL     1      44.575   2.491   9.686  0.00  0.00    +0.000 C 
BRANCH  10  11
ATOM     11  C   UNL     1      45.470   2.368   8.466  0.00  0.00    +0.000 A 
ATOM     12  C   UNL     1      45.666   3.483   7.632  0.00  0.00    +0.000 A 
ATOM     13  C   UNL     1      46.558   3.420   6.555  0.00  0.00    +0.000 A 
ATOM     14  C   UNL     1      47.262   2.249   6.313  0.00  0.00    +0.000 A 
ATOM     15  F   UNL     1      48.124   2.198   5.290  0.00  0.00    +0.000 F 
ATOM     16  C   UNL     1      47.092   1.135   7.124  0.00  0.00    +0.000 A 
ATOM     17  C   UNL     1      46.207   1.197   8.202  0.00  0.00    +0.000 A 
ENDBRANCH  10  11
ENDBRANCH   8  10
ENDBRANCH   5   8
ENDBRANCH   1   2
BRANCH   1  20
ATOM     18  C   UNL     1      48.705   6.026  15.637  0.00  0.00    +0.000 C 
ATOM     19  O   UNL     1      49.735   6.582  15.266  0.00  0.00    +0.000 OA
ATOM     20  N   UNL     1      47.564   6.070  14.883  0.00  0.00    +0.000 N 
ATOM     21  H   UNL     1      46.745   5.553  15.170  0.00  0.00    +0.000 HD
BRANCH  18  29
ATOM     22  C   UNL     1      49.097   6.950  18.929  0.00  0.00    +0.000 A 
ATOM     23  N   UNL     1      49.200   7.034  20.270  0.00  0.00    +0.000 NA
ATOM     24  C   UNL     1      49.045   5.915  20.982  0.00  0.00    +0.000 A 
ATOM     25  N   UNL     1      48.796   4.694  20.513  0.00  0.00    +0.000 NA
ATOM     26  C   UNL     1      48.693   4.657  19.173  0.00  0.00    +0.000 A 
ATOM     27  S   UNL     1      48.378   3.179  18.400  0.00  0.00    +0.000 S 
ATOM     28  C   UNL     1      48.403   3.919  16.870  0.00  0.00    +0.000 A 
ATOM     29  C   UNL     1      48.647   5.288  16.910  0.00  0.00    +0.000 A 
ATOM     30  C   UNL     1      48.820   5.727  18.293  0.00  0.00    +0.000 A 
BRANCH  22  32
ATOM     31  C   UNL     1      47.995   8.833  18.074  0.00  0.00    +0.000 C 
ATOM     32  O   UNL     1      49.219   8.112  18.195  0.00  0.00    +0.000 OA
ENDBRANCH  22  32
ENDBRANCH  18  29
ENDBRANCH   1  20
TORSDOF 7
ENDMDL
MODEL 4
REMARK VINA RESULT:    -7.849      2.019      2.457
REMARK INTER + INTRA:         -12.516
REMARK INTER:                 -11.343
REMARK INTRA:                  -1.173
REMARK UNBOUND:                -1.455
REMARK  Name = 
REMARK  8 active torsions:
REMARK  status: ('A' for Active; 'I' for Inactive)
REMARK    1  A    between atoms: C_1  and  O_2
REMARK    2  A    between atoms: O_2  and  C_3
REMARK    3  A    between atoms: C_10  and  C_11
REMARK    4  A    between atoms: N_13  and  C_14
REMARK    5  A    between atoms: C_14  and  C_15
REMARK    6  A    between atoms: C_18  and  N_19
REMARK    7  A    between atoms: N_19  and  C_20
REMARK    8  A    between atoms: C_20  and  C_21
REMARK                            x       y       z     vdW  Elec       q    Type
REMARK                         _______ _______ _______ _____ _____    ______ ____
ROOT
ATOM      1  C   UNL     1      48.478   6.867  13.712  0.00  0.00    +0.000 C 
ENDROOT
BRANCH   1   2
ATOM      2  C   UNL     1      47.386   6.075  13.039  0.00  0.00    +0.000 A 
ATOM      3  C   UNL     1      46.988   4.827  13.534  0.00  0.00    +0.000 A 
ATOM      4  C   UNL     1      45.937   4.120  12.931  0.00  0.00    +0.000 A 
ATOM      5  C   UNL     1      45.257   4.647  11.829  0.00  0.00    +0.000 A 
ATOM      6  C   UNL     1      45.729   5.844  11.281  0.00  0.00    +0.000 A 
ATOM      7  C   UNL     1      46.769   6.560  11.882  0.00  0.00    +0.000 A 
BRANCH   5   8
ATOM      8  N   UNL     1      44.183   4.019  11.192  0.00  0.00    +0.000 N 
ATOM      9  H   UNL     1      43.327   4.120  11.732  0.00  0.00    +0.000 HD
BRANCH   8  10
ATOM     10  C   UNL     1      43.964   4.281   9.772  0.00  0.00    +0.000 C 
BRANCH  10  11
ATOM     11  C   UNL     1      44.911   3.462   8.913  0.00  0.00    +0.000 A 
ATOM     12  C   UNL     1      45.751   4.111   7.991  0.00  0.00    +0.000 A 
ATOM     13  C   UNL     1      46.696   3.388   7.256  0.00  0.00    +0.000 A 
ATOM     14  C   UNL     1      46.811   2.017   7.443  0.00  0.00    +0.000 A 
ATOM     15  F   UNL     1      47.726   1.331   6.747  0.00  0.00    +0.000 F 
ATOM     16  C   UNL     1      45.998   1.352   8.351  0.00  0.00    +0.000 A 
ATOM     17  C   UNL     1      45.058   2.073   9.090  0.00  0.00    +0.000 A 
ENDBRANCH  10  11
ENDBRANCH   8  10
ENDBRANCH   5   8
ENDBRANCH   1   2
BRANCH   1  20
ATOM     18  C   UNL     1      49.101   6.830  16.091  0.00  0.00    +0.000 C 
ATOM     19  O   UNL     1      50.224   6.412  15.823  0.00  0.00    +0.000 OA
ATOM     20  N   UNL     1      48.183   7.080  15.106  0.00  0.00    +0.000 N 
ATOM     21  H   UNL     1      47.244   7.360  15.347  0.00  0.00    +0.000 HD
BRANCH  18  29
ATOM     22  C   UNL     1      48.873   4.843  18.891  0.00  0.00    +0.000 A 
ATOM     23  N   UNL     1      48.694   4.307  20.114  0.00  0.00    +0.000 NA
ATOM     24  C   UNL     1      48.242   5.103  21.087  0.00  0.00    +0.000 A 
ATOM     25  N   UNL     1      47.938   6.395  20.991  0.00  0.00    +0.000 NA
ATOM     26  C   UNL     1      48.138   6.891  19.758  0.00  0.00    +0.000 A 
ATOM     27  S   UNL     1      47.802   8.526  19.449  0.00  0.00    +0.000 S 
ATOM     28  C   UNL     1      48.269   8.365  17.823  0.00  0.00    +0.000 A 
ATOM     29  C   UNL     1      48.687   7.084  17.481  0.00  0.00    +0.000 A 
ATOM     30  C   UNL     1      48.608   6.202  18.644  0.00  0.00    +0.000 A 
BRANCH  22  32
ATOM     31  C   UNL     1      48.369   3.295  17.207  0.00  0.00    +0.000 C 
ATOM     32  O   UNL     1      49.376   4.033  17.895  0.00  0.00    +0.000 OA
ENDBRANCH  22  32
ENDBRANCH  18  29
ENDBRANCH   1  20
TORSDOF 7
ENDMDL
MODEL 5
REMARK VINA RESULT:    -7.825      1.504      2.167
REMARK INTER + INTRA:         -12.482
REMARK INTER:                 -11.222
REMARK INTRA:                  -1.260
REMARK UNBOUND:                -1.455
REMARK  Name = 
REMARK  8 active torsions:
REMARK  status: ('A' for Active; 'I' for Inactive)
REMARK    1  A    between atoms: C_1  and  O_2
REMARK    2  A    between atoms: O_2  and  C_3
REMARK    3  A    between atoms: C_10  and  C_11
REMARK    4  A    between atoms: N_13  and  C_14
REMARK    5  A    between atoms: C_14  and  C_15
REMARK    6  A    between atoms: C_18  and  N_19
REMARK    7  A    between atoms: N_19  and  C_20
REMARK    8  A    between atoms: C_20  and  C_21
REMARK                            x       y       z     vdW  Elec       q    Type
REMARK                         _______ _______ _______ _____ _____    ______ ____
ROOT
ATOM      1  C   UNL     1      47.136   7.362  13.316  0.00  0.00    +0.000 C 
ENDROOT
BRANCH   1   2
ATOM      2  C   UNL     1      46.429   6.183  12.696  0.00  0.00    +0.000 A 
ATOM      3  C   UNL     1      45.621   6.339  11.563  0.00  0.00    +0.000 A 
ATOM      4  C   UNL     1      45.008   5.229  10.963  0.00  0.00    +0.000 A 
ATOM      5  C   UNL     1      45.195   3.942  11.475  0.00  0.00    +0.000 A 
ATOM      6  C   UNL     1      45.920   3.810  12.664  0.00  0.00    +0.000 A 
ATOM      7  C   UNL     1      46.543   4.911  13.262  0.00  0.00    +0.000 A 
BRANCH   5   8
ATOM      8  N   UNL     1      44.645   2.784  10.918  0.00  0.00    +0.000 N 
ATOM      9  H   UNL     1      43.948   2.376  11.537  0.00  0.00    +0.000 HD
BRANCH   8  10
ATOM     10  C   UNL     1      44.183   2.827   9.534  0.00  0.00    +0.000 C 
BRANCH  10  11
ATOM     11  C   UNL     1      45.336   2.626   8.567  0.00  0.00    +0.000 A 
ATOM     12  C   UNL     1      45.914   1.352   8.428  0.00  0.00    +0.000 A 
ATOM     13  C   UNL     1      46.916   1.122   7.478  0.00  0.00    +0.000 A 
ATOM     14  C   UNL     1      47.337   2.160   6.659  0.00  0.00    +0.000 A 
ATOM     15  F   UNL     1      48.286   1.933   5.742  0.00  0.00    +0.000 F 
ATOM     16  C   UNL     1      46.780   3.427   6.771  0.00  0.00    +0.000 A 
ATOM     17  C   UNL     1      45.777   3.657   7.715  0.00  0.00    +0.000 A 
ENDBRANCH  10  11
ENDBRANCH   8  10
ENDBRANCH   5   8
ENDBRANCH   1   2
BRANCH   1  20
ATOM     18  C   UNL     1      48.837   7.702  15.059  0.00  0.00    +0.000 C 
ATOM     19  O   UNL     1      48.345   8.783  15.373  0.00  0.00    +0.000 OA
ATOM     20  N   UNL     1      48.298   6.942  14.056  0.00  0.00    +0.000 N 
ATOM     21  H   UNL     1      48.752   6.088  13.765  0.00  0.00    +0.000 HD
BRANCH  18  29
ATOM     22  C   UNL     1      49.380   4.975  17.087  0.00  0.00    +0.000 A 
ATOM     23  N   UNL     1      49.863   4.005  17.887  0.00  0.00    +0.000 NA
ATOM     24  C   UNL     1      51.156   4.051  18.218  0.00  0.00    +0.000 A 
ATOM     25  N   UNL     1      52.047   4.966  17.843  0.00  0.00    +0.000 NA
ATOM     26  C   UNL     1      51.526   5.909  17.042  0.00  0.00    +0.000 A 
ATOM     27  S   UNL     1      52.519   7.160  16.467  0.00  0.00    +0.000 S 
ATOM     28  C   UNL     1      51.227   7.861  15.616  0.00  0.00    +0.000 A 
ATOM     29  C   UNL     1      50.027   7.171  15.745  0.00  0.00    +0.000 A 
ATOM     30  C   UNL     1      50.210   6.001  16.601  0.00  0.00    +0.000 A 
BRANCH  22  32
ATOM     31  C   UNL     1      47.577   3.573  16.562  0.00  0.00    +0.000 C 
ATOM     32  O   UNL     1      48.053   4.908  16.713  0.00  0.00    +0.000 OA
ENDBRANCH  22  32
ENDBRANCH  18  29
ENDBRANCH   1  20
TORSDOF 7
ENDMDL
MODEL 6
REMARK VINA RESULT:    -7.716      2.610      3.361
REMARK INTER + INTRA:         -12.329
REMARK INTER:                 -10.968
REMARK INTRA:                  -1.360
REMARK UNBOUND:                -1.455
REMARK  Name = 
REMARK  8 active torsions:
REMARK  status: ('A' for Active; 'I' for Inactive)
REMARK    1  A    between atoms: C_1  and  O_2
REMARK    2  A    between atoms: O_2  and  C_3
REMARK    3  A    between atoms: C_10  and  C_11
REMARK    4  A    between atoms: N_13  and  C_14
REMARK    5  A    between atoms: C_14  and  C_15
REMARK    6  A    between atoms: C_18  and  N_19
REMARK    7  A    between atoms: N_19  and  C_20
REMARK    8  A    between atoms: C_20  and  C_21
REMARK                            x       y       z     vdW  Elec       q    Type
REMARK                         _______ _______ _______ _____ _____    ______ ____
ROOT
ATOM      1  C   UNL     1      48.478   6.702  14.189  0.00  0.00    +0.000 C 
ENDROOT
BRANCH   1   2
ATOM      2  C   UNL     1      47.428   5.934  13.427  0.00  0.00    +0.000 A 
ATOM      3  C   UNL     1      46.984   4.681  13.870  0.00  0.00    +0.000 A 
ATOM      4  C   UNL     1      45.971   3.997  13.182  0.00  0.00    +0.000 A 
ATOM      5  C   UNL     1      45.375   4.550  12.046  0.00  0.00    +0.000 A 
ATOM      6  C   UNL     1      45.895   5.752  11.554  0.00  0.00    +0.000 A 
ATOM      7  C   UNL     1      46.898   6.446  12.240  0.00  0.00    +0.000 A 
BRANCH   5   8
ATOM      8  N   UNL     1      44.342   3.946  11.324  0.00  0.00    +0.000 N 
ATOM      9  H   UNL     1      43.475   3.944  11.857  0.00  0.00    +0.000 HD
BRANCH   8  10
ATOM     10  C   UNL     1      44.126   4.354   9.939  0.00  0.00    +0.000 C 
BRANCH  10  11
ATOM     11  C   UNL     1      45.008   3.559   8.992  0.00  0.00    +0.000 A 
ATOM     12  C   UNL     1      45.785   4.234   8.034  0.00  0.00    +0.000 A 
ATOM     13  C   UNL     1      46.674   3.530   7.214  0.00  0.00    +0.000 A 
ATOM     14  C   UNL     1      46.795   2.155   7.351  0.00  0.00    +0.000 A 
ATOM     15  F   UNL     1      47.656   1.488   6.573  0.00  0.00    +0.000 F 
ATOM     16  C   UNL     1      46.043   1.464   8.292  0.00  0.00    +0.000 A 
ATOM     17  C   UNL     1      45.160   2.165   9.116  0.00  0.00    +0.000 A 
ENDBRANCH  10  11
ENDBRANCH   8  10
ENDBRANCH   5   8
ENDBRANCH   1   2
BRANCH   1  20
ATOM     18  C   UNL     1      49.117   6.264  16.523  0.00  0.00    +0.000 C 
ATOM     19  O   UNL     1      50.223   5.856  16.177  0.00  0.00    +0.000 OA
ATOM     20  N   UNL     1      48.202   6.699  15.603  0.00  0.00    +0.000 N 
ATOM     21  H   UNL     1      47.274   6.968  15.898  0.00  0.00    +0.000 HD
BRANCH  18  29
ATOM     22  C   UNL     1      47.742   8.702  18.526  0.00  0.00    +0.000 A 
ATOM     23  N   UNL     1      47.218   9.453  19.513  0.00  0.00    +0.000 NA
ATOM     24  C   UNL     1      47.098   8.903  20.724  0.00  0.00    +0.000 A 
ATOM     25  N   UNL     1      47.444   7.668  21.081  0.00  0.00    +0.000 NA
ATOM     26  C   UNL     1      47.954   6.951  20.066  0.00  0.00    +0.000 A 
ATOM     27  S   UNL     1      48.451   5.351  20.339  0.00  0.00    +0.000 S 
ATOM     28  C   UNL     1      48.929   5.171  18.718  0.00  0.00    +0.000 A 
ATOM     29  C   UNL     1      48.724   6.306  17.941  0.00  0.00    +0.000 A 
ATOM     30  C   UNL     1      48.139   7.372  18.753  0.00  0.00    +0.000 A 
BRANCH  22  32
ATOM     31  C   UNL     1      48.998  10.055  17.083  0.00  0.00    +0.000 C 
ATOM     32  O   UNL     1      47.832   9.256  17.266  0.00  0.00    +0.000 OA
ENDBRANCH  22  32
ENDBRANCH  18  29
ENDBRANCH   1  20
TORSDOF 7
ENDMDL
MODEL 7
REMARK VINA RESULT:    -7.609      2.150      3.537
REMARK INTER + INTRA:         -12.178
REMARK INTER:                 -10.962
REMARK INTRA:                  -1.216
REMARK UNBOUND:                -1.455
REMARK  Name = 
REMARK  8 active torsions:
REMARK  status: ('A' for Active; 'I' for Inactive)
REMARK    1  A    between atoms: C_1  and  O_2
REMARK    2  A    between atoms: O_2  and  C_3
REMARK    3  A    between atoms: C_10  and  C_11
REMARK    4  A    between atoms: N_13  and  C_14
REMARK    5  A    between atoms: C_14  and  C_15
REMARK    6  A    between atoms: C_18  and  N_19
REMARK    7  A    between atoms: N_19  and  C_20
REMARK    8  A    between atoms: C_20  and  C_21
REMARK                            x       y       z     vdW  Elec       q    Type
REMARK                         _______ _______ _______ _____ _____    ______ ____
ROOT
ATOM      1  C   UNL     1      47.219   3.823  14.979  0.00  0.00    +0.000 C 
ENDROOT
BRANCH   1   2
ATOM      2  C   UNL     1      46.555   4.299  13.712  0.00  0.00    +0.000 A 
ATOM      3  C   UNL     1      46.865   5.547  13.158  0.00  0.00    +0.000 A 
ATOM      4  C   UNL     1      46.280   5.960  11.951  0.00  0.00    +0.000 A 
ATOM      5  C   UNL     1      45.380   5.135  11.271  0.00  0.00    +0.000 A 
ATOM      6  C   UNL     1      45.000   3.937  11.884  0.00  0.00    +0.000 A 
ATOM      7  C   UNL     1      45.587   3.513  13.081  0.00  0.00    +0.000 A 
BRANCH   5   8
ATOM      8  N   UNL     1      44.778   5.460  10.052  0.00  0.00    +0.000 N 
ATOM      9  H   UNL     1      45.379   6.067   9.498  0.00  0.00    +0.000 HD
BRANCH   8  10
ATOM     10  C   UNL     1      44.201   4.386   9.249  0.00  0.00    +0.000 C 
BRANCH  10  11
ATOM     11  C   UNL     1      45.285   3.565   8.575  0.00  0.00    +0.000 A 
ATOM     12  C   UNL     1      45.331   2.174   8.775  0.00  0.00    +0.000 A 
ATOM     13  C   UNL     1      46.263   1.385   8.092  0.00  0.00    +0.000 A 
ATOM     14  C   UNL     1      47.146   1.980   7.202  0.00  0.00    +0.000 A 
ATOM     15  F   UNL     1      48.027   1.219   6.541  0.00  0.00    +0.000 F 
ATOM     16  C   UNL     1      47.120   3.350   6.981  0.00  0.00    +0.000 A 
ATOM     17  C   UNL     1      46.187   4.139   7.658  0.00  0.00    +0.000 A 
ENDBRANCH  10  11
ENDBRANCH   8  10
ENDBRANCH   5   8
ENDBRANCH   1   2
BRANCH   1  20
ATOM     18  C   UNL     1      47.706   4.761  17.199  0.00  0.00    +0.000 C 
ATOM     19  O   UNL     1      47.612   3.654  17.722  0.00  0.00    +0.000 OA
ATOM     20  N   UNL     1      47.527   4.927  15.852  0.00  0.00    +0.000 N 
ATOM     21  H   UNL     1      47.542   5.851  15.447  0.00  0.00    +0.000 HD
BRANCH  18  29
ATOM     22  C   UNL     1      49.824   7.432  16.720  0.00  0.00    +0.000 A 
ATOM     23  N   UNL     1      50.550   8.564  16.787  0.00  0.00    +0.000 NA
ATOM     24  C   UNL     1      50.407   9.339  17.866  0.00  0.00    +0.000 A 
ATOM     25  N   UNL     1      49.612   9.119  18.910  0.00  0.00    +0.000 NA
ATOM     26  C   UNL     1      48.901   7.984  18.800  0.00  0.00    +0.000 A 
ATOM     27  S   UNL     1      47.833   7.542  20.043  0.00  0.00    +0.000 S 
ATOM     28  C   UNL     1      47.378   6.129  19.216  0.00  0.00    +0.000 A 
ATOM     29  C   UNL     1      48.017   5.962  17.993  0.00  0.00    +0.000 A 
ATOM     30  C   UNL     1      48.929   7.077  17.746  0.00  0.00    +0.000 A 
BRANCH  22  32
ATOM     31  C   UNL     1      49.874   7.397  14.378  0.00  0.00    +0.000 C 
ATOM     32  O   UNL     1      49.943   6.650  15.590  0.00  0.00    +0.000 OA
ENDBRANCH  22  32
ENDBRANCH  18  29
ENDBRANCH   1  20
TORSDOF 7
ENDMDL
MODEL 8
REMARK VINA RESULT:    -7.450      2.210      3.931
REMARK INTER + INTRA:         -11.953
REMARK INTER:                 -10.592
REMARK INTRA:                  -1.361
REMARK UNBOUND:                -1.455
REMARK  Name = 
REMARK  8 active torsions:
REMARK  status: ('A' for Active; 'I' for Inactive)
REMARK    1  A    between atoms: C_1  and  O_2
REMARK    2  A    between atoms: O_2  and  C_3
REMARK    3  A    between atoms: C_10  and  C_11
REMARK    4  A    between atoms: N_13  and  C_14
REMARK    5  A    between atoms: C_14  and  C_15
REMARK    6  A    between atoms: C_18  and  N_19
REMARK    7  A    between atoms: N_19  and  C_20
REMARK    8  A    between atoms: C_20  and  C_21
REMARK                            x       y       z     vdW  Elec       q    Type
REMARK                         _______ _______ _______ _____ _____    ______ ____
ROOT
ATOM      1  C   UNL     1      47.287   4.772  14.929  0.00  0.00    +0.000 C 
ENDROOT
BRANCH   1   2
ATOM      2  C   UNL     1      46.482   4.680  13.659  0.00  0.00    +0.000 A 
ATOM      3  C   UNL     1      46.194   5.822  12.901  0.00  0.00    +0.000 A 
ATOM      4  C   UNL     1      45.487   5.720  11.693  0.00  0.00    +0.000 A 
ATOM      5  C   UNL     1      45.061   4.478  11.214  0.00  0.00    +0.000 A 
ATOM      6  C   UNL     1      45.263   3.359  12.027  0.00  0.00    +0.000 A 
ATOM      7  C   UNL     1      45.977   3.450  13.228  0.00  0.00    +0.000 A 
BRANCH   5   8
ATOM      8  N   UNL     1      44.378   4.291  10.009  0.00  0.00    +0.000 N 
ATOM      9  H   UNL     1      44.669   4.975   9.313  0.00  0.00    +0.000 HD
BRANCH   8  10
ATOM     10  C   UNL     1      44.307   2.944   9.449  0.00  0.00    +0.000 C 
BRANCH  10  11
ATOM     11  C   UNL     1      45.417   2.713   8.440  0.00  0.00    +0.000 A 
ATOM     12  C   UNL     1      46.029   1.450   8.356  0.00  0.00    +0.000 A 
ATOM     13  C   UNL     1      46.989   1.186   7.373  0.00  0.00    +0.000 A 
ATOM     14  C   UNL     1      47.335   2.178   6.466  0.00  0.00    +0.000 A 
ATOM     15  F   UNL     1      48.244   1.917   5.518  0.00  0.00    +0.000 F 
ATOM     16  C   UNL     1      46.742   3.432   6.522  0.00  0.00    +0.000 A 
ATOM     17  C   UNL     1      45.780   3.696   7.499  0.00  0.00    +0.000 A 
ENDBRANCH  10  11
ENDBRANCH   8  10
ENDBRANCH   5   8
ENDBRANCH   1   2
BRANCH   1  20
ATOM     18  C   UNL     1      48.712   6.385  16.118  0.00  0.00    +0.000 C 
ATOM     19  O   UNL     1      49.017   5.544  16.960  0.00  0.00    +0.000 OA
ATOM     20  N   UNL     1      47.866   6.082  15.087  0.00  0.00    +0.000 N 
ATOM     21  H   UNL     1      47.572   6.801  14.442  0.00  0.00    +0.000 HD
BRANCH  18  29
ATOM     22  C   UNL     1      50.042   8.513  13.762  0.00  0.00    +0.000 A 
ATOM     23  N   UNL     1      50.587   9.526  13.062  0.00  0.00    +0.000 NA
ATOM     24  C   UNL     1      50.905  10.644  13.721  0.00  0.00    +0.000 A 
ATOM     25  N   UNL     1      50.743  10.882  15.020  0.00  0.00    +0.000 NA
ATOM     26  C   UNL     1      50.190   9.849  15.679  0.00  0.00    +0.000 A 
ATOM     27  S   UNL     1      49.912   9.975  17.349  0.00  0.00    +0.000 S 
ATOM     28  C   UNL     1      49.263   8.406  17.408  0.00  0.00    +0.000 A 
ATOM     29  C   UNL     1      49.241   7.758  16.178  0.00  0.00    +0.000 A 
ATOM     30  C   UNL     1      49.798   8.627  15.143  0.00  0.00    +0.000 A 
BRANCH  22  32
ATOM     31  C   UNL     1      49.280   7.625  11.732  0.00  0.00    +0.000 C 
ATOM     32  O   UNL     1      49.678   7.372  13.077  0.00  0.00    +0.000 OA
ENDBRANCH  22  32
ENDBRANCH  18  29
ENDBRANCH   1  20
TORSDOF 7
ENDMDL
MODEL 9
REMARK VINA RESULT:    -7.262      2.537      3.456
REMARK INTER + INTRA:         -11.689
REMARK INTER:                 -10.578
REMARK INTRA:                  -1.111
REMARK UNBOUND:                -1.455
REMARK  Name = 
REMARK  8 active torsions:
REMARK  status: ('A' for Active; 'I' for Inactive)
REMARK    1  A    between atoms: C_1  and  O_2
REMARK    2  A    between atoms: O_2  and  C_3
REMARK    3  A    between atoms: C_10  and  C_11
REMARK    4  A    between atoms: N_13  and  C_14
REMARK    5  A    between atoms: C_14  and  C_15
REMARK    6  A    between atoms: C_18  and  N_19
REMARK    7  A    between atoms: N_19  and  C_20
REMARK    8  A    between atoms: C_20  and  C_21
REMARK                            x       y       z     vdW  Elec       q    Type
REMARK                         _______ _______ _______ _____ _____    ______ ____
ROOT
ATOM      1  C   UNL     1      47.151   4.449  15.059  0.00  0.00    +0.000 C 
ENDROOT
BRANCH   1   2
ATOM      2  C   UNL     1      46.504   4.721  13.725  0.00  0.00    +0.000 A 
ATOM      3  C   UNL     1      46.850   5.850  12.970  0.00  0.00    +0.000 A 
ATOM      4  C   UNL     1      46.280   6.068  11.707  0.00  0.00    +0.000 A 
ATOM      5  C   UNL     1      45.361   5.163  11.168  0.00  0.00    +0.000 A 
ATOM      6  C   UNL     1      44.947   4.095  11.971  0.00  0.00    +0.000 A 
ATOM      7  C   UNL     1      45.518   3.865  13.227  0.00  0.00    +0.000 A 
BRANCH   5   8
ATOM      8  N   UNL     1      44.773   5.294   9.907  0.00  0.00    +0.000 N 
ATOM      9  H   UNL     1      45.394   5.776   9.261  0.00  0.00    +0.000 HD
BRANCH   8  10
ATOM     10  C   UNL     1      44.162   4.117   9.296  0.00  0.00    +0.000 C 
BRANCH  10  11
ATOM     11  C   UNL     1      45.178   3.335   8.482  0.00  0.00    +0.000 A 
ATOM     12  C   UNL     1      45.954   3.999   7.516  0.00  0.00    +0.000 A 
ATOM     13  C   UNL     1      46.960   3.320   6.819  0.00  0.00    +0.000 A 
ATOM     14  C   UNL     1      47.198   1.979   7.089  0.00  0.00    +0.000 A 
ATOM     15  F   UNL     1      48.170   1.337   6.429  0.00  0.00    +0.000 F 
ATOM     16  C   UNL     1      46.450   1.301   8.042  0.00  0.00    +0.000 A 
ATOM     17  C   UNL     1      45.449   1.979   8.742  0.00  0.00    +0.000 A 
ENDBRANCH  10  11
ENDBRANCH   8  10
ENDBRANCH   5   8
ENDBRANCH   1   2
BRANCH   1  20
ATOM     18  C   UNL     1      48.685   5.549  16.635  0.00  0.00    +0.000 C 
ATOM     19  O   UNL     1      48.822   4.510  17.276  0.00  0.00    +0.000 OA
ATOM     20  N   UNL     1      47.879   5.599  15.530  0.00  0.00    +0.000 N 
ATOM     21  H   UNL     1      47.725   6.475  15.053  0.00  0.00    +0.000 HD
BRANCH  18  29
ATOM     22  C   UNL     1      48.120   7.915  19.069  0.00  0.00    +0.000 A 
ATOM     23  N   UNL     1      48.134   8.964  19.913  0.00  0.00    +0.000 NA
ATOM     24  C   UNL     1      49.102   9.873  19.767  0.00  0.00    +0.000 A 
ATOM     25  N   UNL     1      50.080   9.865  18.864  0.00  0.00    +0.000 NA
ATOM     26  C   UNL     1      50.033   8.799  18.049  0.00  0.00    +0.000 A 
ATOM     27  S   UNL     1      51.203   8.624  16.831  0.00  0.00    +0.000 S 
ATOM     28  C   UNL     1      50.503   7.171  16.298  0.00  0.00    +0.000 A 
ATOM     29  C   UNL     1      49.379   6.788  17.023  0.00  0.00    +0.000 A 
ATOM     30  C   UNL     1      49.100   7.766  18.072  0.00  0.00    +0.000 A 
BRANCH  22  32
ATOM     31  C   UNL     1      47.433   6.039  20.295  0.00  0.00    +0.000 C 
ATOM     32  O   UNL     1      47.143   6.956  19.242  0.00  0.00    +0.000 OA
ENDBRANCH  22  32
ENDBRANCH  18  29
ENDBRANCH   1  20
TORSDOF 7
ENDMDL
