MODEL 1
REMARK VINA RESULT:    -8.137      0.000      0.000
REMARK INTER + INTRA:         -10.783
REMARK INTER:                 -10.515
REMARK INTRA:                  -0.267
REMARK UNBOUND:                -0.267
REMARK  Name = 
REMARK  5 active torsions:
REMARK  status: ('A' for Active; 'I' for Inactive)
REMARK    1  A    between atoms: C_2  and  C_3
REMARK    2  A    between atoms: C_7  and  C_8
REMARK    3  A    between atoms: C_8  and  C_9
REMARK    4  A    between atoms: C_13  and  C_14
REMARK    5  A    between atoms: C_18  and  C_19
REMARK                            x       y       z     vdW  Elec       q    Type
REMARK                         _______ _______ _______ _____ _____    ______ ____
ROOT
ATOM      1  C   UNL     1      45.525   5.329  11.510  0.00  0.00    +0.000 A 
ATOM      2  C   UNL     1      45.384   6.690  11.203  0.00  0.00    +0.000 A 
ATOM      3  C   UNL     1      45.837   7.637  12.096  0.00  0.00    +0.000 A 
ATOM      4  N   UNL     1      46.487   7.329  13.232  0.00  0.00    +0.000 NA
ATOM      5  C   UNL     1      46.727   6.017  13.502  0.00  0.00    +0.000 A 
ATOM      6  C   UNL     1      46.252   5.004  12.665  0.00  0.00    +0.000 A 
ENDROOT
BRANCH   5   7
ATOM      7  C   UNL     1      47.530   5.755  14.713  0.00  0.00    +0.000 A 
ATOM      8  C   UNL     1      48.688   6.493  14.988  0.00  0.00    +0.000 A 
ATOM      9  N   UNL     1      49.516   6.241  16.035  0.00  0.00    +0.000 NA
ATOM     10  C   UNL     1      49.144   5.205  16.819  0.00  0.00    +0.000 A 
ATOM     11  C   UNL     1      47.989   4.474  16.578  0.00  0.00    +0.000 A 
ATOM     12  N   UNL     1      47.149   4.729  15.530  0.00  0.00    +0.000 NA
BRANCH  11  13
ATOM     13  C   UNL     1      47.650   3.347  17.487  0.00  0.00    +0.000 C 
ATOM     14  N   UNL     1      48.669   2.874  18.271  0.00  0.00    +0.000 N 
ATOM     15  O   UNL     1      46.526   2.865  17.540  0.00  0.00    +0.000 OA
ATOM     16  H   UNL     1      49.590   3.287  18.222  0.00  0.00    +0.000 HD
ATOM     17  H   UNL     1      48.479   2.116  18.912  0.00  0.00    +0.000 HD
ENDBRANCH  11  13
ENDBRANCH   5   7
BRANCH   1  18
ATOM     18  C   UNL     1      44.770   4.287  10.686  0.00  0.00    +0.000 C 
ATOM     19  C   UNL     1      43.809   3.324  11.382  0.00  0.00    +0.000 C 
ATOM     20  C   UNL     1      43.253   4.530  10.705  0.00  0.00    +0.000 C 
BRANCH  18  25
ATOM     21  C   UNL     1      46.232   1.935   8.009  0.00  0.00    +0.000 A 
ATOM     22  C   UNL     1      46.488   2.865   7.016  0.00  0.00    +0.000 A 
ATOM     23  N   UNL     1      46.274   4.193   7.160  0.00  0.00    +0.000 NA
ATOM     24  C   UNL     1      45.761   4.603   8.345  0.00  0.00    +0.000 A 
ATOM     25  C   UNL     1      45.430   3.761   9.416  0.00  0.00    +0.000 A 
ATOM     26  C   UNL     1      45.703   2.395   9.221  0.00  0.00    +0.000 A 
BRANCH  21  28
ATOM     27  N   UNL     1      46.712  -0.587   7.631  0.00  0.00    +0.000 NA
ATOM     28  C   UNL     1      46.494   0.542   7.792  0.00  0.00    +0.000 C 
ENDBRANCH  21  28
ENDBRANCH  18  25
ENDBRANCH   1  18
TORSDOF 5
ENDMDL
MODEL 2
REMARK VINA RESULT:    -7.797      1.438      2.058
REMARK INTER + INTRA:         -10.343
REMARK INTER:                  -9.992
REMARK INTRA:                  -0.351
REMARK UNBOUND:                -0.267
REMARK  Name = 
REMARK  5 active torsions:
REMARK  status: ('A' for Active; 'I' for Inactive)
REMARK    1  A    between atoms: C_2  and  C_3
REMARK    2  A    between atoms: C_7  and  C_8
REMARK    3  A    between atoms: C_8  and  C_9
REMARK    4  A    between atoms: C_13  and  C_14
REMARK    5  A    between atoms: C_18  and  C_19
REMARK                            x       y       z     vdW  Elec       q    Type
REMARK                         _______ _______ _______ _____ _____    ______ ____
ROOT
ATOM      1  C   UNL     1      46.184   5.960  12.105  0.00  0.00    +0.000 A 
ATOM      2  C   UNL     1      47.004   6.816  11.356  0.00  0.00    +0.000 A 
ATOM      3  C   UNL     1      48.110   7.386  11.948  0.00  0.00    +0.000 A 
ATOM      4  N   UNL     1      48.501   7.107  13.204  0.00  0.00    +0.000 NA
ATOM      5  C   UNL     1      47.780   6.200  13.916  0.00  0.00    +0.000 A 
ATOM      6  C   UNL     1      46.620   5.622  13.395  0.00  0.00    +0.000 A 
ENDROOT
BRANCH   5   7
ATOM      7  C   UNL     1      48.321   5.865  15.250  0.00  0.00    +0.000 A 
ATOM      8  C   UNL     1      49.430   6.542  15.772  0.00  0.00    +0.000 A 
ATOM      9  N   UNL     1      50.026   6.222  16.950  0.00  0.00    +0.000 NA
ATOM     10  C   UNL     1      49.470   5.180  17.606  0.00  0.00    +0.000 A 
ATOM     11  C   UNL     1      48.357   4.510  17.118  0.00  0.00    +0.000 A 
ATOM     12  N   UNL     1      47.748   4.833  15.937  0.00  0.00    +0.000 NA
BRANCH  11  13
ATOM     13  C   UNL     1      47.804   3.371  17.900  0.00  0.00    +0.000 C 
ATOM     14  N   UNL     1      48.441   3.080  19.077  0.00  0.00    +0.000 N 
ATOM     15  O   UNL     1      46.834   2.729  17.521  0.00  0.00    +0.000 OA
ATOM     16  H   UNL     1      49.236   3.625  19.381  0.00  0.00    +0.000 HD
ATOM     17  H   UNL     1      48.090   2.322  19.646  0.00  0.00    +0.000 HD
ENDBRANCH  11  13
ENDBRANCH   5   7
BRANCH   1  18
ATOM     18  C   UNL     1      44.811   5.565  11.565  0.00  0.00    +0.000 C 
ATOM     19  C   UNL     1      43.577   5.716  12.453  0.00  0.00    +0.000 C 
ATOM     20  C   UNL     1      43.871   6.775  11.446  0.00  0.00    +0.000 C 
BRANCH  18  25
ATOM     21  C   UNL     1      45.387   3.482   8.376  0.00  0.00    +0.000 A 
ATOM     22  C   UNL     1      44.696   2.337   8.735  0.00  0.00    +0.000 A 
ATOM     23  N   UNL     1      44.020   2.203   9.899  0.00  0.00    +0.000 NA
ATOM     24  C   UNL     1      44.055   3.257  10.749  0.00  0.00    +0.000 A 
ATOM     25  C   UNL     1      44.742   4.457  10.519  0.00  0.00    +0.000 A 
ATOM     26  C   UNL     1      45.401   4.551   9.279  0.00  0.00    +0.000 A 
BRANCH  21  28
ATOM     27  N   UNL     1      46.631   3.607   6.103  0.00  0.00    +0.000 NA
ATOM     28  C   UNL     1      46.073   3.559   7.120  0.00  0.00    +0.000 C 
ENDBRANCH  21  28
ENDBRANCH  18  25
ENDBRANCH   1  18
TORSDOF 5
ENDMDL
MODEL 3
REMARK VINA RESULT:    -7.711      2.837      4.393
REMARK INTER + INTRA:         -10.233
REMARK INTER:                  -9.755
REMARK INTRA:                  -0.477
REMARK UNBOUND:                -0.267
REMARK  Name = 
REMARK  5 active torsions:
REMARK  status: ('A' for Active; 'I' for Inactive)
REMARK    1  A    between atoms: C_2  and  C_3
REMARK    2  A    between atoms: C_7  and  C_8
REMARK    3  A    between atoms: C_8  and  C_9
REMARK    4  A    between atoms: C_13  and  C_14
REMARK    5  A    between atoms: C_18  and  C_19
REMARK                            x       y       z     vdW  Elec       q    Type
REMARK                         _______ _______ _______ _____ _____    ______ ____
ROOT
ATOM      1  C   UNL     1      45.480   4.477  12.315  0.00  0.00    +0.000 A 
ATOM      2  C   UNL     1      46.020   3.651  13.310  0.00  0.00    +0.000 A 
ATOM      3  C   UNL     1      47.050   4.120  14.096  0.00  0.00    +0.000 A 
ATOM      4  N   UNL     1      47.528   5.374  14.014  0.00  0.00    +0.000 NA
ATOM      5  C   UNL     1      46.951   6.227  13.125  0.00  0.00    +0.000 A 
ATOM      6  C   UNL     1      45.936   5.803  12.264  0.00  0.00    +0.000 A 
ENDROOT
BRANCH   5   7
ATOM      7  C   UNL     1      47.457   7.615  13.157  0.00  0.00    +0.000 A 
ATOM      8  C   UNL     1      48.516   7.980  13.997  0.00  0.00    +0.000 A 
ATOM      9  N   UNL     1      48.966   9.254  14.136  0.00  0.00    +0.000 NA
ATOM     10  C   UNL     1      48.311  10.175  13.395  0.00  0.00    +0.000 A 
ATOM     11  C   UNL     1      47.275   9.832  12.539  0.00  0.00    +0.000 A 
ATOM     12  N   UNL     1      46.823   8.549  12.389  0.00  0.00    +0.000 NA
BRANCH  11  13
ATOM     13  C   UNL     1      46.604  10.904  11.756  0.00  0.00    +0.000 C 
ATOM     14  N   UNL     1      45.325  11.217  12.132  0.00  0.00    +0.000 N 
ATOM     15  O   UNL     1      47.158  11.480  10.828  0.00  0.00    +0.000 OA
ATOM     16  H   UNL     1      44.884  10.738  12.905  0.00  0.00    +0.000 HD
ATOM     17  H   UNL     1      44.836  11.949  11.635  0.00  0.00    +0.000 HD
ENDBRANCH  11  13
ENDBRANCH   5   7
BRANCH   1  18
ATOM     18  C   UNL     1      44.559   3.878  11.254  0.00  0.00    +0.000 C 
ATOM     19  C   UNL     1      43.376   3.009  11.681  0.00  0.00    +0.000 C 
ATOM     20  C   UNL     1      43.132   4.440  11.348  0.00  0.00    +0.000 C 
BRANCH  18  25
ATOM     21  C   UNL     1      46.018   1.993   8.229  0.00  0.00    +0.000 A 
ATOM     22  C   UNL     1      46.072   3.039   7.323  0.00  0.00    +0.000 A 
ATOM     23  N   UNL     1      45.722   4.310   7.626  0.00  0.00    +0.000 NA
ATOM     24  C   UNL     1      45.281   4.538   8.886  0.00  0.00    +0.000 A 
ATOM     25  C   UNL     1      45.150   3.562   9.884  0.00  0.00    +0.000 A 
ATOM     26  C   UNL     1      45.558   2.265   9.522  0.00  0.00    +0.000 A 
BRANCH  21  28
ATOM     27  N   UNL     1      46.753  -0.397   7.533  0.00  0.00    +0.000 NA
ATOM     28  C   UNL     1      46.416   0.670   7.843  0.00  0.00    +0.000 C 
ENDBRANCH  21  28
ENDBRANCH  18  25
ENDBRANCH   1  18
TORSDOF 5
ENDMDL
MODEL 4
REMARK VINA RESULT:    -7.629      3.093      4.199
REMARK INTER + INTRA:         -10.127
REMARK INTER:                  -9.660
REMARK INTRA:                  -0.467
REMARK UNBOUND:                -0.267
REMARK  Name = 
REMARK  5 active torsions:
REMARK  status: ('A' for Active; 'I' for Inactive)
REMARK    1  A    between atoms: C_2  and  C_3
REMARK    2  A    between atoms: C_7  and  C_8
REMARK    3  A    between atoms: C_8  and  C_9
REMARK    4  A    between atoms: C_13  and  C_14
REMARK    5  A    between atoms: C_18  and  C_19
REMARK                            x       y       z     vdW  Elec       q    Type
REMARK                         _______ _______ _______ _____ _____    ______ ____
ROOT
ATOM      1  C   UNL     1      45.527   4.742  12.085  0.00  0.00    +0.000 A 
ATOM      2  C   UNL     1      45.697   4.009  13.268  0.00  0.00    +0.000 A 
ATOM      3  C   UNL     1      46.700   4.361  14.145  0.00  0.00    +0.000 A 
ATOM      4  N   UNL     1      47.493   5.432  13.968  0.00  0.00    +0.000 NA
ATOM      5  C   UNL     1      47.280   6.218  12.879  0.00  0.00    +0.000 A 
ATOM      6  C   UNL     1      46.314   5.892  11.924  0.00  0.00    +0.000 A 
ENDROOT
BRANCH   5   7
ATOM      7  C   UNL     1      48.120   7.431  12.797  0.00  0.00    +0.000 A 
ATOM      8  C   UNL     1      47.709   8.636  13.380  0.00  0.00    +0.000 A 
ATOM      9  N   UNL     1      48.393   9.805  13.264  0.00  0.00    +0.000 NA
ATOM     10  C   UNL     1      49.525   9.732  12.530  0.00  0.00    +0.000 A 
ATOM     11  C   UNL     1      49.962   8.544  11.962  0.00  0.00    +0.000 A 
ATOM     12  N   UNL     1      49.282   7.364  12.083  0.00  0.00    +0.000 NA
BRANCH  11  13
ATOM     13  C   UNL     1      51.220   8.547  11.167  0.00  0.00    +0.000 C 
ATOM     14  N   UNL     1      51.776   7.322  10.913  0.00  0.00    +0.000 N 
ATOM     15  O   UNL     1      51.732   9.580  10.758  0.00  0.00    +0.000 OA
ATOM     16  H   UNL     1      51.338   6.476  11.251  0.00  0.00    +0.000 HD
ATOM     17  H   UNL     1      52.626   7.277  10.365  0.00  0.00    +0.000 HD
ENDBRANCH  11  13
ENDBRANCH   5   7
BRANCH   1  18
ATOM     18  C   UNL     1      44.632   4.190  10.978  0.00  0.00    +0.000 C 
ATOM     19  C   UNL     1      43.341   3.456  11.343  0.00  0.00    +0.000 C 
ATOM     20  C   UNL     1      43.264   4.890  10.942  0.00  0.00    +0.000 C 
BRANCH  18  25
ATOM     21  C   UNL     1      46.148   2.051   8.156  0.00  0.00    +0.000 A 
ATOM     22  C   UNL     1      46.336   3.042   7.207  0.00  0.00    +0.000 A 
ATOM     23  N   UNL     1      46.061   4.349   7.423  0.00  0.00    +0.000 NA
ATOM     24  C   UNL     1      45.554   4.672   8.637  0.00  0.00    +0.000 A 
ATOM     25  C   UNL     1      45.288   3.762   9.669  0.00  0.00    +0.000 A 
ATOM     26  C   UNL     1      45.624   2.423   9.399  0.00  0.00    +0.000 A 
BRANCH  21  28
ATOM     27  N   UNL     1      46.744  -0.415   7.612  0.00  0.00    +0.000 NA
ATOM     28  C   UNL     1      46.474   0.686   7.862  0.00  0.00    +0.000 C 
ENDBRANCH  21  28
ENDBRANCH  18  25
ENDBRANCH   1  18
TORSDOF 5
ENDMDL
MODEL 5
REMARK VINA RESULT:    -7.587      3.250      5.253
REMARK INTER + INTRA:         -10.072
REMARK INTER:                  -9.670
REMARK INTRA:                  -0.402
REMARK UNBOUND:                -0.267
REMARK  Name = 
REMARK  5 active torsions:
REMARK  status: ('A' for Active; 'I' for Inactive)
REMARK    1  A    between atoms: C_2  and  C_3
REMARK    2  A    between atoms: C_7  and  C_8
REMARK    3  A    between atoms: C_8  and  C_9
REMARK    4  A    between atoms: C_13  and  C_14
REMARK    5  A    between atoms: C_18  and  C_19
REMARK                            x       y       z     vdW  Elec       q    Type
REMARK                         _______ _______ _______ _____ _____    ______ ____
ROOT
ATOM      1  C   UNL     1      45.203   4.940  12.035  0.00  0.00    +0.000 A 
ATOM      2  C   UNL     1      46.085   4.614  13.075  0.00  0.00    +0.000 A 
ATOM      3  C   UNL     1      46.867   5.601  13.636  0.00  0.00    +0.000 A 
ATOM      4  N   UNL     1      46.779   6.897  13.290  0.00  0.00    +0.000 NA
ATOM      5  C   UNL     1      45.857   7.254  12.356  0.00  0.00    +0.000 A 
ATOM      6  C   UNL     1      45.067   6.299  11.712  0.00  0.00    +0.000 A 
ENDROOT
BRANCH   5   7
ATOM      7  C   UNL     1      45.745   8.704  12.096  0.00  0.00    +0.000 A 
ATOM      8  C   UNL     1      46.833   9.562  12.299  0.00  0.00    +0.000 A 
ATOM      9  N   UNL     1      46.767  10.912  12.163  0.00  0.00    +0.000 NA
ATOM     10  C   UNL     1      45.553  11.392  11.812  0.00  0.00    +0.000 A 
ATOM     11  C   UNL     1      44.468  10.558  11.584  0.00  0.00    +0.000 A 
ATOM     12  N   UNL     1      44.531   9.197  11.711  0.00  0.00    +0.000 NA
BRANCH  11  13
ATOM     13  C   UNL     1      43.165  11.163  11.200  0.00  0.00    +0.000 C 
ATOM     14  N   UNL     1      42.247  11.309  12.206  0.00  0.00    +0.000 N 
ATOM     15  O   UNL     1      42.920  11.516  10.054  0.00  0.00    +0.000 OA
ATOM     16  H   UNL     1      42.466  11.021  13.150  0.00  0.00    +0.000 HD
ATOM     17  H   UNL     1      41.351  11.728  11.992  0.00  0.00    +0.000 HD
ENDBRANCH  11  13
ENDBRANCH   5   7
BRANCH   1  18
ATOM     18  C   UNL     1      44.561   3.825  11.213  0.00  0.00    +0.000 C 
ATOM     19  C   UNL     1      43.866   2.664  11.923  0.00  0.00    +0.000 C 
ATOM     20  C   UNL     1      43.036   3.783  11.394  0.00  0.00    +0.000 C 
BRANCH  18  25
ATOM     21  C   UNL     1      46.053   1.923   8.214  0.00  0.00    +0.000 A 
ATOM     22  C   UNL     1      46.101   2.960   7.298  0.00  0.00    +0.000 A 
ATOM     23  N   UNL     1      45.738   4.231   7.586  0.00  0.00    +0.000 NA
ATOM     24  C   UNL     1      45.288   4.467   8.841  0.00  0.00    +0.000 A 
ATOM     25  C   UNL     1      45.162   3.501   9.849  0.00  0.00    +0.000 A 
ATOM     26  C   UNL     1      45.584   2.204   9.502  0.00  0.00    +0.000 A 
BRANCH  21  28
ATOM     27  N   UNL     1      46.803  -0.465   7.530  0.00  0.00    +0.000 NA
ATOM     28  C   UNL     1      46.465   0.600   7.844  0.00  0.00    +0.000 C 
ENDBRANCH  21  28
ENDBRANCH  18  25
ENDBRANCH   1  18
TORSDOF 5
ENDMDL
MODEL 6
REMARK VINA RESULT:    -7.523      2.547      3.645
REMARK INTER + INTRA:          -9.989
REMARK INTER:                  -9.557
REMARK INTRA:                  -0.432
REMARK UNBOUND:                -0.267
REMARK  Name = 
REMARK  5 active torsions:
REMARK  status: ('A' for Active; 'I' for Inactive)
REMARK    1  A    between atoms: C_2  and  C_3
REMARK    2  A    between atoms: C_7  and  C_8
REMARK    3  A    between atoms: C_8  and  C_9
REMARK    4  A    between atoms: C_13  and  C_14
REMARK    5  A    between atoms: C_18  and  C_19
REMARK                            x       y       z     vdW  Elec       q    Type
REMARK                         _______ _______ _______ _____ _____    ______ ____
ROOT
ATOM      1  C   UNL     1      45.535   4.665  12.156  0.00  0.00    +0.000 A 
ATOM      2  C   UNL     1      45.859   3.835  13.238  0.00  0.00    +0.000 A 
ATOM      3  C   UNL     1      46.870   4.206  14.098  0.00  0.00    +0.000 A 
ATOM      4  N   UNL     1      47.527   5.375  14.004  0.00  0.00    +0.000 NA
ATOM      5  C   UNL     1      47.160   6.243  13.023  0.00  0.00    +0.000 A 
ATOM      6  C   UNL     1      46.178   5.910  12.087  0.00  0.00    +0.000 A 
ENDROOT
BRANCH   5   7
ATOM      7  C   UNL     1      47.853   7.548  13.038  0.00  0.00    +0.000 A 
ATOM      8  C   UNL     1      48.365   8.109  11.861  0.00  0.00    +0.000 A 
ATOM      9  N   UNL     1      49.087   9.259  11.823  0.00  0.00    +0.000 NA
ATOM     10  C   UNL     1      49.289   9.845  13.024  0.00  0.00    +0.000 A 
ATOM     11  C   UNL     1      48.772   9.319  14.199  0.00  0.00    +0.000 A 
ATOM     12  N   UNL     1      48.037   8.166  14.241  0.00  0.00    +0.000 NA
BRANCH  11  13
ATOM     13  C   UNL     1      49.039  10.024  15.481  0.00  0.00    +0.000 C 
ATOM     14  N   UNL     1      48.020  10.019  16.397  0.00  0.00    +0.000 N 
ATOM     15  O   UNL     1      50.105  10.578  15.713  0.00  0.00    +0.000 OA
ATOM     16  H   UNL     1      47.147   9.550  16.195  0.00  0.00    +0.000 HD
ATOM     17  H   UNL     1      48.163  10.476  17.288  0.00  0.00    +0.000 HD
ENDBRANCH  11  13
ENDBRANCH   5   7
BRANCH   1  18
ATOM     18  C   UNL     1      44.639   4.133  11.039  0.00  0.00    +0.000 C 
ATOM     19  C   UNL     1      43.354   3.385  11.391  0.00  0.00    +0.000 C 
ATOM     20  C   UNL     1      43.268   4.827  11.024  0.00  0.00    +0.000 C 
BRANCH  18  25
ATOM     21  C   UNL     1      46.145   2.067   8.158  0.00  0.00    +0.000 A 
ATOM     22  C   UNL     1      46.337   3.083   7.237  0.00  0.00    +0.000 A 
ATOM     23  N   UNL     1      46.067   4.384   7.489  0.00  0.00    +0.000 NA
ATOM     24  C   UNL     1      45.563   4.676   8.712  0.00  0.00    +0.000 A 
ATOM     25  C   UNL     1      45.293   3.739   9.719  0.00  0.00    +0.000 A 
ATOM     26  C   UNL     1      45.623   2.406   9.412  0.00  0.00    +0.000 A 
BRANCH  21  28
ATOM     27  N   UNL     1      46.737  -0.389   7.566  0.00  0.00    +0.000 NA
ATOM     28  C   UNL     1      46.464   0.709   7.827  0.00  0.00    +0.000 C 
ENDBRANCH  21  28
ENDBRANCH  18  25
ENDBRANCH   1  18
TORSDOF 5
ENDMDL
MODEL 7
REMARK VINA RESULT:    -6.927      3.005      8.188
REMARK INTER + INTRA:          -9.220
REMARK INTER:                  -8.813
REMARK INTRA:                  -0.407
REMARK UNBOUND:                -0.267
REMARK  Name = 
REMARK  5 active torsions:
REMARK  status: ('A' for Active; 'I' for Inactive)
REMARK    1  A    between atoms: C_2  and  C_3
REMARK    2  A    between atoms: C_7  and  C_8
REMARK    3  A    between atoms: C_8  and  C_9
REMARK    4  A    between atoms: C_13  and  C_14
REMARK    5  A    between atoms: C_18  and  C_19
REMARK                            x       y       z     vdW  Elec       q    Type
REMARK                         _______ _______ _______ _____ _____    ______ ____
ROOT
ATOM      1  C   UNL     1      47.953   5.482  15.794  0.00  0.00    +0.000 A 
ATOM      2  C   UNL     1      48.682   6.565  15.282  0.00  0.00    +0.000 A 
ATOM      3  C   UNL     1      48.512   6.935  13.966  0.00  0.00    +0.000 A 
ATOM      4  N   UNL     1      47.616   6.358  13.147  0.00  0.00    +0.000 NA
ATOM      5  C   UNL     1      46.824   5.373  13.650  0.00  0.00    +0.000 A 
ATOM      6  C   UNL     1      46.978   4.915  14.960  0.00  0.00    +0.000 A 
ENDROOT
BRANCH   5   7
ATOM      7  C   UNL     1      45.796   4.851  12.726  0.00  0.00    +0.000 A 
ATOM      8  C   UNL     1      44.716   4.094  13.198  0.00  0.00    +0.000 A 
ATOM      9  N   UNL     1      43.789   3.514  12.392  0.00  0.00    +0.000 NA
ATOM     10  C   UNL     1      43.978   3.716  11.069  0.00  0.00    +0.000 A 
ATOM     11  C   UNL     1      45.027   4.480  10.581  0.00  0.00    +0.000 A 
ATOM     12  N   UNL     1      45.958   5.073  11.389  0.00  0.00    +0.000 NA
BRANCH  11  13
ATOM     13  C   UNL     1      45.167   4.655   9.110  0.00  0.00    +0.000 C 
ATOM     14  N   UNL     1      44.173   4.112   8.340  0.00  0.00    +0.000 N 
ATOM     15  O   UNL     1      46.112   5.250   8.609  0.00  0.00    +0.000 OA
ATOM     16  H   UNL     1      43.394   3.630   8.769  0.00  0.00    +0.000 HD
ATOM     17  H   UNL     1      44.221   4.218   7.336  0.00  0.00    +0.000 HD
ENDBRANCH  11  13
ENDBRANCH   5   7
BRANCH   1  18
ATOM     18  C   UNL     1      48.345   4.877  17.141  0.00  0.00    +0.000 C 
ATOM     19  C   UNL     1      48.262   5.730  18.406  0.00  0.00    +0.000 C 
ATOM     20  C   UNL     1      47.148   4.789  18.100  0.00  0.00    +0.000 C 
BRANCH  18  25
ATOM     21  C   UNL     1      51.603   2.918  17.755  0.00  0.00    +0.000 A 
ATOM     22  C   UNL     1      51.206   1.678  17.283  0.00  0.00    +0.000 A 
ATOM     23  N   UNL     1      49.991   1.438  16.738  0.00  0.00    +0.000 NA
ATOM     24  C   UNL     1      49.130   2.482  16.683  0.00  0.00    +0.000 A 
ATOM     25  C   UNL     1      49.398   3.775  17.154  0.00  0.00    +0.000 A 
ATOM     26  C   UNL     1      50.688   3.974  17.681  0.00  0.00    +0.000 A 
BRANCH  21  28
ATOM     27  N   UNL     1      53.972   3.269  18.754  0.00  0.00    +0.000 NA
ATOM     28  C   UNL     1      52.912   3.104  18.309  0.00  0.00    +0.000 C 
ENDBRANCH  21  28
ENDBRANCH  18  25
ENDBRANCH   1  18
TORSDOF 5
ENDMDL
MODEL 8
REMARK VINA RESULT:    -6.767      3.188      4.773
REMARK INTER + INTRA:          -9.013
REMARK INTER:                  -8.452
REMARK INTRA:                  -0.561
REMARK UNBOUND:                -0.267
REMARK  Name = 
REMARK  5 active torsions:
REMARK  status: ('A' for Active; 'I' for Inactive)
REMARK    1  A    between atoms: C_2  and  C_3
REMARK    2  A    between atoms: C_7  and  C_8
REMARK    3  A    between atoms: C_8  and  C_9
REMARK    4  A    between atoms: C_13  and  C_14
REMARK    5  A    between atoms: C_18  and  C_19
REMARK                            x       y       z     vdW  Elec       q    Type
REMARK                         _______ _______ _______ _____ _____    ______ ____
ROOT
ATOM      1  C   UNL     1      48.570   7.954  14.177  0.00  0.00    +0.000 A 
ATOM      2  C   UNL     1      48.607   9.181  14.854  0.00  0.00    +0.000 A 
ATOM      3  C   UNL     1      48.668   9.194  16.230  0.00  0.00    +0.000 A 
ATOM      4  N   UNL     1      48.773   8.080  16.975  0.00  0.00    +0.000 NA
ATOM      5  C   UNL     1      48.843   6.881  16.335  0.00  0.00    +0.000 A 
ATOM      6  C   UNL     1      48.737   6.792  14.946  0.00  0.00    +0.000 A 
ENDROOT
BRANCH   5   7
ATOM      7  C   UNL     1      49.058   5.708  17.207  0.00  0.00    +0.000 A 
ATOM      8  C   UNL     1      49.054   5.832  18.602  0.00  0.00    +0.000 A 
ATOM      9  N   UNL     1      49.331   4.810  19.453  0.00  0.00    +0.000 NA
ATOM     10  C   UNL     1      49.622   3.633  18.856  0.00  0.00    +0.000 A 
ATOM     11  C   UNL     1      49.610   3.483  17.477  0.00  0.00    +0.000 A 
ATOM     12  N   UNL     1      49.323   4.506  16.616  0.00  0.00    +0.000 NA
BRANCH  11  13
ATOM     13  C   UNL     1      49.942   2.154  16.896  0.00  0.00    +0.000 C 
ATOM     14  N   UNL     1      50.880   1.418  17.568  0.00  0.00    +0.000 N 
ATOM     15  O   UNL     1      49.409   1.734  15.877  0.00  0.00    +0.000 OA
ATOM     16  H   UNL     1      51.306   1.774  18.413  0.00  0.00    +0.000 HD
ATOM     17  H   UNL     1      51.127   0.503  17.215  0.00  0.00    +0.000 HD
ENDBRANCH  11  13
ENDBRANCH   5   7
BRANCH   1  18
ATOM     18  C   UNL     1      48.204   7.920  12.694  0.00  0.00    +0.000 C 
ATOM     19  C   UNL     1      48.741   9.001  11.757  0.00  0.00    +0.000 C 
ATOM     20  C   UNL     1      49.434   7.682  11.804  0.00  0.00    +0.000 C 
BRANCH  18  25
ATOM     21  C   UNL     1      45.308   5.431  12.187  0.00  0.00    +0.000 A 
ATOM     22  C   UNL     1      44.351   6.305  11.700  0.00  0.00    +0.000 A 
ATOM     23  N   UNL     1      44.581   7.619  11.475  0.00  0.00    +0.000 NA
ATOM     24  C   UNL     1      45.819   8.081  11.772  0.00  0.00    +0.000 A 
ATOM     25  C   UNL     1      46.864   7.309  12.299  0.00  0.00    +0.000 A 
ATOM     26  C   UNL     1      46.577   5.943  12.482  0.00  0.00    +0.000 A 
BRANCH  21  28
ATOM     27  N   UNL     1      44.761   2.920  12.547  0.00  0.00    +0.000 NA
ATOM     28  C   UNL     1      44.999   4.046  12.390  0.00  0.00    +0.000 C 
ENDBRANCH  21  28
ENDBRANCH  18  25
ENDBRANCH   1  18
TORSDOF 5
ENDMDL
MODEL 9
REMARK VINA RESULT:    -6.755      3.226      8.016
REMARK INTER + INTRA:          -8.997
REMARK INTER:                  -8.563
REMARK INTRA:                  -0.434
REMARK UNBOUND:                -0.267
REMARK  Name = 
REMARK  5 active torsions:
REMARK  status: ('A' for Active; 'I' for Inactive)
REMARK    1  A    between atoms: C_2  and  C_3
REMARK    2  A    between atoms: C_7  and  C_8
REMARK    3  A    between atoms: C_8  and  C_9
REMARK    4  A    between atoms: C_13  and  C_14
REMARK    5  A    between atoms: C_18  and  C_19
REMARK                            x       y       z     vdW  Elec       q    Type
REMARK                         _______ _______ _______ _____ _____    ______ ____
ROOT
ATOM      1  C   UNL     1      48.929   5.815  16.311  0.00  0.00    +0.000 A 
ATOM      2  C   UNL     1      49.799   6.860  15.970  0.00  0.00    +0.000 A 
ATOM      3  C   UNL     1      49.735   7.412  14.709  0.00  0.00    +0.000 A 
ATOM      4  N   UNL     1      48.820   7.052  13.792  0.00  0.00    +0.000 NA
ATOM      5  C   UNL     1      47.899   6.112  14.135  0.00  0.00    +0.000 A 
ATOM      6  C   UNL     1      47.937   5.476  15.378  0.00  0.00    +0.000 A 
ENDROOT
BRANCH   5   7
ATOM      7  C   UNL     1      46.864   5.836  13.117  0.00  0.00    +0.000 A 
ATOM      8  C   UNL     1      46.904   6.450  11.859  0.00  0.00    +0.000 A 
ATOM      9  N   UNL     1      45.937   6.307  10.915  0.00  0.00    +0.000 NA
ATOM     10  C   UNL     1      44.904   5.514  11.275  0.00  0.00    +0.000 A 
ATOM     11  C   UNL     1      44.855   4.877  12.507  0.00  0.00    +0.000 A 
ATOM     12  N   UNL     1      45.830   5.012  13.456  0.00  0.00    +0.000 NA
BRANCH  11  13
ATOM     13  C   UNL     1      43.682   4.020  12.827  0.00  0.00    +0.000 C 
ATOM     14  N   UNL     1      43.829   2.680  12.587  0.00  0.00    +0.000 N 
ATOM     15  O   UNL     1      42.642   4.479  13.281  0.00  0.00    +0.000 OA
ATOM     16  H   UNL     1      44.697   2.315  12.219  0.00  0.00    +0.000 HD
ATOM     17  H   UNL     1      43.061   2.059  12.802  0.00  0.00    +0.000 HD
ENDBRANCH  11  13
ENDBRANCH   5   7
BRANCH   1  18
ATOM     18  C   UNL     1      49.184   5.002  17.579  0.00  0.00    +0.000 C 
ATOM     19  C   UNL     1      49.165   5.698  18.940  0.00  0.00    +0.000 C 
ATOM     20  C   UNL     1      47.950   4.961  18.493  0.00  0.00    +0.000 C 
BRANCH  18  25
ATOM     21  C   UNL     1      52.150   2.577  17.971  0.00  0.00    +0.000 A 
ATOM     22  C   UNL     1      51.593   1.452  17.386  0.00  0.00    +0.000 A 
ATOM     23  N   UNL     1      50.359   1.430  16.832  0.00  0.00    +0.000 NA
ATOM     24  C   UNL     1      49.645   2.579  16.886  0.00  0.00    +0.000 A 
ATOM     25  C   UNL     1      50.081   3.774  17.476  0.00  0.00    +0.000 A 
ATOM     26  C   UNL     1      51.384   3.747  18.008  0.00  0.00    +0.000 A 
BRANCH  21  28
ATOM     27  N   UNL     1      54.543   2.485  18.971  0.00  0.00    +0.000 NA
ATOM     28  C   UNL     1      53.470   2.533  18.528  0.00  0.00    +0.000 C 
ENDBRANCH  21  28
ENDBRANCH  18  25
ENDBRANCH   1  18
TORSDOF 5
ENDMDL
