MODEL 1
REMARK VINA RESULT:    -7.742      0.000      0.000
REMARK INTER + INTRA:         -10.801
REMARK INTER:                 -10.231
REMARK INTRA:                  -0.570
REMARK UNBOUND:                -0.570
REMARK  Name = 
REMARK  6 active torsions:
REMARK  status: ('A' for Active; 'I' for Inactive)
REMARK    1  A    between atoms: N_1  and  C_2
REMARK    2  A    between atoms: C_2  and  C_3
REMARK    3  A    between atoms: C_3  and  C_4
REMARK    4  A    between atoms: C_7  and  C_8
REMARK    5  A    between atoms: C_8  and  N_9
REMARK    6  A    between atoms: C_15  and  C_16
REMARK                            x       y       z     vdW  Elec       q    Type
REMARK                         _______ _______ _______ _____ _____    ______ ____
ROOT
ATOM      1  N   UNL     1      44.737   5.282  11.658  0.00  0.00    +0.000 N 
ATOM      2  C   UNL     1      45.534   4.470  12.431  0.00  0.00    +0.000 A 
ATOM      3  C   UNL     1      46.352   5.274  13.189  0.00  0.00    +0.000 A 
ATOM      4  C   UNL     1      46.059   6.625  12.862  0.00  0.00    +0.000 A 
ATOM      5  C   UNL     1      46.587   7.861  13.282  0.00  0.00    +0.000 A 
ATOM      6  C   UNL     1      46.085   9.048  12.735  0.00  0.00    +0.000 A 
ATOM      7  C   UNL     1      45.055   9.028  11.788  0.00  0.00    +0.000 A 
ATOM      8  C   UNL     1      44.505   7.798  11.377  0.00  0.00    +0.000 A 
ATOM      9  C   UNL     1      45.034   6.609  11.912  0.00  0.00    +0.000 A 
ENDROOT
BRANCH   7  10
ATOM     10  C   UNL     1      44.531  10.310  11.185  0.00  0.00    +0.000 C 
ATOM     11  F   UNL     1      44.192  10.196   9.869  0.00  0.00    +0.000 F 
ATOM     12  F   UNL     1      43.411  10.762  11.816  0.00  0.00    +0.000 F 
ATOM     13  F   UNL     1      45.433  11.329  11.248  0.00  0.00    +0.000 F 
ENDBRANCH   7  10
BRANCH   1  14
ATOM     14  C   UNL     1      43.874   4.796  10.585  0.00  0.00    +0.000 C 
BRANCH  14  18
ATOM     15  C   UNL     1      46.096   2.370   7.861  0.00  0.00    +0.000 A 
ATOM     16  C   UNL     1      45.276   1.755   8.807  0.00  0.00    +0.000 A 
ATOM     17  C   UNL     1      44.511   2.535   9.672  0.00  0.00    +0.000 A 
ATOM     18  C   UNL     1      44.596   3.924   9.590  0.00  0.00    +0.000 A 
ATOM     19  N   UNL     1      45.388   4.542   8.677  0.00  0.00    +0.000 NA
ATOM     20  C   UNL     1      46.104   3.760   7.835  0.00  0.00    +0.000 A 
BRANCH  15  21
ATOM     21  C   UNL     1      46.966   1.565   6.932  0.00  0.00    +0.000 C 
BRANCH  21  22
ATOM     22  C   UNL     1      48.222   2.336   6.509  0.00  0.00    +0.000 C 
BRANCH  22  23
ATOM     23  N   UNL     1      48.269   2.512   5.058  0.00  0.00    +0.000 NA
ATOM     24  H   UNL     1      48.290   1.596   4.609  0.00  0.00    +0.000 HD
ATOM     25  H   UNL     1      49.138   2.975   4.793  0.00  0.00    +0.000 HD
ENDBRANCH  22  23
ENDBRANCH  21  22
ENDBRANCH  15  21
ENDBRANCH  14  18
ENDBRANCH   1  14
TORSDOF 6
ENDMDL
MODEL 2
REMARK VINA RESULT:    -7.423      1.500      2.111
REMARK INTER + INTRA:         -10.379
REMARK INTER:                  -9.731
REMARK INTRA:                  -0.648
REMARK UNBOUND:                -0.570
REMARK  Name = 
REMARK  6 active torsions:
REMARK  status: ('A' for Active; 'I' for Inactive)
REMARK    1  A    between atoms: N_1  and  C_2
REMARK    2  A    between atoms: C_2  and  C_3
REMARK    3  A    between atoms: C_3  and  C_4
REMARK    4  A    between atoms: C_7  and  C_8
REMARK    5  A    between atoms: C_8  and  N_9
REMARK    6  A    between atoms: C_15  and  C_16
REMARK                            x       y       z     vdW  Elec       q    Type
REMARK                         _______ _______ _______ _____ _____    ______ ____
ROOT
ATOM      1  N   UNL     1      45.344   5.050  12.262  0.00  0.00    +0.000 N 
ATOM      2  C   UNL     1      45.702   3.898  12.922  0.00  0.00    +0.000 A 
ATOM      3  C   UNL     1      46.815   4.171  13.681  0.00  0.00    +0.000 A 
ATOM      4  C   UNL     1      47.162   5.533  13.471  0.00  0.00    +0.000 A 
ATOM      5  C   UNL     1      48.205   6.353  13.944  0.00  0.00    +0.000 A 
ATOM      6  C   UNL     1      48.285   7.683  13.516  0.00  0.00    +0.000 A 
ATOM      7  C   UNL     1      47.335   8.218  12.637  0.00  0.00    +0.000 A 
ATOM      8  C   UNL     1      46.276   7.413  12.177  0.00  0.00    +0.000 A 
ATOM      9  C   UNL     1      46.218   6.070  12.590  0.00  0.00    +0.000 A 
ENDROOT
BRANCH   7  10
ATOM     10  C   UNL     1      47.438   9.648  12.163  0.00  0.00    +0.000 C 
ATOM     11  F   UNL     1      47.797  10.524  13.145  0.00  0.00    +0.000 F 
ATOM     12  F   UNL     1      48.364   9.804  11.176  0.00  0.00    +0.000 F 
ATOM     13  F   UNL     1      46.267  10.122  11.655  0.00  0.00    +0.000 F 
ENDBRANCH   7  10
BRANCH   1  14
ATOM     14  C   UNL     1      44.327   5.107  11.215  0.00  0.00    +0.000 C 
BRANCH  14  18
ATOM     15  C   UNL     1      45.807   3.387   7.597  0.00  0.00    +0.000 A 
ATOM     16  C   UNL     1      44.934   2.648   8.395  0.00  0.00    +0.000 A 
ATOM     17  C   UNL     1      44.408   3.213   9.555  0.00  0.00    +0.000 A 
ATOM     18  C   UNL     1      44.784   4.509   9.910  0.00  0.00    +0.000 A 
ATOM     19  N   UNL     1      45.633   5.244   9.147  0.00  0.00    +0.000 NA
ATOM     20  C   UNL     1      46.111   4.677   8.016  0.00  0.00    +0.000 A 
BRANCH  15  21
ATOM     21  C   UNL     1      46.427   2.800   6.356  0.00  0.00    +0.000 C 
BRANCH  21  22
ATOM     22  C   UNL     1      47.524   1.782   6.688  0.00  0.00    +0.000 C 
BRANCH  22  23
ATOM     23  N   UNL     1      48.605   1.831   5.705  0.00  0.00    +0.000 NA
ATOM     24  H   UNL     1      49.353   2.429   6.056  0.00  0.00    +0.000 HD
ATOM     25  H   UNL     1      48.273   2.271   4.847  0.00  0.00    +0.000 HD
ENDBRANCH  22  23
ENDBRANCH  21  22
ENDBRANCH  15  21
ENDBRANCH  14  18
ENDBRANCH   1  14
TORSDOF 6
ENDMDL
MODEL 3
REMARK VINA RESULT:    -7.063      3.816      4.626
REMARK INTER + INTRA:          -9.904
REMARK INTER:                  -9.598
REMARK INTRA:                  -0.306
REMARK UNBOUND:                -0.570
REMARK  Name = 
REMARK  6 active torsions:
REMARK  status: ('A' for Active; 'I' for Inactive)
REMARK    1  A    between atoms: N_1  and  C_2
REMARK    2  A    between atoms: C_2  and  C_3
REMARK    3  A    between atoms: C_3  and  C_4
REMARK    4  A    between atoms: C_7  and  C_8
REMARK    5  A    between atoms: C_8  and  N_9
REMARK    6  A    between atoms: C_15  and  C_16
REMARK                            x       y       z     vdW  Elec       q    Type
REMARK                         _______ _______ _______ _____ _____    ______ ____
ROOT
ATOM      1  N   UNL     1      45.660   5.988  12.095  0.00  0.00    +0.000 N 
ATOM      2  C   UNL     1      45.811   7.260  11.595  0.00  0.00    +0.000 A 
ATOM      3  C   UNL     1      46.725   7.921  12.381  0.00  0.00    +0.000 A 
ATOM      4  C   UNL     1      47.141   7.030  13.407  0.00  0.00    +0.000 A 
ATOM      5  C   UNL     1      48.017   7.154  14.502  0.00  0.00    +0.000 A 
ATOM      6  C   UNL     1      48.197   6.069  15.369  0.00  0.00    +0.000 A 
ATOM      7  C   UNL     1      47.530   4.857  15.156  0.00  0.00    +0.000 A 
ATOM      8  C   UNL     1      46.668   4.716  14.052  0.00  0.00    +0.000 A 
ATOM      9  C   UNL     1      46.473   5.820  13.201  0.00  0.00    +0.000 A 
ENDROOT
BRANCH   7  10
ATOM     10  C   UNL     1      47.711   3.697  16.106  0.00  0.00    +0.000 C 
ATOM     11  F   UNL     1      48.794   3.826  16.925  0.00  0.00    +0.000 F 
ATOM     12  F   UNL     1      46.642   3.530  16.934  0.00  0.00    +0.000 F 
ATOM     13  F   UNL     1      47.874   2.507  15.462  0.00  0.00    +0.000 F 
ENDBRANCH   7  10
BRANCH   1  14
ATOM     14  C   UNL     1      44.634   5.051  11.645  0.00  0.00    +0.000 C 
BRANCH  14  18
ATOM     15  C   UNL     1      45.871   3.047   8.082  0.00  0.00    +0.000 A 
ATOM     16  C   UNL     1      45.284   2.309   9.109  0.00  0.00    +0.000 A 
ATOM     17  C   UNL     1      44.835   2.956  10.259  0.00  0.00    +0.000 A 
ATOM     18  C   UNL     1      45.001   4.337  10.370  0.00  0.00    +0.000 A 
ATOM     19  N   UNL     1      45.570   5.073   9.382  0.00  0.00    +0.000 NA
ATOM     20  C   UNL     1      45.977   4.421   8.268  0.00  0.00    +0.000 A 
BRANCH  15  21
ATOM     21  C   UNL     1      46.403   2.382   6.839  0.00  0.00    +0.000 C 
BRANCH  21  22
ATOM     22  C   UNL     1      47.933   2.448   6.763  0.00  0.00    +0.000 C 
BRANCH  22  23
ATOM     23  N   UNL     1      48.431   1.761   5.572  0.00  0.00    +0.000 NA
ATOM     24  H   UNL     1      48.249   2.337   4.751  0.00  0.00    +0.000 HD
ATOM     25  H   UNL     1      47.914   0.895   5.429  0.00  0.00    +0.000 HD
ENDBRANCH  22  23
ENDBRANCH  21  22
ENDBRANCH  15  21
ENDBRANCH  14  18
ENDBRANCH   1  14
TORSDOF 6
ENDMDL
MODEL 4
REMARK VINA RESULT:    -6.847      3.634      6.992
REMARK INTER + INTRA:          -9.619
REMARK INTER:                  -8.946
REMARK INTRA:                  -0.673
REMARK UNBOUND:                -0.570
REMARK  Name = 
REMARK  6 active torsions:
REMARK  status: ('A' for Active; 'I' for Inactive)
REMARK    1  A    between atoms: N_1  and  C_2
REMARK    2  A    between atoms: C_2  and  C_3
REMARK    3  A    between atoms: C_3  and  C_4
REMARK    4  A    between atoms: C_7  and  C_8
REMARK    5  A    between atoms: C_8  and  N_9
REMARK    6  A    between atoms: C_15  and  C_16
REMARK                            x       y       z     vdW  Elec       q    Type
REMARK                         _______ _______ _______ _____ _____    ______ ____
ROOT
ATOM      1  N   UNL     1      44.335   5.479  11.180  0.00  0.00    +0.000 N 
ATOM      2  C   UNL     1      43.444   4.975  12.099  0.00  0.00    +0.000 A 
ATOM      3  C   UNL     1      43.245   3.645  11.813  0.00  0.00    +0.000 A 
ATOM      4  C   UNL     1      44.028   3.323  10.672  0.00  0.00    +0.000 A 
ATOM      5  C   UNL     1      44.202   2.148   9.916  0.00  0.00    +0.000 A 
ATOM      6  C   UNL     1      45.048   2.164   8.801  0.00  0.00    +0.000 A 
ATOM      7  C   UNL     1      45.739   3.326   8.434  0.00  0.00    +0.000 A 
ATOM      8  C   UNL     1      45.588   4.500   9.197  0.00  0.00    +0.000 A 
ATOM      9  C   UNL     1      44.715   4.482  10.300  0.00  0.00    +0.000 A 
ENDROOT
BRANCH   7  10
ATOM     10  C   UNL     1      46.634   3.343   7.218  0.00  0.00    +0.000 C 
ATOM     11  F   UNL     1      47.694   2.489   7.309  0.00  0.00    +0.000 F 
ATOM     12  F   UNL     1      45.974   2.990   6.080  0.00  0.00    +0.000 F 
ATOM     13  F   UNL     1      47.169   4.572   6.974  0.00  0.00    +0.000 F 
ENDBRANCH   7  10
BRANCH   1  14
ATOM     14  C   UNL     1      44.647   6.899  11.040  0.00  0.00    +0.000 C 
BRANCH  14  18
ATOM     15  C   UNL     1      47.933   8.014  13.530  0.00  0.00    +0.000 A 
ATOM     16  C   UNL     1      48.138   7.089  12.507  0.00  0.00    +0.000 A 
ATOM     17  C   UNL     1      47.085   6.749  11.658  0.00  0.00    +0.000 A 
ATOM     18  C   UNL     1      45.834   7.330  11.863  0.00  0.00    +0.000 A 
ATOM     19  N   UNL     1      45.614   8.232  12.853  0.00  0.00    +0.000 NA
ATOM     20  C   UNL     1      46.659   8.558  13.648  0.00  0.00    +0.000 A 
BRANCH  15  21
ATOM     21  C   UNL     1      49.034   8.381  14.491  0.00  0.00    +0.000 C 
BRANCH  21  22
ATOM     22  C   UNL     1      49.912   7.175  14.844  0.00  0.00    +0.000 C 
BRANCH  22  23
ATOM     23  N   UNL     1      49.198   6.237  15.708  0.00  0.00    +0.000 NA
ATOM     24  H   UNL     1      48.243   6.568  15.848  0.00  0.00    +0.000 HD
ATOM     25  H   UNL     1      49.628   6.219  16.632  0.00  0.00    +0.000 HD
ENDBRANCH  22  23
ENDBRANCH  21  22
ENDBRANCH  15  21
ENDBRANCH  14  18
ENDBRANCH   1  14
TORSDOF 6
ENDMDL
MODEL 5
REMARK VINA RESULT:    -6.298      5.276      7.642
REMARK INTER + INTRA:          -8.893
REMARK INTER:                  -8.748
REMARK INTRA:                  -0.145
REMARK UNBOUND:                -0.570
REMARK  Name = 
REMARK  6 active torsions:
REMARK  status: ('A' for Active; 'I' for Inactive)
REMARK    1  A    between atoms: N_1  and  C_2
REMARK    2  A    between atoms: C_2  and  C_3
REMARK    3  A    between atoms: C_3  and  C_4
REMARK    4  A    between atoms: C_7  and  C_8
REMARK    5  A    between atoms: C_8  and  N_9
REMARK    6  A    between atoms: C_15  and  C_16
REMARK                            x       y       z     vdW  Elec       q    Type
REMARK                         _______ _______ _______ _____ _____    ______ ____
ROOT
ATOM      1  N   UNL     1      47.171   5.206  14.764  0.00  0.00    +0.000 N 
ATOM      2  C   UNL     1      48.260   6.043  14.708  0.00  0.00    +0.000 A 
ATOM      3  C   UNL     1      48.261   6.660  13.479  0.00  0.00    +0.000 A 
ATOM      4  C   UNL     1      47.142   6.176  12.749  0.00  0.00    +0.000 A 
ATOM      5  C   UNL     1      46.656   6.415  11.450  0.00  0.00    +0.000 A 
ATOM      6  C   UNL     1      45.510   5.742  11.007  0.00  0.00    +0.000 A 
ATOM      7  C   UNL     1      44.830   4.847  11.842  0.00  0.00    +0.000 A 
ATOM      8  C   UNL     1      45.297   4.618  13.151  0.00  0.00    +0.000 A 
ATOM      9  C   UNL     1      46.463   5.278  13.578  0.00  0.00    +0.000 A 
ENDROOT
BRANCH   7  10
ATOM     10  C   UNL     1      43.607   4.109  11.352  0.00  0.00    +0.000 C 
ATOM     11  F   UNL     1      43.574   3.945   9.999  0.00  0.00    +0.000 F 
ATOM     12  F   UNL     1      43.511   2.855  11.876  0.00  0.00    +0.000 F 
ATOM     13  F   UNL     1      42.444   4.739  11.677  0.00  0.00    +0.000 F 
ENDBRANCH   7  10
BRANCH   1  14
ATOM     14  C   UNL     1      46.938   4.240  15.834  0.00  0.00    +0.000 C 
BRANCH  14  18
ATOM     15  C   UNL     1      50.635   2.873  17.480  0.00  0.00    +0.000 A 
ATOM     16  C   UNL     1      50.157   4.135  17.834  0.00  0.00    +0.000 A 
ATOM     17  C   UNL     1      48.931   4.575  17.340  0.00  0.00    +0.000 A 
ATOM     18  C   UNL     1      48.209   3.749  16.478  0.00  0.00    +0.000 A 
ATOM     19  N   UNL     1      48.657   2.518  16.121  0.00  0.00    +0.000 NA
ATOM     20  C   UNL     1      49.841   2.108  16.633  0.00  0.00    +0.000 A 
BRANCH  15  21
ATOM     21  C   UNL     1      51.972   2.374  17.962  0.00  0.00    +0.000 C 
BRANCH  21  22
ATOM     22  C   UNL     1      52.320   1.002  17.371  0.00  0.00    +0.000 C 
BRANCH  22  23
ATOM     23  N   UNL     1      52.315  -0.033  18.403  0.00  0.00    +0.000 NA
ATOM     24  H   UNL     1      51.451  -0.571  18.336  0.00  0.00    +0.000 HD
ATOM     25  H   UNL     1      52.307   0.398  19.327  0.00  0.00    +0.000 HD
ENDBRANCH  22  23
ENDBRANCH  21  22
ENDBRANCH  15  21
ENDBRANCH  14  18
ENDBRANCH   1  14
TORSDOF 6
ENDMDL
MODEL 6
REMARK VINA RESULT:    -6.235      4.096      5.182
REMARK INTER + INTRA:          -8.810
REMARK INTER:                  -8.150
REMARK INTRA:                  -0.660
REMARK UNBOUND:                -0.570
REMARK  Name = 
REMARK  6 active torsions:
REMARK  status: ('A' for Active; 'I' for Inactive)
REMARK    1  A    between atoms: N_1  and  C_2
REMARK    2  A    between atoms: C_2  and  C_3
REMARK    3  A    between atoms: C_3  and  C_4
REMARK    4  A    between atoms: C_7  and  C_8
REMARK    5  A    between atoms: C_8  and  N_9
REMARK    6  A    between atoms: C_15  and  C_16
REMARK                            x       y       z     vdW  Elec       q    Type
REMARK                         _______ _______ _______ _____ _____    ______ ____
ROOT
ATOM      1  N   UNL     1      46.495   6.949  12.674  0.00  0.00    +0.000 N 
ATOM      2  C   UNL     1      47.062   8.080  12.135  0.00  0.00    +0.000 A 
ATOM      3  C   UNL     1      48.201   8.367  12.848  0.00  0.00    +0.000 A 
ATOM      4  C   UNL     1      48.335   7.388  13.869  0.00  0.00    +0.000 A 
ATOM      5  C   UNL     1      49.266   7.189  14.906  0.00  0.00    +0.000 A 
ATOM      6  C   UNL     1      49.098   6.114  15.787  0.00  0.00    +0.000 A 
ATOM      7  C   UNL     1      48.027   5.223  15.645  0.00  0.00    +0.000 A 
ATOM      8  C   UNL     1      47.103   5.401  14.598  0.00  0.00    +0.000 A 
ATOM      9  C   UNL     1      47.264   6.500  13.734  0.00  0.00    +0.000 A 
ENDROOT
BRANCH   7  10
ATOM     10  C   UNL     1      47.840   4.077  16.610  0.00  0.00    +0.000 C 
ATOM     11  F   UNL     1      47.655   2.872  15.998  0.00  0.00    +0.000 F 
ATOM     12  F   UNL     1      48.912   3.910  17.434  0.00  0.00    +0.000 F 
ATOM     13  F   UNL     1      46.764   4.246  17.428  0.00  0.00    +0.000 F 
ENDBRANCH   7  10
BRANCH   1  14
ATOM     14  C   UNL     1      45.175   6.444  12.310  0.00  0.00    +0.000 C 
BRANCH  14  18
ATOM     15  C   UNL     1      45.119   3.084   9.674  0.00  0.00    +0.000 A 
ATOM     16  C   UNL     1      45.438   4.343   9.165  0.00  0.00    +0.000 A 
ATOM     17  C   UNL     1      45.503   5.440  10.022  0.00  0.00    +0.000 A 
ATOM     18  C   UNL     1      45.227   5.261  11.377  0.00  0.00    +0.000 A 
ATOM     19  N   UNL     1      44.915   4.045  11.892  0.00  0.00    +0.000 NA
ATOM     20  C   UNL     1      44.879   2.994  11.040  0.00  0.00    +0.000 A 
BRANCH  15  21
ATOM     21  C   UNL     1      45.001   1.880   8.776  0.00  0.00    +0.000 C 
BRANCH  21  22
ATOM     22  C   UNL     1      46.294   1.618   7.995  0.00  0.00    +0.000 C 
BRANCH  22  23
ATOM     23  N   UNL     1      46.601   0.189   7.947  0.00  0.00    +0.000 NA
ATOM     24  H   UNL     1      47.442   0.044   7.388  0.00  0.00    +0.000 HD
ATOM     25  H   UNL     1      45.854  -0.310   7.465  0.00  0.00    +0.000 HD
ENDBRANCH  22  23
ENDBRANCH  21  22
ENDBRANCH  15  21
ENDBRANCH  14  18
ENDBRANCH   1  14
TORSDOF 6
ENDMDL
MODEL 7
REMARK VINA RESULT:    -6.155      4.469      7.691
REMARK INTER + INTRA:          -8.705
REMARK INTER:                  -8.128
REMARK INTRA:                  -0.577
REMARK UNBOUND:                -0.570
REMARK  Name = 
REMARK  6 active torsions:
REMARK  status: ('A' for Active; 'I' for Inactive)
REMARK    1  A    between atoms: N_1  and  C_2
REMARK    2  A    between atoms: C_2  and  C_3
REMARK    3  A    between atoms: C_3  and  C_4
REMARK    4  A    between atoms: C_7  and  C_8
REMARK    5  A    between atoms: C_8  and  N_9
REMARK    6  A    between atoms: C_15  and  C_16
REMARK                            x       y       z     vdW  Elec       q    Type
REMARK                         _______ _______ _______ _____ _____    ______ ____
ROOT
ATOM      1  N   UNL     1      46.786   7.069  13.034  0.00  0.00    +0.000 N 
ATOM      2  C   UNL     1      46.535   8.414  13.165  0.00  0.00    +0.000 A 
ATOM      3  C   UNL     1      45.322   8.681  12.574  0.00  0.00    +0.000 A 
ATOM      4  C   UNL     1      44.816   7.461  12.050  0.00  0.00    +0.000 A 
ATOM      5  C   UNL     1      43.657   7.124  11.326  0.00  0.00    +0.000 A 
ATOM      6  C   UNL     1      43.456   5.799  10.922  0.00  0.00    +0.000 A 
ATOM      7  C   UNL     1      44.382   4.798  11.241  0.00  0.00    +0.000 A 
ATOM      8  C   UNL     1      45.534   5.121  11.984  0.00  0.00    +0.000 A 
ATOM      9  C   UNL     1      45.740   6.460  12.362  0.00  0.00    +0.000 A 
ENDROOT
BRANCH   7  10
ATOM     10  C   UNL     1      44.171   3.374  10.785  0.00  0.00    +0.000 C 
ATOM     11  F   UNL     1      43.187   2.722  11.468  0.00  0.00    +0.000 F 
ATOM     12  F   UNL     1      43.821   3.294   9.471  0.00  0.00    +0.000 F 
ATOM     13  F   UNL     1      45.287   2.605  10.921  0.00  0.00    +0.000 F 
ENDBRANCH   7  10
BRANCH   1  14
ATOM     14  C   UNL     1      48.061   6.440  13.366  0.00  0.00    +0.000 C 
BRANCH  14  18
ATOM     15  C   UNL     1      48.214   4.466  17.151  0.00  0.00    +0.000 A 
ATOM     16  C   UNL     1      48.810   5.720  17.012  0.00  0.00    +0.000 A 
ATOM     17  C   UNL     1      48.729   6.395  15.796  0.00  0.00    +0.000 A 
ATOM     18  C   UNL     1      48.067   5.792  14.727  0.00  0.00    +0.000 A 
ATOM     19  N   UNL     1      47.481   4.572  14.841  0.00  0.00    +0.000 NA
ATOM     20  C   UNL     1      47.558   3.949  16.039  0.00  0.00    +0.000 A 
BRANCH  15  21
ATOM     21  C   UNL     1      48.311   3.687  18.436  0.00  0.00    +0.000 C 
BRANCH  21  22
ATOM     22  C   UNL     1      48.782   4.562  19.604  0.00  0.00    +0.000 C 
BRANCH  22  23
ATOM     23  N   UNL     1      48.415   3.969  20.889  0.00  0.00    +0.000 NA
ATOM     24  H   UNL     1      49.142   3.314  21.178  0.00  0.00    +0.000 HD
ATOM     25  H   UNL     1      47.564   3.418  20.786  0.00  0.00    +0.000 HD
ENDBRANCH  22  23
ENDBRANCH  21  22
ENDBRANCH  15  21
ENDBRANCH  14  18
ENDBRANCH   1  14
TORSDOF 6
ENDMDL
MODEL 8
REMARK VINA RESULT:    -5.601      4.998      6.864
REMARK INTER + INTRA:          -7.972
REMARK INTER:                  -7.372
REMARK INTRA:                  -0.600
REMARK UNBOUND:                -0.570
REMARK  Name = 
REMARK  6 active torsions:
REMARK  status: ('A' for Active; 'I' for Inactive)
REMARK    1  A    between atoms: N_1  and  C_2
REMARK    2  A    between atoms: C_2  and  C_3
REMARK    3  A    between atoms: C_3  and  C_4
REMARK    4  A    between atoms: C_7  and  C_8
REMARK    5  A    between atoms: C_8  and  N_9
REMARK    6  A    between atoms: C_15  and  C_16
REMARK                            x       y       z     vdW  Elec       q    Type
REMARK                         _______ _______ _______ _____ _____    ______ ____
ROOT
ATOM      1  N   UNL     1      48.616   7.756  14.025  0.00  0.00    +0.000 N 
ATOM      2  C   UNL     1      49.615   8.474  13.410  0.00  0.00    +0.000 A 
ATOM      3  C   UNL     1      50.795   8.206  14.063  0.00  0.00    +0.000 A 
ATOM      4  C   UNL     1      50.512   7.303  15.122  0.00  0.00    +0.000 A 
ATOM      5  C   UNL     1      51.299   6.712  16.129  0.00  0.00    +0.000 A 
ATOM      6  C   UNL     1      50.698   5.863  17.066  0.00  0.00    +0.000 A 
ATOM      7  C   UNL     1      49.328   5.580  17.009  0.00  0.00    +0.000 A 
ATOM      8  C   UNL     1      48.537   6.149  15.994  0.00  0.00    +0.000 A 
ATOM      9  C   UNL     1      49.144   7.022  15.073  0.00  0.00    +0.000 A 
ENDROOT
BRANCH   7  10
ATOM     10  C   UNL     1      48.681   4.680  18.035  0.00  0.00    +0.000 C 
ATOM     11  F   UNL     1      47.323   4.798  18.085  0.00  0.00    +0.000 F 
ATOM     12  F   UNL     1      48.927   3.360  17.799  0.00  0.00    +0.000 F 
ATOM     13  F   UNL     1      49.120   4.921  19.302  0.00  0.00    +0.000 F 
ENDBRANCH   7  10
BRANCH   1  14
ATOM     14  C   UNL     1      47.195   7.925  13.739  0.00  0.00    +0.000 C 
BRANCH  14  18
ATOM     15  C   UNL     1      45.371   4.803  11.465  0.00  0.00    +0.000 A 
ATOM     16  C   UNL     1      45.915   5.901  10.799  0.00  0.00    +0.000 A 
ATOM     17  C   UNL     1      46.553   6.905  11.525  0.00  0.00    +0.000 A 
ATOM     18  C   UNL     1      46.617   6.803  12.915  0.00  0.00    +0.000 A 
ATOM     19  N   UNL     1      46.093   5.743  13.582  0.00  0.00    +0.000 NA
ATOM     20  C   UNL     1      45.499   4.773  12.850  0.00  0.00    +0.000 A 
BRANCH  15  21
ATOM     21  C   UNL     1      44.641   3.715  10.722  0.00  0.00    +0.000 C 
BRANCH  21  22
ATOM     22  C   UNL     1      43.241   3.466  11.297  0.00  0.00    +0.000 C 
BRANCH  22  23
ATOM     23  N   UNL     1      43.082   2.074  11.714  0.00  0.00    +0.000 NA
ATOM     24  H   UNL     1      42.900   1.495  10.894  0.00  0.00    +0.000 HD
ATOM     25  H   UNL     1      42.260   1.982  12.310  0.00  0.00    +0.000 HD
ENDBRANCH  22  23
ENDBRANCH  21  22
ENDBRANCH  15  21
ENDBRANCH  14  18
ENDBRANCH   1  14
TORSDOF 6
ENDMDL
MODEL 9
REMARK VINA RESULT:    -5.145      5.125      7.077
REMARK INTER + INTRA:          -7.370
REMARK INTER:                  -6.727
REMARK INTRA:                  -0.644
REMARK UNBOUND:                -0.570
REMARK  Name = 
REMARK  6 active torsions:
REMARK  status: ('A' for Active; 'I' for Inactive)
REMARK    1  A    between atoms: N_1  and  C_2
REMARK    2  A    between atoms: C_2  and  C_3
REMARK    3  A    between atoms: C_3  and  C_4
REMARK    4  A    between atoms: C_7  and  C_8
REMARK    5  A    between atoms: C_8  and  N_9
REMARK    6  A    between atoms: C_15  and  C_16
REMARK                            x       y       z     vdW  Elec       q    Type
REMARK                         _______ _______ _______ _____ _____    ______ ____
ROOT
ATOM      1  N   UNL     1      47.150   7.823  13.340  0.00  0.00    +0.000 N 
ATOM      2  C   UNL     1      46.778   9.112  13.038  0.00  0.00    +0.000 A 
ATOM      3  C   UNL     1      45.624   9.060  12.292  0.00  0.00    +0.000 A 
ATOM      4  C   UNL     1      45.281   7.692  12.118  0.00  0.00    +0.000 A 
ATOM      5  C   UNL     1      44.244   7.032  11.431  0.00  0.00    +0.000 A 
ATOM      6  C   UNL     1      44.198   5.633  11.429  0.00  0.00    +0.000 A 
ATOM      7  C   UNL     1      45.159   4.878  12.112  0.00  0.00    +0.000 A 
ATOM      8  C   UNL     1      46.187   5.529  12.820  0.00  0.00    +0.000 A 
ATOM      9  C   UNL     1      46.241   6.934  12.795  0.00  0.00    +0.000 A 
ENDROOT
BRANCH   7  10
ATOM     10  C   UNL     1      45.116   3.368  12.090  0.00  0.00    +0.000 C 
ATOM     11  F   UNL     1      45.265   2.837  10.842  0.00  0.00    +0.000 F 
ATOM     12  F   UNL     1      46.101   2.808  12.847  0.00  0.00    +0.000 F 
ATOM     13  F   UNL     1      43.944   2.866  12.568  0.00  0.00    +0.000 F 
ENDBRANCH   7  10
BRANCH   1  14
ATOM     14  C   UNL     1      48.425   7.464  13.954  0.00  0.00    +0.000 C 
BRANCH  14  18
ATOM     15  C   UNL     1      51.916   8.430  11.691  0.00  0.00    +0.000 A 
ATOM     16  C   UNL     1      50.884   7.718  11.080  0.00  0.00    +0.000 A 
ATOM     17  C   UNL     1      49.720   7.435  11.793  0.00  0.00    +0.000 A 
ATOM     18  C   UNL     1      49.617   7.854  13.119  0.00  0.00    +0.000 A 
ATOM     19  N   UNL     1      50.610   8.548  13.732  0.00  0.00    +0.000 NA
ATOM     20  C   UNL     1      51.720   8.826  13.010  0.00  0.00    +0.000 A 
BRANCH  15  21
ATOM     21  C   UNL     1      53.204   8.725  10.969  0.00  0.00    +0.000 C 
BRANCH  21  22
ATOM     22  C   UNL     1      54.368   7.880  11.502  0.00  0.00    +0.000 C 
BRANCH  22  23
ATOM     23  N   UNL     1      55.654   8.510  11.209  0.00  0.00    +0.000 NA
ATOM     24  H   UNL     1      55.910   9.127  11.979  0.00  0.00    +0.000 HD
ATOM     25  H   UNL     1      55.569   9.107  10.387  0.00  0.00    +0.000 HD
ENDBRANCH  22  23
ENDBRANCH  21  22
ENDBRANCH  15  21
ENDBRANCH  14  18
ENDBRANCH   1  14
TORSDOF 6
ENDMDL
