MODEL 1
REMARK VINA RESULT:    -8.318      0.000      0.000
REMARK INTER + INTRA:         -10.994
REMARK INTER:                 -10.263
REMARK INTRA:                  -0.732
REMARK UNBOUND:                -0.732
REMARK  Name = 
REMARK  4 active torsions:
REMARK  status: ('A' for Active; 'I' for Inactive)
REMARK    1  A    between atoms: C_2  and  C_4
REMARK    2  A    between atoms: N_8  and  C_9
REMARK    3  A    between atoms: C_9  and  C_10
REMARK    4  A    between atoms: C_12  and  N_13
REMARK                            x       y       z     vdW  Elec       q    Type
REMARK                         _______ _______ _______ _____ _____    ______ ____
ROOT
ATOM      1  C   UNL     1      46.382   2.295   7.582  0.00  0.00    +0.000 A 
ATOM      2  C   UNL     1      45.829   1.899   8.793  0.00  0.00    +0.000 A 
ATOM      3  C   UNL     1      45.031   2.793   9.499  0.00  0.00    +0.000 A 
ATOM      4  C   UNL     1      44.796   4.069   8.990  0.00  0.00    +0.000 A 
ATOM      5  N   UNL     1      44.044   5.006   9.636  0.00  0.00    +0.000 N 
ATOM      6  N   UNL     1      45.332   4.464   7.817  0.00  0.00    +0.000 NA
ATOM      7  C   UNL     1      46.120   3.583   7.144  0.00  0.00    +0.000 A 
ATOM      8  H   UNL     1      43.916   5.866   9.121  0.00  0.00    +0.000 HD
ENDROOT
BRANCH   1  10
ATOM      9  N   UNL     1      48.319   1.975   6.163  0.00  0.00    +0.000 N 
ATOM     10  C   UNL     1      47.241   1.403   6.779  0.00  0.00    +0.000 C 
ATOM     11  O   UNL     1      47.011   0.205   6.687  0.00  0.00    +0.000 OA
ATOM     12  H   UNL     1      48.952   1.349   5.679  0.00  0.00    +0.000 HD
ATOM     13  H   UNL     1      48.663   2.892   6.406  0.00  0.00    +0.000 HD
ENDBRANCH   1  10
BRANCH   5  14
ATOM     14  C   UNL     1      43.452   4.854  10.947  0.00  0.00    +0.000 C 
BRANCH  14  15
ATOM     15  C   UNL     1      44.473   4.975  12.063  0.00  0.00    +0.000 A 
ATOM     16  C   UNL     1      45.266   6.123  12.159  0.00  0.00    +0.000 A 
ATOM     17  C   UNL     1      46.300   6.198  13.095  0.00  0.00    +0.000 A 
ATOM     18  C   UNL     1      46.455   5.091  13.931  0.00  0.00    +0.000 A 
ATOM     19  C   UNL     1      45.614   3.995  13.799  0.00  0.00    +0.000 A 
ATOM     20  N   UNL     1      44.632   3.908  12.884  0.00  0.00    +0.000 NA
BRANCH  17  21
ATOM     21  N   UNL     1      47.143   7.290  13.161  0.00  0.00    +0.000 N 
ATOM     22  C   UNL     1      46.629   8.653  13.306  0.00  0.00    +0.000 C 
ATOM     23  C   UNL     1      47.010   9.472  12.077  0.00  0.00    +0.000 C 
ATOM     24  C   UNL     1      48.520   9.434  11.847  0.00  0.00    +0.000 C 
ATOM     25  C   UNL     1      49.035   7.995  11.783  0.00  0.00    +0.000 C 
ATOM     26  C   UNL     1      48.594   7.172  12.998  0.00  0.00    +0.000 C 
ENDBRANCH  17  21
ENDBRANCH  14  15
ENDBRANCH   5  14
TORSDOF 4
ENDMDL
MODEL 2
REMARK VINA RESULT:    -8.090      1.655      2.938
REMARK INTER + INTRA:         -10.713
REMARK INTER:                 -10.182
REMARK INTRA:                  -0.531
REMARK UNBOUND:                -0.732
REMARK  Name = 
REMARK  4 active torsions:
REMARK  status: ('A' for Active; 'I' for Inactive)
REMARK    1  A    between atoms: C_2  and  C_4
REMARK    2  A    between atoms: N_8  and  C_9
REMARK    3  A    between atoms: C_9  and  C_10
REMARK    4  A    between atoms: C_12  and  N_13
REMARK                            x       y       z     vdW  Elec       q    Type
REMARK                         _______ _______ _______ _____ _____    ______ ____
ROOT
ATOM      1  C   UNL     1      46.473   2.659   7.497  0.00  0.00    +0.000 A 
ATOM      2  C   UNL     1      46.185   4.007   7.666  0.00  0.00    +0.000 A 
ATOM      3  C   UNL     1      45.333   4.395   8.696  0.00  0.00    +0.000 A 
ATOM      4  C   UNL     1      44.780   3.436   9.540  0.00  0.00    +0.000 A 
ATOM      5  N   UNL     1      43.919   3.738  10.555  0.00  0.00    +0.000 N 
ATOM      6  N   UNL     1      45.050   2.124   9.382  0.00  0.00    +0.000 NA
ATOM      7  C   UNL     1      45.874   1.759   8.363  0.00  0.00    +0.000 A 
ATOM      8  H   UNL     1      43.642   2.946  11.118  0.00  0.00    +0.000 HD
ENDROOT
BRANCH   1  10
ATOM      9  N   UNL     1      47.556   3.002   5.358  0.00  0.00    +0.000 N 
ATOM     10  C   UNL     1      47.364   2.172   6.426  0.00  0.00    +0.000 C 
ATOM     11  O   UNL     1      47.921   1.086   6.503  0.00  0.00    +0.000 OA
ATOM     12  H   UNL     1      48.229   2.702   4.663  0.00  0.00    +0.000 HD
ATOM     13  H   UNL     1      47.306   3.980   5.375  0.00  0.00    +0.000 HD
ENDBRANCH   1  10
BRANCH   5  14
ATOM     14  C   UNL     1      43.403   5.055  10.858  0.00  0.00    +0.000 C 
BRANCH  14  15
ATOM     15  C   UNL     1      44.431   5.941  11.535  0.00  0.00    +0.000 A 
ATOM     16  C   UNL     1      45.450   5.364  12.299  0.00  0.00    +0.000 A 
ATOM     17  C   UNL     1      46.326   6.164  13.038  0.00  0.00    +0.000 A 
ATOM     18  C   UNL     1      46.139   7.543  12.931  0.00  0.00    +0.000 A 
ATOM     19  C   UNL     1      45.124   8.048  12.132  0.00  0.00    +0.000 A 
ATOM     20  N   UNL     1      44.262   7.283  11.437  0.00  0.00    +0.000 NA
BRANCH  17  21
ATOM     21  N   UNL     1      47.294   5.616  13.856  0.00  0.00    +0.000 N 
ATOM     22  C   UNL     1      47.158   4.273  14.421  0.00  0.00    +0.000 C 
ATOM     23  C   UNL     1      47.097   4.366  15.942  0.00  0.00    +0.000 C 
ATOM     24  C   UNL     1      48.312   5.113  16.488  0.00  0.00    +0.000 C 
ATOM     25  C   UNL     1      48.473   6.477  15.817  0.00  0.00    +0.000 C 
ATOM     26  C   UNL     1      48.473   6.370  14.289  0.00  0.00    +0.000 C 
ENDBRANCH  17  21
ENDBRANCH  14  15
ENDBRANCH   5  14
TORSDOF 4
ENDMDL
MODEL 3
REMARK VINA RESULT:    -7.764      1.493      2.000
REMARK INTER + INTRA:         -10.312
REMARK INTER:                  -9.706
REMARK INTRA:                  -0.606
REMARK UNBOUND:                -0.732
REMARK  Name = 
REMARK  4 active torsions:
REMARK  status: ('A' for Active; 'I' for Inactive)
REMARK    1  A    between atoms: C_2  and  C_4
REMARK    2  A    between atoms: N_8  and  C_9
REMARK    3  A    between atoms: C_9  and  C_10
REMARK    4  A    between atoms: C_12  and  N_13
REMARK                            x       y       z     vdW  Elec       q    Type
REMARK                         _______ _______ _______ _____ _____    ______ ____
ROOT
ATOM      1  C   UNL     1      46.402   2.623   7.562  0.00  0.00    +0.000 A 
ATOM      2  C   UNL     1      46.259   3.981   7.818  0.00  0.00    +0.000 A 
ATOM      3  C   UNL     1      45.395   4.392   8.829  0.00  0.00    +0.000 A 
ATOM      4  C   UNL     1      44.686   3.447   9.567  0.00  0.00    +0.000 A 
ATOM      5  N   UNL     1      43.805   3.777  10.555  0.00  0.00    +0.000 N 
ATOM      6  N   UNL     1      44.816   2.127   9.323  0.00  0.00    +0.000 NA
ATOM      7  C   UNL     1      45.654   1.741   8.323  0.00  0.00    +0.000 A 
ATOM      8  H   UNL     1      43.407   2.985  11.040  0.00  0.00    +0.000 HD
ENDROOT
BRANCH   1  10
ATOM      9  N   UNL     1      47.433   2.883   5.385  0.00  0.00    +0.000 N 
ATOM     10  C   UNL     1      47.296   2.111   6.505  0.00  0.00    +0.000 C 
ATOM     11  O   UNL     1      47.902   1.056   6.635  0.00  0.00    +0.000 OA
ATOM     12  H   UNL     1      48.107   2.571   4.696  0.00  0.00    +0.000 HD
ATOM     13  H   UNL     1      47.140   3.848   5.349  0.00  0.00    +0.000 HD
ENDBRANCH   1  10
BRANCH   5  14
ATOM     14  C   UNL     1      43.423   5.121  10.931  0.00  0.00    +0.000 C 
BRANCH  14  15
ATOM     15  C   UNL     1      44.457   5.793  11.813  0.00  0.00    +0.000 A 
ATOM     16  C   UNL     1      44.591   7.185  11.791  0.00  0.00    +0.000 A 
ATOM     17  C   UNL     1      45.624   7.813  12.494  0.00  0.00    +0.000 A 
ATOM     18  C   UNL     1      46.463   6.976  13.231  0.00  0.00    +0.000 A 
ATOM     19  C   UNL     1      46.256   5.605  13.230  0.00  0.00    +0.000 A 
ATOM     20  N   UNL     1      45.279   4.992  12.536  0.00  0.00    +0.000 NA
BRANCH  17  21
ATOM     21  N   UNL     1      45.821   9.178  12.429  0.00  0.00    +0.000 N 
ATOM     22  C   UNL     1      44.740  10.098  12.072  0.00  0.00    +0.000 C 
ATOM     23  C   UNL     1      45.093  10.816  10.773  0.00  0.00    +0.000 C 
ATOM     24  C   UNL     1      46.446  11.516  10.892  0.00  0.00    +0.000 C 
ATOM     25  C   UNL     1      47.536  10.545  11.348  0.00  0.00    +0.000 C 
ATOM     26  C   UNL     1      47.138   9.790  12.620  0.00  0.00    +0.000 C 
ENDBRANCH  17  21
ENDBRANCH  14  15
ENDBRANCH   5  14
TORSDOF 4
ENDMDL
MODEL 4
REMARK VINA RESULT:    -7.596      4.492      8.437
REMARK INTER + INTRA:         -10.104
REMARK INTER:                  -9.547
REMARK INTRA:                  -0.556
REMARK UNBOUND:                -0.732
REMARK  Name = 
REMARK  4 active torsions:
REMARK  status: ('A' for Active; 'I' for Inactive)
REMARK    1  A    between atoms: C_2  and  C_4
REMARK    2  A    between atoms: N_8  and  C_9
REMARK    3  A    between atoms: C_9  and  C_10
REMARK    4  A    between atoms: C_12  and  N_13
REMARK                            x       y       z     vdW  Elec       q    Type
REMARK                         _______ _______ _______ _____ _____    ______ ____
ROOT
ATOM      1  C   UNL     1      48.549   4.563  18.484  0.00  0.00    +0.000 A 
ATOM      2  C   UNL     1      48.409   5.564  17.531  0.00  0.00    +0.000 A 
ATOM      3  C   UNL     1      47.852   5.249  16.295  0.00  0.00    +0.000 A 
ATOM      4  C   UNL     1      47.446   3.944  16.026  0.00  0.00    +0.000 A 
ATOM      5  N   UNL     1      46.915   3.557  14.831  0.00  0.00    +0.000 N 
ATOM      6  N   UNL     1      47.582   2.965  16.944  0.00  0.00    +0.000 NA
ATOM      7  C   UNL     1      48.140   3.285  18.143  0.00  0.00    +0.000 A 
ATOM      8  H   UNL     1      46.616   2.593  14.799  0.00  0.00    +0.000 HD
ENDROOT
BRANCH   1  10
ATOM      9  N   UNL     1      48.673   4.053  20.849  0.00  0.00    +0.000 N 
ATOM     10  C   UNL     1      49.133   4.820  19.816  0.00  0.00    +0.000 C 
ATOM     11  O   UNL     1      50.003   5.664  19.981  0.00  0.00    +0.000 OA
ATOM     12  H   UNL     1      49.131   4.174  21.745  0.00  0.00    +0.000 HD
ATOM     13  H   UNL     1      48.142   3.207  20.706  0.00  0.00    +0.000 HD
ENDBRANCH   1  10
BRANCH   5  14
ATOM     14  C   UNL     1      46.763   4.398  13.663  0.00  0.00    +0.000 C 
BRANCH  14  15
ATOM     15  C   UNL     1      45.543   4.034  12.839  0.00  0.00    +0.000 A 
ATOM     16  C   UNL     1      45.697   3.635  11.508  0.00  0.00    +0.000 A 
ATOM     17  C   UNL     1      44.580   3.424  10.694  0.00  0.00    +0.000 A 
ATOM     18  C   UNL     1      43.335   3.598  11.301  0.00  0.00    +0.000 A 
ATOM     19  C   UNL     1      43.256   3.969  12.635  0.00  0.00    +0.000 A 
ATOM     20  N   UNL     1      44.327   4.196  13.417  0.00  0.00    +0.000 NA
BRANCH  17  21
ATOM     21  N   UNL     1      44.707   3.100   9.358  0.00  0.00    +0.000 N 
ATOM     22  C   UNL     1      44.805   1.711   8.906  0.00  0.00    +0.000 C 
ATOM     23  C   UNL     1      46.159   1.489   8.240  0.00  0.00    +0.000 C 
ATOM     24  C   UNL     1      46.376   2.492   7.108  0.00  0.00    +0.000 C 
ATOM     25  C   UNL     1      46.184   3.929   7.595  0.00  0.00    +0.000 C 
ATOM     26  C   UNL     1      44.845   4.118   8.313  0.00  0.00    +0.000 C 
ENDBRANCH  17  21
ENDBRANCH  14  15
ENDBRANCH   5  14
TORSDOF 4
ENDMDL
MODEL 5
REMARK VINA RESULT:    -7.309      2.917      6.940
REMARK INTER + INTRA:          -9.750
REMARK INTER:                  -9.002
REMARK INTRA:                  -0.749
REMARK UNBOUND:                -0.732
REMARK  Name = 
REMARK  4 active torsions:
REMARK  status: ('A' for Active; 'I' for Inactive)
REMARK    1  A    between atoms: C_2  and  C_4
REMARK    2  A    between atoms: N_8  and  C_9
REMARK    3  A    between atoms: C_9  and  C_10
REMARK    4  A    between atoms: C_12  and  N_13
REMARK                            x       y       z     vdW  Elec       q    Type
REMARK                         _______ _______ _______ _____ _____    ______ ____
ROOT
ATOM      1  C   UNL     1      49.748   7.980  12.900  0.00  0.00    +0.000 A 
ATOM      2  C   UNL     1      48.721   8.207  11.993  0.00  0.00    +0.000 A 
ATOM      3  C   UNL     1      47.475   7.631  12.222  0.00  0.00    +0.000 A 
ATOM      4  C   UNL     1      47.271   6.838  13.348  0.00  0.00    +0.000 A 
ATOM      5  N   UNL     1      46.085   6.222  13.625  0.00  0.00    +0.000 N 
ATOM      6  N   UNL     1      48.263   6.609  14.232  0.00  0.00    +0.000 NA
ATOM      7  C   UNL     1      49.479   7.168  13.989  0.00  0.00    +0.000 A 
ATOM      8  H   UNL     1      46.069   5.724  14.504  0.00  0.00    +0.000 HD
ENDROOT
BRANCH   1  10
ATOM      9  N   UNL     1      52.085   8.067  13.532  0.00  0.00    +0.000 N 
ATOM     10  C   UNL     1      51.097   8.554  12.724  0.00  0.00    +0.000 C 
ATOM     11  O   UNL     1      51.322   9.410  11.879  0.00  0.00    +0.000 OA
ATOM     12  H   UNL     1      53.025   8.403  13.356  0.00  0.00    +0.000 HD
ATOM     13  H   UNL     1      51.985   7.214  14.062  0.00  0.00    +0.000 HD
ENDBRANCH   1  10
BRANCH   5  14
ATOM     14  C   UNL     1      44.911   6.235  12.780  0.00  0.00    +0.000 C 
BRANCH  14  15
ATOM     15  C   UNL     1      44.565   4.859  12.245  0.00  0.00    +0.000 A 
ATOM     16  C   UNL     1      44.928   4.508  10.940  0.00  0.00    +0.000 A 
ATOM     17  C   UNL     1      44.504   3.298  10.384  0.00  0.00    +0.000 A 
ATOM     18  C   UNL     1      43.747   2.471  11.215  0.00  0.00    +0.000 A 
ATOM     19  C   UNL     1      43.446   2.870  12.509  0.00  0.00    +0.000 A 
ATOM     20  N   UNL     1      43.831   4.044  13.042  0.00  0.00    +0.000 NA
BRANCH  17  21
ATOM     21  N   UNL     1      44.788   2.962   9.075  0.00  0.00    +0.000 N 
ATOM     22  C   UNL     1      44.981   1.572   8.660  0.00  0.00    +0.000 C 
ATOM     23  C   UNL     1      46.407   1.388   8.149  0.00  0.00    +0.000 C 
ATOM     24  C   UNL     1      46.715   2.384   7.032  0.00  0.00    +0.000 C 
ATOM     25  C   UNL     1      46.423   3.819   7.472  0.00  0.00    +0.000 C 
ATOM     26  C   UNL     1      45.006   3.971   8.036  0.00  0.00    +0.000 C 
ENDBRANCH  17  21
ENDBRANCH  14  15
ENDBRANCH   5  14
TORSDOF 4
ENDMDL
MODEL 6
REMARK VINA RESULT:    -6.812      5.237      8.198
REMARK INTER + INTRA:          -9.136
REMARK INTER:                  -8.431
REMARK INTRA:                  -0.705
REMARK UNBOUND:                -0.732
REMARK  Name = 
REMARK  4 active torsions:
REMARK  status: ('A' for Active; 'I' for Inactive)
REMARK    1  A    between atoms: C_2  and  C_4
REMARK    2  A    between atoms: N_8  and  C_9
REMARK    3  A    between atoms: C_9  and  C_10
REMARK    4  A    between atoms: C_12  and  N_13
REMARK                            x       y       z     vdW  Elec       q    Type
REMARK                         _______ _______ _______ _____ _____    ______ ____
ROOT
ATOM      1  C   UNL     1      51.822   2.626  17.782  0.00  0.00    +0.000 A 
ATOM      2  C   UNL     1      51.094   3.783  18.029  0.00  0.00    +0.000 A 
ATOM      3  C   UNL     1      49.802   3.892  17.522  0.00  0.00    +0.000 A 
ATOM      4  C   UNL     1      49.256   2.849  16.777  0.00  0.00    +0.000 A 
ATOM      5  N   UNL     1      48.007   2.894  16.229  0.00  0.00    +0.000 N 
ATOM      6  N   UNL     1      49.957   1.724  16.529  0.00  0.00    +0.000 NA
ATOM      7  C   UNL     1      51.223   1.637  17.020  0.00  0.00    +0.000 A 
ATOM      8  H   UNL     1      47.726   2.044  15.762  0.00  0.00    +0.000 HD
ENDROOT
BRANCH   1  10
ATOM      9  N   UNL     1      54.082   3.455  18.050  0.00  0.00    +0.000 N 
ATOM     10  C   UNL     1      53.198   2.440  18.284  0.00  0.00    +0.000 C 
ATOM     11  O   UNL     1      53.523   1.434  18.898  0.00  0.00    +0.000 OA
ATOM     12  H   UNL     1      55.003   3.361  18.463  0.00  0.00    +0.000 HD
ATOM     13  H   UNL     1      53.791   4.377  17.762  0.00  0.00    +0.000 HD
ENDBRANCH   1  10
BRANCH   5  14
ATOM     14  C   UNL     1      47.109   4.028  16.271  0.00  0.00    +0.000 C 
BRANCH  14  15
ATOM     15  C   UNL     1      47.143   4.843  14.993  0.00  0.00    +0.000 A 
ATOM     16  C   UNL     1      46.182   4.623  14.001  0.00  0.00    +0.000 A 
ATOM     17  C   UNL     1      46.273   5.267  12.765  0.00  0.00    +0.000 A 
ATOM     18  C   UNL     1      47.341   6.152  12.610  0.00  0.00    +0.000 A 
ATOM     19  C   UNL     1      48.243   6.345  13.647  0.00  0.00    +0.000 A 
ATOM     20  N   UNL     1      48.174   5.709  14.830  0.00  0.00    +0.000 NA
BRANCH  17  21
ATOM     21  N   UNL     1      45.379   5.011  11.744  0.00  0.00    +0.000 N 
ATOM     22  C   UNL     1      44.496   3.844  11.767  0.00  0.00    +0.000 C 
ATOM     23  C   UNL     1      44.830   2.932  10.591  0.00  0.00    +0.000 C 
ATOM     24  C   UNL     1      44.757   3.699   9.272  0.00  0.00    +0.000 C 
ATOM     25  C   UNL     1      45.626   4.957   9.312  0.00  0.00    +0.000 C 
ATOM     26  C   UNL     1      45.316   5.831  10.532  0.00  0.00    +0.000 C 
ENDBRANCH  17  21
ENDBRANCH  14  15
ENDBRANCH   5  14
TORSDOF 4
ENDMDL
MODEL 7
REMARK VINA RESULT:    -6.512      3.294      5.930
REMARK INTER + INTRA:          -8.766
REMARK INTER:                  -7.998
REMARK INTRA:                  -0.769
REMARK UNBOUND:                -0.732
REMARK  Name = 
REMARK  4 active torsions:
REMARK  status: ('A' for Active; 'I' for Inactive)
REMARK    1  A    between atoms: C_2  and  C_4
REMARK    2  A    between atoms: N_8  and  C_9
REMARK    3  A    between atoms: C_9  and  C_10
REMARK    4  A    between atoms: C_12  and  N_13
REMARK                            x       y       z     vdW  Elec       q    Type
REMARK                         _______ _______ _______ _____ _____    ______ ____
ROOT
ATOM      1  C   UNL     1      44.714   5.127  10.961  0.00  0.00    +0.000 A 
ATOM      2  C   UNL     1      45.929   5.693  10.598  0.00  0.00    +0.000 A 
ATOM      3  C   UNL     1      46.547   6.587  11.467  0.00  0.00    +0.000 A 
ATOM      4  C   UNL     1      45.945   6.906  12.682  0.00  0.00    +0.000 A 
ATOM      5  N   UNL     1      46.479   7.791  13.573  0.00  0.00    +0.000 N 
ATOM      6  N   UNL     1      44.763   6.365  13.041  0.00  0.00    +0.000 NA
ATOM      7  C   UNL     1      44.165   5.502  12.176  0.00  0.00    +0.000 A 
ATOM      8  H   UNL     1      45.960   7.881  14.434  0.00  0.00    +0.000 HD
ENDROOT
BRANCH   1  10
ATOM      9  N   UNL     1      44.070   4.393   8.744  0.00  0.00    +0.000 N 
ATOM     10  C   UNL     1      43.997   4.174  10.091  0.00  0.00    +0.000 C 
ATOM     11  O   UNL     1      43.385   3.221  10.554  0.00  0.00    +0.000 OA
ATOM     12  H   UNL     1      43.646   3.694   8.145  0.00  0.00    +0.000 HD
ATOM     13  H   UNL     1      44.746   5.016   8.329  0.00  0.00    +0.000 HD
ENDBRANCH   1  10
BRANCH   5  14
ATOM     14  C   UNL     1      47.681   8.571  13.368  0.00  0.00    +0.000 C 
BRANCH  14  15
ATOM     15  C   UNL     1      48.868   8.020  14.134  0.00  0.00    +0.000 A 
ATOM     16  C   UNL     1      48.673   7.026  15.099  0.00  0.00    +0.000 A 
ATOM     17  C   UNL     1      49.731   6.601  15.907  0.00  0.00    +0.000 A 
ATOM     18  C   UNL     1      50.970   7.196  15.662  0.00  0.00    +0.000 A 
ATOM     19  C   UNL     1      51.098   8.156  14.670  0.00  0.00    +0.000 A 
ATOM     20  N   UNL     1      50.078   8.587  13.905  0.00  0.00    +0.000 NA
BRANCH  17  21
ATOM     21  N   UNL     1      49.548   5.675  16.915  0.00  0.00    +0.000 N 
ATOM     22  C   UNL     1      50.672   5.136  17.681  0.00  0.00    +0.000 C 
ATOM     23  C   UNL     1      50.775   3.633  17.443  0.00  0.00    +0.000 C 
ATOM     24  C   UNL     1      49.453   2.941  17.772  0.00  0.00    +0.000 C 
ATOM     25  C   UNL     1      48.287   3.582  17.018  0.00  0.00    +0.000 C 
ATOM     26  C   UNL     1      48.236   5.100  17.223  0.00  0.00    +0.000 C 
ENDBRANCH  17  21
ENDBRANCH  14  15
ENDBRANCH   5  14
TORSDOF 4
ENDMDL
MODEL 8
REMARK VINA RESULT:    -5.971      4.318      6.607
REMARK INTER + INTRA:          -8.099
REMARK INTER:                  -7.496
REMARK INTRA:                  -0.602
REMARK UNBOUND:                -0.732
REMARK  Name = 
REMARK  4 active torsions:
REMARK  status: ('A' for Active; 'I' for Inactive)
REMARK    1  A    between atoms: C_2  and  C_4
REMARK    2  A    between atoms: N_8  and  C_9
REMARK    3  A    between atoms: C_9  and  C_10
REMARK    4  A    between atoms: C_12  and  N_13
REMARK                            x       y       z     vdW  Elec       q    Type
REMARK                         _______ _______ _______ _____ _____    ______ ____
ROOT
ATOM      1  C   UNL     1      44.947   4.501  11.405  0.00  0.00    +0.000 A 
ATOM      2  C   UNL     1      45.735   5.610  11.129  0.00  0.00    +0.000 A 
ATOM      3  C   UNL     1      46.582   6.103  12.117  0.00  0.00    +0.000 A 
ATOM      4  C   UNL     1      46.629   5.487  13.365  0.00  0.00    +0.000 A 
ATOM      5  N   UNL     1      47.416   5.928  14.389  0.00  0.00    +0.000 N 
ATOM      6  N   UNL     1      45.864   4.411  13.644  0.00  0.00    +0.000 NA
ATOM      7  C   UNL     1      45.032   3.948  12.672  0.00  0.00    +0.000 A 
ATOM      8  H   UNL     1      47.387   5.349  15.216  0.00  0.00    +0.000 HD
ENDROOT
BRANCH   1  10
ATOM      9  N   UNL     1      43.985   4.523   9.182  0.00  0.00    +0.000 N 
ATOM     10  C   UNL     1      44.023   3.923  10.409  0.00  0.00    +0.000 C 
ATOM     11  O   UNL     1      43.340   2.941  10.665  0.00  0.00    +0.000 OA
ATOM     12  H   UNL     1      43.411   4.078   8.475  0.00  0.00    +0.000 HD
ATOM     13  H   UNL     1      44.692   5.172   8.870  0.00  0.00    +0.000 HD
ENDBRANCH   1  10
BRANCH   5  14
ATOM     14  C   UNL     1      48.244   7.114  14.365  0.00  0.00    +0.000 C 
BRANCH  14  15
ATOM     15  C   UNL     1      49.418   7.022  15.320  0.00  0.00    +0.000 A 
ATOM     16  C   UNL     1      49.227   6.521  16.612  0.00  0.00    +0.000 A 
ATOM     17  C   UNL     1      50.264   6.552  17.548  0.00  0.00    +0.000 A 
ATOM     18  C   UNL     1      51.482   7.067  17.101  0.00  0.00    +0.000 A 
ATOM     19  C   UNL     1      51.609   7.522  15.797  0.00  0.00    +0.000 A 
ATOM     20  N   UNL     1      50.608   7.517  14.898  0.00  0.00    +0.000 NA
BRANCH  17  21
ATOM     21  N   UNL     1      50.079   6.130  18.850  0.00  0.00    +0.000 N 
ATOM     22  C   UNL     1      50.073   4.712  19.209  0.00  0.00    +0.000 C 
ATOM     23  C   UNL     1      48.703   4.334  19.763  0.00  0.00    +0.000 C 
ATOM     24  C   UNL     1      48.325   5.239  20.935  0.00  0.00    +0.000 C 
ATOM     25  C   UNL     1      48.423   6.715  20.551  0.00  0.00    +0.000 C 
ATOM     26  C   UNL     1      49.785   7.062  19.942  0.00  0.00    +0.000 C 
ENDBRANCH  17  21
ENDBRANCH  14  15
ENDBRANCH   5  14
TORSDOF 4
ENDMDL
MODEL 9
REMARK VINA RESULT:    -5.967      4.668      8.537
REMARK INTER + INTRA:          -8.094
REMARK INTER:                  -7.326
REMARK INTRA:                  -0.769
REMARK UNBOUND:                -0.732
REMARK  Name = 
REMARK  4 active torsions:
REMARK  status: ('A' for Active; 'I' for Inactive)
REMARK    1  A    between atoms: C_2  and  C_4
REMARK    2  A    between atoms: N_8  and  C_9
REMARK    3  A    between atoms: C_9  and  C_10
REMARK    4  A    between atoms: C_12  and  N_13
REMARK                            x       y       z     vdW  Elec       q    Type
REMARK                         _______ _______ _______ _____ _____    ______ ____
ROOT
ATOM      1  C   UNL     1      48.757   5.283  18.780  0.00  0.00    +0.000 A 
ATOM      2  C   UNL     1      48.941   4.824  17.483  0.00  0.00    +0.000 A 
ATOM      3  C   UNL     1      48.989   5.743  16.439  0.00  0.00    +0.000 A 
ATOM      4  C   UNL     1      48.853   7.104  16.702  0.00  0.00    +0.000 A 
ATOM      5  N   UNL     1      48.867   8.060  15.729  0.00  0.00    +0.000 N 
ATOM      6  N   UNL     1      48.670   7.559  17.959  0.00  0.00    +0.000 NA
ATOM      7  C   UNL     1      48.612   6.648  18.967  0.00  0.00    +0.000 A 
ATOM      8  H   UNL     1      48.812   9.008  16.075  0.00  0.00    +0.000 HD
ENDROOT
BRANCH   1  10
ATOM      9  N   UNL     1      48.350   3.071  19.680  0.00  0.00    +0.000 N 
ATOM     10  C   UNL     1      48.692   4.369  19.938  0.00  0.00    +0.000 C 
ATOM     11  O   UNL     1      48.953   4.751  21.070  0.00  0.00    +0.000 OA
ATOM     12  H   UNL     1      48.383   2.427  20.462  0.00  0.00    +0.000 HD
ATOM     13  H   UNL     1      48.360   2.679  18.751  0.00  0.00    +0.000 HD
ENDBRANCH   1  10
BRANCH   5  14
ATOM     14  C   UNL     1      48.947   7.813  14.306  0.00  0.00    +0.000 C 
BRANCH  14  15
ATOM     15  C   UNL     1      47.581   7.666  13.663  0.00  0.00    +0.000 A 
ATOM     16  C   UNL     1      47.184   6.427  13.149  0.00  0.00    +0.000 A 
ATOM     17  C   UNL     1      45.989   6.302  12.437  0.00  0.00    +0.000 A 
ATOM     18  C   UNL     1      45.222   7.462  12.313  0.00  0.00    +0.000 A 
ATOM     19  C   UNL     1      45.664   8.652  12.872  0.00  0.00    +0.000 A 
ATOM     20  N   UNL     1      46.825   8.784  13.539  0.00  0.00    +0.000 NA
BRANCH  17  21
ATOM     21  N   UNL     1      45.610   5.107  11.858  0.00  0.00    +0.000 N 
ATOM     22  C   UNL     1      45.210   5.023  10.453  0.00  0.00    +0.000 C 
ATOM     23  C   UNL     1      43.753   4.577  10.366  0.00  0.00    +0.000 C 
ATOM     24  C   UNL     1      43.544   3.263  11.117  0.00  0.00    +0.000 C 
ATOM     25  C   UNL     1      44.050   3.360  12.556  0.00  0.00    +0.000 C 
ATOM     26  C   UNL     1      45.494   3.865  12.626  0.00  0.00    +0.000 C 
ENDBRANCH  17  21
ENDBRANCH  14  15
ENDBRANCH   5  14
TORSDOF 4
ENDMDL
