MODEL 1
REMARK VINA RESULT:    -7.246      0.000      0.000
REMARK INTER + INTRA:         -12.419
REMARK INTER:                 -10.846
REMARK INTRA:                  -1.573
REMARK UNBOUND:                -1.573
REMARK  Name = 
REMARK  10 active torsions:
REMARK  status: ('A' for Active; 'I' for Inactive)
REMARK    1  A    between atoms: C_1  and  C_2
REMARK    2  A    between atoms: C_2  and  N_3
REMARK    3  A    between atoms: C_2  and  C_20
REMARK    4  A    between atoms: N_3  and  C_4
REMARK    5  A    between atoms: C_4  and  C_5
REMARK    6  A    between atoms: C_8  and  C_9
REMARK    7  A    between atoms: C_9  and  O_10
REMARK    8  A    between atoms: C_9  and  C_11
REMARK    9  A    between atoms: C_11  and  N_12
REMARK   10  A    between atoms: N_12  and  C_13
REMARK                            x       y       z     vdW  Elec       q    Type
REMARK                         _______ _______ _______ _____ _____    ______ ____
ROOT
ATOM      1  C   UNL     1      45.939   6.900  12.021  0.00  0.00    +0.000 A 
ATOM      2  C   UNL     1      44.772   6.310  12.515  0.00  0.00    +0.000 A 
ATOM      3  C   UNL     1      44.140   5.314  11.782  0.00  0.00    +0.000 A 
ATOM      4  C   UNL     1      44.689   4.925  10.566  0.00  0.00    +0.000 A 
ATOM      5  N   UNL     1      45.825   5.477  10.060  0.00  0.00    +0.000 NA
ATOM      6  C   UNL     1      46.420   6.438  10.800  0.00  0.00    +0.000 A 
ENDROOT
BRANCH   1   7
ATOM      7  C   UNL     1      46.591   8.060  12.712  0.00  0.00    +0.000 C 
BRANCH   7   8
ATOM      8  N   UNL     1      47.103   7.743  14.046  0.00  0.00    +0.000 NA
ATOM      9  H   UNL     1      46.358   7.297  14.584  0.00  0.00    +0.000 HD
BRANCH   8  11
ATOM     10  C   UNL     1      49.436   7.339  13.189  0.00  0.00    +0.000 C 
ATOM     11  C   UNL     1      48.231   6.794  13.973  0.00  0.00    +0.000 C 
BRANCH  11  12
ATOM     12  C   UNL     1      48.668   6.444  15.383  0.00  0.00    +0.000 A 
ATOM     13  C   UNL     1      49.628   7.141  16.105  0.00  0.00    +0.000 A 
ATOM     14  S   UNL     1      50.043   6.388  17.581  0.00  0.00    +0.000 S 
ATOM     15  C   UNL     1      48.957   5.107  17.302  0.00  0.00    +0.000 A 
ATOM     16  N   UNL     1      48.871   4.054  18.160  0.00  0.00    +0.000 NA
ATOM     17  C   UNL     1      48.017   3.151  17.807  0.00  0.00    +0.000 A 
ATOM     18  N   UNL     1      47.220   3.218  16.692  0.00  0.00    +0.000 N 
ATOM     19  C   UNL     1      47.239   4.282  15.819  0.00  0.00    +0.000 A 
ATOM     20  O   UNL     1      46.457   4.350  14.876  0.00  0.00    +0.000 OA
ATOM     21  C   UNL     1      48.238   5.288  16.134  0.00  0.00    +0.000 A 
ATOM     22  H   UNL     1      46.541   2.497  16.498  0.00  0.00    +0.000 HD
ENDBRANCH  11  12
ENDBRANCH   8  11
ENDBRANCH   7   8
ENDBRANCH   1   7
BRANCH   4  23
ATOM     23  C   UNL     1      44.032   3.850   9.725  0.00  0.00    +0.000 C 
BRANCH  23  24
ATOM     24  O   UNL     1      43.791   4.364   8.404  0.00  0.00    +0.000 OA
ATOM     25  H   UNL     1      42.939   3.954   8.138  0.00  0.00    +0.000 HD
ENDBRANCH  23  24
BRANCH  23  26
ATOM     26  C   UNL     1      44.930   2.603   9.594  0.00  0.00    +0.000 C 
BRANCH  26  27
ATOM     27  N   UNL     1      45.404   2.351   8.228  0.00  0.00    +0.000 NA
ATOM     28  H   UNL     1      44.798   2.794   7.547  0.00  0.00    +0.000 HD
BRANCH  27  29
ATOM     29  C   UNL     1      46.777   2.759   8.012  0.00  0.00    +0.000 C 
ATOM     30  C   UNL     1      47.529   1.778   7.120  0.00  0.00    +0.000 C 
ATOM     31  C   UNL     1      47.042   2.110   5.717  0.00  0.00    +0.000 C 
ATOM     32  C   UNL     1      46.636   3.574   5.798  0.00  0.00    +0.000 C 
ATOM     33  N   UNL     1      46.797   3.956   7.198  0.00  0.00    +0.000 NA
ATOM     34  H   UNL     1      46.101   4.632   7.494  0.00  0.00    +0.000 HD
ENDBRANCH  27  29
ENDBRANCH  26  27
ENDBRANCH  23  26
ENDBRANCH   4  23
TORSDOF 9
ENDMDL
MODEL 2
REMARK VINA RESULT:    -7.179      2.207      3.095
REMARK INTER + INTRA:         -12.319
REMARK INTER:                 -11.388
REMARK INTRA:                  -0.931
REMARK UNBOUND:                -1.573
REMARK  Name = 
REMARK  10 active torsions:
REMARK  status: ('A' for Active; 'I' for Inactive)
REMARK    1  A    between atoms: C_1  and  C_2
REMARK    2  A    between atoms: C_2  and  N_3
REMARK    3  A    between atoms: C_2  and  C_20
REMARK    4  A    between atoms: N_3  and  C_4
REMARK    5  A    between atoms: C_4  and  C_5
REMARK    6  A    between atoms: C_8  and  C_9
REMARK    7  A    between atoms: C_9  and  O_10
REMARK    8  A    between atoms: C_9  and  C_11
REMARK    9  A    between atoms: C_11  and  N_12
REMARK   10  A    between atoms: N_12  and  C_13
REMARK                            x       y       z     vdW  Elec       q    Type
REMARK                         _______ _______ _______ _____ _____    ______ ____
ROOT
ATOM      1  C   UNL     1      46.841   5.656  13.855  0.00  0.00    +0.000 A 
ATOM      2  C   UNL     1      46.352   6.528  12.877  0.00  0.00    +0.000 A 
ATOM      3  C   UNL     1      45.280   6.143  12.083  0.00  0.00    +0.000 A 
ATOM      4  C   UNL     1      44.713   4.889  12.282  0.00  0.00    +0.000 A 
ATOM      5  N   UNL     1      45.163   4.019  13.227  0.00  0.00    +0.000 NA
ATOM      6  C   UNL     1      46.202   4.426  13.988  0.00  0.00    +0.000 A 
ENDROOT
BRANCH   1   7
ATOM      7  C   UNL     1      48.068   5.972  14.654  0.00  0.00    +0.000 C 
BRANCH   7   8
ATOM      8  N   UNL     1      48.468   4.905  15.573  0.00  0.00    +0.000 NA
ATOM      9  H   UNL     1      49.438   4.653  15.378  0.00  0.00    +0.000 HD
BRANCH   8  11
ATOM     10  C   UNL     1      47.188   4.792  17.738  0.00  0.00    +0.000 C 
ATOM     11  C   UNL     1      48.398   5.357  16.977  0.00  0.00    +0.000 C 
BRANCH  11  12
ATOM     12  C   UNL     1      49.674   4.947  17.687  0.00  0.00    +0.000 A 
ATOM     13  C   UNL     1      50.461   5.803  18.445  0.00  0.00    +0.000 A 
ATOM     14  S   UNL     1      51.933   5.098  18.951  0.00  0.00    +0.000 S 
ATOM     15  C   UNL     1      51.567   3.630  18.170  0.00  0.00    +0.000 A 
ATOM     16  N   UNL     1      52.459   2.602  18.143  0.00  0.00    +0.000 NA
ATOM     17  C   UNL     1      52.048   1.560  17.499  0.00  0.00    +0.000 A 
ATOM     18  N   UNL     1      50.817   1.440  16.905  0.00  0.00    +0.000 N 
ATOM     19  C   UNL     1      49.865   2.433  16.943  0.00  0.00    +0.000 A 
ATOM     20  O   UNL     1      48.745   2.265  16.472  0.00  0.00    +0.000 OA
ATOM     21  C   UNL     1      50.310   3.654  17.593  0.00  0.00    +0.000 A 
ATOM     22  H   UNL     1      50.542   0.579  16.454  0.00  0.00    +0.000 HD
ENDBRANCH  11  12
ENDBRANCH   8  11
ENDBRANCH   7   8
ENDBRANCH   1   7
BRANCH   4  23
ATOM     23  C   UNL     1      43.549   4.419  11.436  0.00  0.00    +0.000 C 
BRANCH  23  24
ATOM     24  O   UNL     1      43.488   5.207  10.235  0.00  0.00    +0.000 OA
ATOM     25  H   UNL     1      44.410   5.200   9.895  0.00  0.00    +0.000 HD
ENDBRANCH  23  24
BRANCH  23  26
ATOM     26  C   UNL     1      43.704   2.940  11.027  0.00  0.00    +0.000 C 
BRANCH  26  27
ATOM     27  N   UNL     1      44.911   2.663  10.240  0.00  0.00    +0.000 NA
ATOM     28  H   UNL     1      45.539   2.048  10.745  0.00  0.00    +0.000 HD
BRANCH  27  29
ATOM     29  C   UNL     1      44.628   2.116   8.928  0.00  0.00    +0.000 C 
ATOM     30  C   UNL     1      44.597   3.199   7.855  0.00  0.00    +0.000 C 
ATOM     31  C   UNL     1      46.065   3.496   7.590  0.00  0.00    +0.000 C 
ATOM     32  C   UNL     1      46.781   2.205   7.957  0.00  0.00    +0.000 C 
ATOM     33  N   UNL     1      45.754   1.317   8.492  0.00  0.00    +0.000 NA
ATOM     34  H   UNL     1      46.109   0.720   9.231  0.00  0.00    +0.000 HD
ENDBRANCH  27  29
ENDBRANCH  26  27
ENDBRANCH  23  26
ENDBRANCH   4  23
TORSDOF 9
ENDMDL
MODEL 3
REMARK VINA RESULT:    -7.133      1.905      2.533
REMARK INTER + INTRA:         -12.250
REMARK INTER:                 -11.050
REMARK INTRA:                  -1.200
REMARK UNBOUND:                -1.573
REMARK  Name = 
REMARK  10 active torsions:
REMARK  status: ('A' for Active; 'I' for Inactive)
REMARK    1  A    between atoms: C_1  and  C_2
REMARK    2  A    between atoms: C_2  and  N_3
REMARK    3  A    between atoms: C_2  and  C_20
REMARK    4  A    between atoms: N_3  and  C_4
REMARK    5  A    between atoms: C_4  and  C_5
REMARK    6  A    between atoms: C_8  and  C_9
REMARK    7  A    between atoms: C_9  and  O_10
REMARK    8  A    between atoms: C_9  and  C_11
REMARK    9  A    between atoms: C_11  and  N_12
REMARK   10  A    between atoms: N_12  and  C_13
REMARK                            x       y       z     vdW  Elec       q    Type
REMARK                         _______ _______ _______ _____ _____    ______ ____
ROOT
ATOM      1  C   UNL     1      47.121   6.193  13.012  0.00  0.00    +0.000 A 
ATOM      2  C   UNL     1      46.670   6.706  11.792  0.00  0.00    +0.000 A 
ATOM      3  C   UNL     1      45.530   6.177  11.202  0.00  0.00    +0.000 A 
ATOM      4  C   UNL     1      44.859   5.143  11.845  0.00  0.00    +0.000 A 
ATOM      5  N   UNL     1      45.270   4.625  13.033  0.00  0.00    +0.000 NA
ATOM      6  C   UNL     1      46.378   5.166  13.586  0.00  0.00    +0.000 A 
ENDROOT
BRANCH   1   7
ATOM      7  C   UNL     1      48.410   6.644  13.630  0.00  0.00    +0.000 C 
BRANCH   7   8
ATOM      8  N   UNL     1      48.672   6.060  14.947  0.00  0.00    +0.000 NA
ATOM      9  H   UNL     1      49.171   5.178  14.818  0.00  0.00    +0.000 HD
BRANCH   8  11
ATOM     10  C   UNL     1      49.706   8.346  15.157  0.00  0.00    +0.000 C 
ATOM     11  C   UNL     1      49.528   6.944  15.762  0.00  0.00    +0.000 C 
BRANCH  11  12
ATOM     12  C   UNL     1      48.924   7.068  17.148  0.00  0.00    +0.000 A 
ATOM     13  C   UNL     1      48.448   8.252  17.695  0.00  0.00    +0.000 A 
ATOM     14  S   UNL     1      48.013   8.109  19.340  0.00  0.00    +0.000 S 
ATOM     15  C   UNL     1      48.449   6.464  19.375  0.00  0.00    +0.000 A 
ATOM     16  N   UNL     1      48.395   5.743  20.528  0.00  0.00    +0.000 NA
ATOM     17  C   UNL     1      48.773   4.513  20.403  0.00  0.00    +0.000 A 
ATOM     18  N   UNL     1      49.170   3.931  19.225  0.00  0.00    +0.000 N 
ATOM     19  C   UNL     1      49.198   4.606  18.026  0.00  0.00    +0.000 A 
ATOM     20  O   UNL     1      49.481   4.035  16.978  0.00  0.00    +0.000 OA
ATOM     21  C   UNL     1      48.853   6.013  18.132  0.00  0.00    +0.000 A 
ATOM     22  H   UNL     1      49.411   2.951  19.189  0.00  0.00    +0.000 HD
ENDBRANCH  11  12
ENDBRANCH   8  11
ENDBRANCH   7   8
ENDBRANCH   1   7
BRANCH   4  23
ATOM     23  C   UNL     1      43.617   4.526  11.237  0.00  0.00    +0.000 C 
BRANCH  23  24
ATOM     24  O   UNL     1      43.324   5.180   9.990  0.00  0.00    +0.000 OA
ATOM     25  H   UNL     1      44.153   5.660   9.769  0.00  0.00    +0.000 HD
ENDBRANCH  23  24
BRANCH  23  26
ATOM     26  C   UNL     1      43.810   3.023  10.951  0.00  0.00    +0.000 C 
BRANCH  26  27
ATOM     27  N   UNL     1      44.994   2.718  10.139  0.00  0.00    +0.000 NA
ATOM     28  H   UNL     1      45.636   2.118  10.645  0.00  0.00    +0.000 HD
BRANCH  27  29
ATOM     29  C   UNL     1      44.673   2.131   8.853  0.00  0.00    +0.000 C 
ATOM     30  C   UNL     1      44.742   3.156   7.727  0.00  0.00    +0.000 C 
ATOM     31  C   UNL     1      46.232   3.313   7.463  0.00  0.00    +0.000 C 
ATOM     32  C   UNL     1      46.832   1.985   7.903  0.00  0.00    +0.000 C 
ATOM     33  N   UNL     1      45.728   1.217   8.471  0.00  0.00    +0.000 NA
ATOM     34  H   UNL     1      46.026   0.631   9.242  0.00  0.00    +0.000 HD
ENDBRANCH  27  29
ENDBRANCH  26  27
ENDBRANCH  23  26
ENDBRANCH   4  23
TORSDOF 9
ENDMDL
MODEL 4
REMARK VINA RESULT:    -7.028      2.218      2.949
REMARK INTER + INTRA:         -12.094
REMARK INTER:                 -10.461
REMARK INTRA:                  -1.633
REMARK UNBOUND:                -1.573
REMARK  Name = 
REMARK  10 active torsions:
REMARK  status: ('A' for Active; 'I' for Inactive)
REMARK    1  A    between atoms: C_1  and  C_2
REMARK    2  A    between atoms: C_2  and  N_3
REMARK    3  A    between atoms: C_2  and  C_20
REMARK    4  A    between atoms: N_3  and  C_4
REMARK    5  A    between atoms: C_4  and  C_5
REMARK    6  A    between atoms: C_8  and  C_9
REMARK    7  A    between atoms: C_9  and  O_10
REMARK    8  A    between atoms: C_9  and  C_11
REMARK    9  A    between atoms: C_11  and  N_12
REMARK   10  A    between atoms: N_12  and  C_13
REMARK                            x       y       z     vdW  Elec       q    Type
REMARK                         _______ _______ _______ _____ _____    ______ ____
ROOT
ATOM      1  C   UNL     1      46.868   6.641  13.119  0.00  0.00    +0.000 A 
ATOM      2  C   UNL     1      45.749   7.103  12.419  0.00  0.00    +0.000 A 
ATOM      3  C   UNL     1      44.619   6.302  12.321  0.00  0.00    +0.000 A 
ATOM      4  C   UNL     1      44.628   5.051  12.927  0.00  0.00    +0.000 A 
ATOM      5  N   UNL     1      45.699   4.575  13.618  0.00  0.00    +0.000 NA
ATOM      6  C   UNL     1      46.780   5.380  13.702  0.00  0.00    +0.000 A 
ENDROOT
BRANCH   1   7
ATOM      7  C   UNL     1      48.153   7.412  13.152  0.00  0.00    +0.000 C 
BRANCH   7   8
ATOM      8  N   UNL     1      49.284   6.656  13.692  0.00  0.00    +0.000 NA
ATOM      9  H   UNL     1      49.844   6.306  12.914  0.00  0.00    +0.000 HD
BRANCH   8  11
ATOM     10  C   UNL     1      50.832   8.642  13.718  0.00  0.00    +0.000 C 
ATOM     11  C   UNL     1      50.155   7.517  14.517  0.00  0.00    +0.000 C 
BRANCH  11  12
ATOM     12  C   UNL     1      49.328   8.123  15.634  0.00  0.00    +0.000 A 
ATOM     13  C   UNL     1      49.057   9.478  15.766  0.00  0.00    +0.000 A 
ATOM     14  S   UNL     1      48.269   9.871  17.230  0.00  0.00    +0.000 S 
ATOM     15  C   UNL     1      48.269   8.246  17.736  0.00  0.00    +0.000 A 
ATOM     16  N   UNL     1      47.802   7.888  18.963  0.00  0.00    +0.000 NA
ATOM     17  C   UNL     1      47.882   6.622  19.213  0.00  0.00    +0.000 A 
ATOM     18  N   UNL     1      48.357   5.679  18.337  0.00  0.00    +0.000 N 
ATOM     19  C   UNL     1      48.798   5.986  17.070  0.00  0.00    +0.000 A 
ATOM     20  O   UNL     1      49.141   5.110  16.282  0.00  0.00    +0.000 OA
ATOM     21  C   UNL     1      48.797   7.407  16.771  0.00  0.00    +0.000 A 
ATOM     22  H   UNL     1      48.352   4.699  18.580  0.00  0.00    +0.000 HD
ENDBRANCH  11  12
ENDBRANCH   8  11
ENDBRANCH   7   8
ENDBRANCH   1   7
BRANCH   4  23
ATOM     23  C   UNL     1      43.424   4.137  12.841  0.00  0.00    +0.000 C 
BRANCH  23  24
ATOM     24  O   UNL     1      42.404   4.770  12.049  0.00  0.00    +0.000 OA
ATOM     25  H   UNL     1      41.563   4.414  12.409  0.00  0.00    +0.000 HD
ENDBRANCH  23  24
BRANCH  23  26
ATOM     26  C   UNL     1      43.778   2.792  12.173  0.00  0.00    +0.000 C 
BRANCH  26  27
ATOM     27  N   UNL     1      44.724   2.911  11.059  0.00  0.00    +0.000 NA
ATOM     28  H   UNL     1      45.488   2.253  11.160  0.00  0.00    +0.000 HD
BRANCH  27  29
ATOM     29  C   UNL     1      44.103   2.755   9.758  0.00  0.00    +0.000 C 
ATOM     30  C   UNL     1      44.467   3.895   8.814  0.00  0.00    +0.000 C 
ATOM     31  C   UNL     1      45.878   3.558   8.357  0.00  0.00    +0.000 C 
ATOM     32  C   UNL     1      45.960   2.044   8.482  0.00  0.00    +0.000 C 
ATOM     33  N   UNL     1      44.696   1.623   9.079  0.00  0.00    +0.000 NA
ATOM     34  H   UNL     1      44.809   0.824   9.693  0.00  0.00    +0.000 HD
ENDBRANCH  27  29
ENDBRANCH  26  27
ENDBRANCH  23  26
ENDBRANCH   4  23
TORSDOF 9
ENDMDL
MODEL 5
REMARK VINA RESULT:    -6.405      2.635      3.500
REMARK INTER + INTRA:         -11.161
REMARK INTER:                  -9.980
REMARK INTRA:                  -1.181
REMARK UNBOUND:                -1.573
REMARK  Name = 
REMARK  10 active torsions:
REMARK  status: ('A' for Active; 'I' for Inactive)
REMARK    1  A    between atoms: C_1  and  C_2
REMARK    2  A    between atoms: C_2  and  N_3
REMARK    3  A    between atoms: C_2  and  C_20
REMARK    4  A    between atoms: N_3  and  C_4
REMARK    5  A    between atoms: C_4  and  C_5
REMARK    6  A    between atoms: C_8  and  C_9
REMARK    7  A    between atoms: C_9  and  O_10
REMARK    8  A    between atoms: C_9  and  C_11
REMARK    9  A    between atoms: C_11  and  N_12
REMARK   10  A    between atoms: N_12  and  C_13
REMARK                            x       y       z     vdW  Elec       q    Type
REMARK                         _______ _______ _______ _____ _____    ______ ____
ROOT
ATOM      1  C   UNL     1      47.108   6.376  13.183  0.00  0.00    +0.000 A 
ATOM      2  C   UNL     1      45.973   6.972  12.625  0.00  0.00    +0.000 A 
ATOM      3  C   UNL     1      44.795   6.244  12.516  0.00  0.00    +0.000 A 
ATOM      4  C   UNL     1      44.774   4.930  12.968  0.00  0.00    +0.000 A 
ATOM      5  N   UNL     1      45.860   4.323  13.518  0.00  0.00    +0.000 NA
ATOM      6  C   UNL     1      46.988   5.059  13.618  0.00  0.00    +0.000 A 
ENDROOT
BRANCH   1   7
ATOM      7  C   UNL     1      48.433   7.075  13.213  0.00  0.00    +0.000 C 
BRANCH   7   8
ATOM      8  N   UNL     1      49.333   6.594  14.264  0.00  0.00    +0.000 NA
ATOM      9  H   UNL     1      50.279   6.543  13.884  0.00  0.00    +0.000 HD
BRANCH   8  11
ATOM     10  C   UNL     1      48.338   8.666  15.291  0.00  0.00    +0.000 C 
ATOM     11  C   UNL     1      49.361   7.525  15.409  0.00  0.00    +0.000 C 
BRANCH  11  12
ATOM     12  C   UNL     1      49.095   6.743  16.681  0.00  0.00    +0.000 A 
ATOM     13  C   UNL     1      48.381   5.554  16.739  0.00  0.00    +0.000 A 
ATOM     14  S   UNL     1      48.083   5.021  18.334  0.00  0.00    +0.000 S 
ATOM     15  C   UNL     1      48.895   6.362  18.998  0.00  0.00    +0.000 A 
ATOM     16  N   UNL     1      48.944   6.563  20.343  0.00  0.00    +0.000 NA
ATOM     17  C   UNL     1      49.579   7.632  20.697  0.00  0.00    +0.000 A 
ATOM     18  N   UNL     1      50.196   8.499  19.831  0.00  0.00    +0.000 N 
ATOM     19  C   UNL     1      50.213   8.315  18.467  0.00  0.00    +0.000 A 
ATOM     20  O   UNL     1      50.841   9.065  17.728  0.00  0.00    +0.000 OA
ATOM     21  C   UNL     1      49.446   7.166  18.017  0.00  0.00    +0.000 A 
ATOM     22  H   UNL     1      50.714   9.294  20.178  0.00  0.00    +0.000 HD
ENDBRANCH  11  12
ENDBRANCH   8  11
ENDBRANCH   7   8
ENDBRANCH   1   7
BRANCH   4  23
ATOM     23  C   UNL     1      43.517   4.092  12.862  0.00  0.00    +0.000 C 
BRANCH  23  24
ATOM     24  O   UNL     1      42.513   4.832  12.147  0.00  0.00    +0.000 OA
ATOM     25  H   UNL     1      42.990   5.622  11.810  0.00  0.00    +0.000 HD
ENDBRANCH  23  24
BRANCH  23  26
ATOM     26  C   UNL     1      43.774   2.777  12.096  0.00  0.00    +0.000 C 
BRANCH  26  27
ATOM     27  N   UNL     1      44.726   2.909  10.988  0.00  0.00    +0.000 NA
ATOM     28  H   UNL     1      45.514   2.284  11.111  0.00  0.00    +0.000 HD
BRANCH  27  29
ATOM     29  C   UNL     1      44.124   2.701   9.686  0.00  0.00    +0.000 C 
ATOM     30  C   UNL     1      44.513   3.795   8.698  0.00  0.00    +0.000 C 
ATOM     31  C   UNL     1      45.928   3.427   8.280  0.00  0.00    +0.000 C 
ATOM     32  C   UNL     1      45.995   1.919   8.473  0.00  0.00    +0.000 C 
ATOM     33  N   UNL     1      44.718   1.535   9.067  0.00  0.00    +0.000 NA
ATOM     34  H   UNL     1      44.813   0.764   9.717  0.00  0.00    +0.000 HD
ENDBRANCH  27  29
ENDBRANCH  26  27
ENDBRANCH  23  26
ENDBRANCH   4  23
TORSDOF 9
ENDMDL
MODEL 6
REMARK VINA RESULT:    -6.328      2.174      3.101
REMARK INTER + INTRA:         -11.045
REMARK INTER:                 -10.161
REMARK INTRA:                  -0.884
REMARK UNBOUND:                -1.573
REMARK  Name = 
REMARK  10 active torsions:
REMARK  status: ('A' for Active; 'I' for Inactive)
REMARK    1  A    between atoms: C_1  and  C_2
REMARK    2  A    between atoms: C_2  and  N_3
REMARK    3  A    between atoms: C_2  and  C_20
REMARK    4  A    between atoms: N_3  and  C_4
REMARK    5  A    between atoms: C_4  and  C_5
REMARK    6  A    between atoms: C_8  and  C_9
REMARK    7  A    between atoms: C_9  and  O_10
REMARK    8  A    between atoms: C_9  and  C_11
REMARK    9  A    between atoms: C_11  and  N_12
REMARK   10  A    between atoms: N_12  and  C_13
REMARK                            x       y       z     vdW  Elec       q    Type
REMARK                         _______ _______ _______ _____ _____    ______ ____
ROOT
ATOM      1  C   UNL     1      46.488   5.319  13.112  0.00  0.00    +0.000 A 
ATOM      2  C   UNL     1      46.323   6.032  11.921  0.00  0.00    +0.000 A 
ATOM      3  C   UNL     1      45.510   5.521  10.918  0.00  0.00    +0.000 A 
ATOM      4  C   UNL     1      44.873   4.303  11.126  0.00  0.00    +0.000 A 
ATOM      5  N   UNL     1      45.011   3.586  12.274  0.00  0.00    +0.000 NA
ATOM      6  C   UNL     1      45.802   4.114  13.233  0.00  0.00    +0.000 A 
ENDROOT
BRANCH   1   7
ATOM      7  C   UNL     1      47.447   5.765  14.174  0.00  0.00    +0.000 C 
BRANCH   7   8
ATOM      8  N   UNL     1      47.924   4.681  15.035  0.00  0.00    +0.000 NA
ATOM      9  H   UNL     1      48.844   4.386  14.707  0.00  0.00    +0.000 HD
BRANCH   8  11
ATOM     10  C   UNL     1      47.107   4.436  17.404  0.00  0.00    +0.000 C 
ATOM     11  C   UNL     1      48.071   5.135  16.431  0.00  0.00    +0.000 C 
BRANCH  11  12
ATOM     12  C   UNL     1      49.500   4.889  16.878  0.00  0.00    +0.000 A 
ATOM     13  C   UNL     1      49.918   3.780  17.600  0.00  0.00    +0.000 A 
ATOM     14  S   UNL     1      51.541   3.886  18.122  0.00  0.00    +0.000 S 
ATOM     15  C   UNL     1      51.735   5.417  17.404  0.00  0.00    +0.000 A 
ATOM     16  N   UNL     1      52.891   6.122  17.544  0.00  0.00    +0.000 NA
ATOM     17  C   UNL     1      52.884   7.274  16.959  0.00  0.00    +0.000 A 
ATOM     18  N   UNL     1      51.840   7.772  16.221  0.00  0.00    +0.000 N 
ATOM     19  C   UNL     1      50.669   7.079  16.014  0.00  0.00    +0.000 A 
ATOM     20  O   UNL     1      49.786   7.518  15.284  0.00  0.00    +0.000 OA
ATOM     21  C   UNL     1      50.601   5.810  16.716  0.00  0.00    +0.000 A 
ATOM     22  H   UNL     1      51.917   8.663  15.753  0.00  0.00    +0.000 HD
ENDBRANCH  11  12
ENDBRANCH   8  11
ENDBRANCH   7   8
ENDBRANCH   1   7
BRANCH   4  23
ATOM     23  C   UNL     1      43.984   3.699  10.059  0.00  0.00    +0.000 C 
BRANCH  23  24
ATOM     24  O   UNL     1      43.846   4.631   8.974  0.00  0.00    +0.000 OA
ATOM     25  H   UNL     1      43.902   5.513   9.404  0.00  0.00    +0.000 HD
ENDBRANCH  23  24
BRANCH  23  26
ATOM     26  C   UNL     1      44.582   2.394   9.492  0.00  0.00    +0.000 C 
BRANCH  26  27
ATOM     27  N   UNL     1      45.096   2.520   8.124  0.00  0.00    +0.000 NA
ATOM     28  H   UNL     1      44.557   3.197   7.595  0.00  0.00    +0.000 HD
BRANCH  27  29
ATOM     29  C   UNL     1      46.505   2.855   8.068  0.00  0.00    +0.000 C 
ATOM     30  C   UNL     1      47.308   1.807   7.306  0.00  0.00    +0.000 C 
ATOM     31  C   UNL     1      47.015   2.110   5.844  0.00  0.00    +0.000 C 
ATOM     32  C   UNL     1      46.678   3.593   5.830  0.00  0.00    +0.000 C 
ATOM     33  N   UNL     1      46.686   4.018   7.226  0.00  0.00    +0.000 NA
ATOM     34  H   UNL     1      45.995   4.737   7.412  0.00  0.00    +0.000 HD
ENDBRANCH  27  29
ENDBRANCH  26  27
ENDBRANCH  23  26
ENDBRANCH   4  23
TORSDOF 9
ENDMDL
MODEL 7
REMARK VINA RESULT:    -6.260      2.005      2.621
REMARK INTER + INTRA:         -10.944
REMARK INTER:                  -9.844
REMARK INTRA:                  -1.100
REMARK UNBOUND:                -1.573
REMARK  Name = 
REMARK  10 active torsions:
REMARK  status: ('A' for Active; 'I' for Inactive)
REMARK    1  A    between atoms: C_1  and  C_2
REMARK    2  A    between atoms: C_2  and  N_3
REMARK    3  A    between atoms: C_2  and  C_20
REMARK    4  A    between atoms: N_3  and  C_4
REMARK    5  A    between atoms: C_4  and  C_5
REMARK    6  A    between atoms: C_8  and  C_9
REMARK    7  A    between atoms: C_9  and  O_10
REMARK    8  A    between atoms: C_9  and  C_11
REMARK    9  A    between atoms: C_11  and  N_12
REMARK   10  A    between atoms: N_12  and  C_13
REMARK                            x       y       z     vdW  Elec       q    Type
REMARK                         _______ _______ _______ _____ _____    ______ ____
ROOT
ATOM      1  C   UNL     1      46.225   5.122  12.919  0.00  0.00    +0.000 A 
ATOM      2  C   UNL     1      45.959   5.921  11.803  0.00  0.00    +0.000 A 
ATOM      3  C   UNL     1      45.273   5.387  10.720  0.00  0.00    +0.000 A 
ATOM      4  C   UNL     1      44.863   4.060  10.774  0.00  0.00    +0.000 A 
ATOM      5  N   UNL     1      45.103   3.258  11.846  0.00  0.00    +0.000 NA
ATOM      6  C   UNL     1      45.765   3.809  12.886  0.00  0.00    +0.000 A 
ENDROOT
BRANCH   1   7
ATOM      7  C   UNL     1      47.064   5.612  14.060  0.00  0.00    +0.000 C 
BRANCH   7   8
ATOM      8  N   UNL     1      47.527   6.992  13.905  0.00  0.00    +0.000 NA
ATOM      9  H   UNL     1      47.350   7.496  14.775  0.00  0.00    +0.000 HD
BRANCH   8  11
ATOM     10  C   UNL     1      49.332   7.511  12.228  0.00  0.00    +0.000 C 
ATOM     11  C   UNL     1      48.980   7.042  13.649  0.00  0.00    +0.000 C 
BRANCH  11  12
ATOM     12  C   UNL     1      49.624   7.973  14.658  0.00  0.00    +0.000 A 
ATOM     13  C   UNL     1      49.924   9.307  14.417  0.00  0.00    +0.000 A 
ATOM     14  S   UNL     1      50.822  10.035  15.675  0.00  0.00    +0.000 S 
ATOM     15  C   UNL     1      50.840   8.593  16.579  0.00  0.00    +0.000 A 
ATOM     16  N   UNL     1      51.523   8.503  17.752  0.00  0.00    +0.000 NA
ATOM     17  C   UNL     1      51.460   7.341  18.315  0.00  0.00    +0.000 A 
ATOM     18  N   UNL     1      50.752   6.272  17.828  0.00  0.00    +0.000 N 
ATOM     19  C   UNL     1      50.010   6.327  16.670  0.00  0.00    +0.000 A 
ATOM     20  O   UNL     1      49.324   5.378  16.304  0.00  0.00    +0.000 OA
ATOM     21  C   UNL     1      50.112   7.591  15.963  0.00  0.00    +0.000 A 
ATOM     22  H   UNL     1      50.709   5.403  18.342  0.00  0.00    +0.000 HD
ENDBRANCH  11  12
ENDBRANCH   8  11
ENDBRANCH   7   8
ENDBRANCH   1   7
BRANCH   4  23
ATOM     23  C   UNL     1      44.121   3.428   9.615  0.00  0.00    +0.000 C 
BRANCH  23  24
ATOM     24  O   UNL     1      44.067   4.361   8.523  0.00  0.00    +0.000 OA
ATOM     25  H   UNL     1      44.009   5.240   8.958  0.00  0.00    +0.000 HD
ENDBRANCH  23  24
BRANCH  23  26
ATOM     26  C   UNL     1      44.828   2.151   9.115  0.00  0.00    +0.000 C 
BRANCH  26  27
ATOM     27  N   UNL     1      45.408   2.278   7.774  0.00  0.00    +0.000 NA
ATOM     28  H   UNL     1      44.818   2.846   7.176  0.00  0.00    +0.000 HD
BRANCH  27  29
ATOM     29  C   UNL     1      46.760   2.800   7.779  0.00  0.00    +0.000 C 
ATOM     30  C   UNL     1      47.721   1.896   7.016  0.00  0.00    +0.000 C 
ATOM     31  C   UNL     1      47.437   2.207   5.554  0.00  0.00    +0.000 C 
ATOM     32  C   UNL     1      46.903   3.632   5.571  0.00  0.00    +0.000 C 
ATOM     33  N   UNL     1      46.808   4.006   6.979  0.00  0.00    +0.000 NA
ATOM     34  H   UNL     1      46.021   4.618   7.162  0.00  0.00    +0.000 HD
ENDBRANCH  27  29
ENDBRANCH  26  27
ENDBRANCH  23  26
ENDBRANCH   4  23
TORSDOF 9
ENDMDL
MODEL 8
REMARK VINA RESULT:    -6.092      3.389      7.972
REMARK INTER + INTRA:         -10.692
REMARK INTER:                  -8.903
REMARK INTRA:                  -1.789
REMARK UNBOUND:                -1.573
REMARK  Name = 
REMARK  10 active torsions:
REMARK  status: ('A' for Active; 'I' for Inactive)
REMARK    1  A    between atoms: C_1  and  C_2
REMARK    2  A    between atoms: C_2  and  N_3
REMARK    3  A    between atoms: C_2  and  C_20
REMARK    4  A    between atoms: N_3  and  C_4
REMARK    5  A    between atoms: C_4  and  C_5
REMARK    6  A    between atoms: C_8  and  C_9
REMARK    7  A    between atoms: C_9  and  O_10
REMARK    8  A    between atoms: C_9  and  C_11
REMARK    9  A    between atoms: C_11  and  N_12
REMARK   10  A    between atoms: N_12  and  C_13
REMARK                            x       y       z     vdW  Elec       q    Type
REMARK                         _______ _______ _______ _____ _____    ______ ____
ROOT
ATOM      1  C   UNL     1      49.235   8.258  15.472  0.00  0.00    +0.000 A 
ATOM      2  C   UNL     1      48.697   8.182  16.760  0.00  0.00    +0.000 A 
ATOM      3  C   UNL     1      49.333   7.415  17.728  0.00  0.00    +0.000 A 
ATOM      4  C   UNL     1      50.499   6.738  17.389  0.00  0.00    +0.000 A 
ATOM      5  N   UNL     1      51.048   6.794  16.146  0.00  0.00    +0.000 NA
ATOM      6  C   UNL     1      50.411   7.554  15.229  0.00  0.00    +0.000 A 
ENDROOT
BRANCH   1   7
ATOM      7  C   UNL     1      48.525   8.971  14.361  0.00  0.00    +0.000 C 
BRANCH   7   8
ATOM      8  N   UNL     1      47.142   8.532  14.164  0.00  0.00    +0.000 NA
ATOM      9  H   UNL     1      46.523   9.330  14.314  0.00  0.00    +0.000 HD
BRANCH   8  11
ATOM     10  C   UNL     1      48.196   8.102  11.918  0.00  0.00    +0.000 C 
ATOM     11  C   UNL     1      46.927   8.053  12.784  0.00  0.00    +0.000 C 
BRANCH  11  12
ATOM     12  C   UNL     1      46.409   6.629  12.837  0.00  0.00    +0.000 A 
ATOM     13  C   UNL     1      47.062   5.577  13.464  0.00  0.00    +0.000 A 
ATOM     14  S   UNL     1      46.330   4.060  13.181  0.00  0.00    +0.000 S 
ATOM     15  C   UNL     1      45.120   4.759  12.209  0.00  0.00    +0.000 A 
ATOM     16  N   UNL     1      44.194   3.991  11.573  0.00  0.00    +0.000 NA
ATOM     17  C   UNL     1      43.351   4.659  10.857  0.00  0.00    +0.000 A 
ATOM     18  N   UNL     1      43.331   6.027  10.743  0.00  0.00    +0.000 N 
ATOM     19  C   UNL     1      44.218   6.848  11.401  0.00  0.00    +0.000 A 
ATOM     20  O   UNL     1      44.123   8.070  11.342  0.00  0.00    +0.000 OA
ATOM     21  C   UNL     1      45.232   6.136  12.159  0.00  0.00    +0.000 A 
ATOM     22  H   UNL     1      42.616   6.490  10.201  0.00  0.00    +0.000 HD
ENDBRANCH  11  12
ENDBRANCH   8  11
ENDBRANCH   7   8
ENDBRANCH   1   7
BRANCH   4  23
ATOM     23  C   UNL     1      51.223   5.881  18.406  0.00  0.00    +0.000 C 
BRANCH  23  24
ATOM     24  O   UNL     1      50.552   5.981  19.674  0.00  0.00    +0.000 OA
ATOM     25  H   UNL     1      49.958   6.756  19.572  0.00  0.00    +0.000 HD
ENDBRANCH  23  24
BRANCH  23  26
ATOM     26  C   UNL     1      51.237   4.395  17.991  0.00  0.00    +0.000 C 
BRANCH  26  27
ATOM     27  N   UNL     1      50.245   4.054  16.966  0.00  0.00    +0.000 NA
ATOM     28  H   UNL     1      50.695   3.819  16.089  0.00  0.00    +0.000 HD
BRANCH  27  29
ATOM     29  C   UNL     1      49.350   2.986  17.366  0.00  0.00    +0.000 C 
ATOM     30  C   UNL     1      48.552   3.350  18.613  0.00  0.00    +0.000 C 
ATOM     31  C   UNL     1      47.466   4.282  18.097  0.00  0.00    +0.000 C 
ATOM     32  C   UNL     1      47.281   3.872  16.643  0.00  0.00    +0.000 C 
ATOM     33  N   UNL     1      48.295   2.855  16.383  0.00  0.00    +0.000 NA
ATOM     34  H   UNL     1      48.649   2.899  15.434  0.00  0.00    +0.000 HD
ENDBRANCH  27  29
ENDBRANCH  26  27
ENDBRANCH  23  26
ENDBRANCH   4  23
TORSDOF 9
ENDMDL
MODEL 9
REMARK VINA RESULT:    -6.062      3.753      6.226
REMARK INTER + INTRA:         -10.647
REMARK INTER:                  -9.355
REMARK INTRA:                  -1.292
REMARK UNBOUND:                -1.573
REMARK  Name = 
REMARK  10 active torsions:
REMARK  status: ('A' for Active; 'I' for Inactive)
REMARK    1  A    between atoms: C_1  and  C_2
REMARK    2  A    between atoms: C_2  and  N_3
REMARK    3  A    between atoms: C_2  and  C_20
REMARK    4  A    between atoms: N_3  and  C_4
REMARK    5  A    between atoms: C_4  and  C_5
REMARK    6  A    between atoms: C_8  and  C_9
REMARK    7  A    between atoms: C_9  and  O_10
REMARK    8  A    between atoms: C_9  and  C_11
REMARK    9  A    between atoms: C_11  and  N_12
REMARK   10  A    between atoms: N_12  and  C_13
REMARK                            x       y       z     vdW  Elec       q    Type
REMARK                         _______ _______ _______ _____ _____    ______ ____
ROOT
ATOM      1  C   UNL     1      48.708   4.777  17.594  0.00  0.00    +0.000 A 
ATOM      2  C   UNL     1      47.885   3.697  17.262  0.00  0.00    +0.000 A 
ATOM      3  C   UNL     1      47.264   3.659  16.020  0.00  0.00    +0.000 A 
ATOM      4  C   UNL     1      47.480   4.705  15.130  0.00  0.00    +0.000 A 
ATOM      5  N   UNL     1      48.277   5.768  15.422  0.00  0.00    +0.000 NA
ATOM      6  C   UNL     1      48.873   5.772  16.634  0.00  0.00    +0.000 A 
ENDROOT
BRANCH   1   7
ATOM      7  C   UNL     1      49.303   4.926  18.961  0.00  0.00    +0.000 C 
BRANCH   7   8
ATOM      8  N   UNL     1      50.410   4.006  19.230  0.00  0.00    +0.000 NA
ATOM      9  H   UNL     1      50.150   3.078  18.894  0.00  0.00    +0.000 HD
BRANCH   8  11
ATOM     10  C   UNL     1      52.045   5.870  18.793  0.00  0.00    +0.000 C 
ATOM     11  C   UNL     1      51.631   4.417  18.509  0.00  0.00    +0.000 C 
BRANCH  11  12
ATOM     12  C   UNL     1      52.765   3.487  18.899  0.00  0.00    +0.000 A 
ATOM     13  C   UNL     1      53.817   3.837  19.734  0.00  0.00    +0.000 A 
ATOM     14  S   UNL     1      55.035   2.643  19.823  0.00  0.00    +0.000 S 
ATOM     15  C   UNL     1      54.198   1.623  18.748  0.00  0.00    +0.000 A 
ATOM     16  N   UNL     1      54.735   0.445  18.329  0.00  0.00    +0.000 NA
ATOM     17  C   UNL     1      53.991  -0.212  17.501  0.00  0.00    +0.000 A 
ATOM     18  N   UNL     1      52.748   0.185  17.079  0.00  0.00    +0.000 N 
ATOM     19  C   UNL     1      52.144   1.345  17.509  0.00  0.00    +0.000 A 
ATOM     20  O   UNL     1      50.999   1.632  17.175  0.00  0.00    +0.000 OA
ATOM     21  C   UNL     1      52.974   2.155  18.383  0.00  0.00    +0.000 A 
ATOM     22  H   UNL     1      52.200  -0.399  16.463  0.00  0.00    +0.000 HD
ENDBRANCH  11  12
ENDBRANCH   8  11
ENDBRANCH   7   8
ENDBRANCH   1   7
BRANCH   4  23
ATOM     23  C   UNL     1      46.818   4.715  13.768  0.00  0.00    +0.000 C 
BRANCH  23  24
ATOM     24  O   UNL     1      45.536   4.072  13.860  0.00  0.00    +0.000 OA
ATOM     25  H   UNL     1      44.945   4.630  13.308  0.00  0.00    +0.000 HD
ENDBRANCH  23  24
BRANCH  23  26
ATOM     26  C   UNL     1      46.594   6.153  13.255  0.00  0.00    +0.000 C 
BRANCH  26  27
ATOM     27  N   UNL     1      45.187   6.482  13.002  0.00  0.00    +0.000 NA
ATOM     28  H   UNL     1      44.854   7.180  13.658  0.00  0.00    +0.000 HD
BRANCH  27  29
ATOM     29  C   UNL     1      44.934   6.916  11.643  0.00  0.00    +0.000 C 
ATOM     30  C   UNL     1      45.394   5.883  10.621  0.00  0.00    +0.000 C 
ATOM     31  C   UNL     1      44.304   4.822  10.653  0.00  0.00    +0.000 C 
ATOM     32  C   UNL     1      43.063   5.575  11.108  0.00  0.00    +0.000 C 
ATOM     33  N   UNL     1      43.506   6.934  11.406  0.00  0.00    +0.000 NA
ATOM     34  H   UNL     1      42.995   7.344  12.179  0.00  0.00    +0.000 HD
ENDBRANCH  27  29
ENDBRANCH  26  27
ENDBRANCH  23  26
ENDBRANCH   4  23
TORSDOF 9
ENDMDL
