MODEL 1
REMARK VINA RESULT:    -8.136      0.000      0.000
REMARK INTER + INTRA:         -10.555
REMARK INTER:                 -10.039
REMARK INTRA:                  -0.517
REMARK UNBOUND:                -0.517
REMARK  Name = 
REMARK  4 active torsions:
REMARK  status: ('A' for Active; 'I' for Inactive)
REMARK    1  A    between atoms: C_2  and  C_3
REMARK    2  A    between atoms: N_7  and  C_8
REMARK    3  A    between atoms: C_8  and  C_9
REMARK    4  A    between atoms: C_13  and  N_14
REMARK                            x       y       z     vdW  Elec       q    Type
REMARK                         _______ _______ _______ _____ _____    ______ ____
ROOT
ATOM      1  C   UNL     1      44.374   5.866  11.528  0.00  0.00    +0.000 A 
ATOM      2  C   UNL     1      44.370   7.248  11.377  0.00  0.00    +0.000 A 
ATOM      3  N   UNL     1      45.207   8.084  12.020  0.00  0.00    +0.000 NA
ATOM      4  C   UNL     1      46.081   7.509  12.883  0.00  0.00    +0.000 A 
ATOM      5  C   UNL     1      46.179   6.141  13.156  0.00  0.00    +0.000 A 
ATOM      6  C   UNL     1      45.303   5.327  12.432  0.00  0.00    +0.000 A 
ENDROOT
BRANCH   5   7
ATOM      7  N   UNL     1      47.024   5.651  14.132  0.00  0.00    +0.000 N 
ATOM      8  C   UNL     1      47.034   4.230  14.513  0.00  0.00    +0.000 C 
ATOM      9  C   UNL     1      47.398   4.127  16.005  0.00  0.00    +0.000 C 
ATOM     10  O   UNL     1      48.645   4.782  16.303  0.00  0.00    +0.000 OA
ATOM     11  C   UNL     1      48.583   6.172  15.934  0.00  0.00    +0.000 C 
ATOM     12  C   UNL     1      48.288   6.341  14.436  0.00  0.00    +0.000 C 
ENDBRANCH   5   7
BRANCH   1  13
ATOM     13  C   UNL     1      43.399   5.047  10.727  0.00  0.00    +0.000 C 
BRANCH  13  18
ATOM     14  C   UNL     1      46.571   2.496   7.547  0.00  0.00    +0.000 A 
ATOM     15  C   UNL     1      46.305   3.853   7.660  0.00  0.00    +0.000 A 
ATOM     16  C   UNL     1      45.395   4.295   8.619  0.00  0.00    +0.000 A 
ATOM     17  C   UNL     1      44.758   3.371   9.443  0.00  0.00    +0.000 A 
ATOM     18  N   UNL     1      43.861   3.717  10.413  0.00  0.00    +0.000 N 
ATOM     19  N   UNL     1      44.999   2.053   9.330  0.00  0.00    +0.000 NA
ATOM     20  C   UNL     1      45.899   1.641   8.401  0.00  0.00    +0.000 A 
ATOM     21  H   UNL     1      43.420   2.925  10.863  0.00  0.00    +0.000 HD
BRANCH  14  23
ATOM     22  N   UNL     1      48.252   1.589   5.802  0.00  0.00    +0.000 NA
ATOM     23  C   UNL     1      47.494   1.995   6.582  0.00  0.00    +0.000 C 
ENDBRANCH  14  23
ENDBRANCH  13  18
ENDBRANCH   1  13
TORSDOF 4
ENDMDL
MODEL 2
REMARK VINA RESULT:    -7.519      2.276      3.522
REMARK INTER + INTRA:          -9.793
REMARK INTER:                  -9.316
REMARK INTRA:                  -0.477
REMARK UNBOUND:                -0.517
REMARK  Name = 
REMARK  4 active torsions:
REMARK  status: ('A' for Active; 'I' for Inactive)
REMARK    1  A    between atoms: C_2  and  C_3
REMARK    2  A    between atoms: N_7  and  C_8
REMARK    3  A    between atoms: C_8  and  C_9
REMARK    4  A    between atoms: C_13  and  N_14
REMARK                            x       y       z     vdW  Elec       q    Type
REMARK                         _______ _______ _______ _____ _____    ______ ____
ROOT
ATOM      1  C   UNL     1      44.484   5.313  11.659  0.00  0.00    +0.000 A 
ATOM      2  C   UNL     1      45.250   4.624  12.593  0.00  0.00    +0.000 A 
ATOM      3  N   UNL     1      46.133   5.207  13.426  0.00  0.00    +0.000 NA
ATOM      4  C   UNL     1      46.279   6.549  13.302  0.00  0.00    +0.000 A 
ATOM      5  C   UNL     1      45.598   7.363  12.391  0.00  0.00    +0.000 A 
ATOM      6  C   UNL     1      44.674   6.701  11.578  0.00  0.00    +0.000 A 
ENDROOT
BRANCH   5   7
ATOM      7  N   UNL     1      45.887   8.707  12.257  0.00  0.00    +0.000 N 
ATOM      8  C   UNL     1      44.830   9.728  12.190  0.00  0.00    +0.000 C 
ATOM      9  C   UNL     1      45.324  10.884  11.300  0.00  0.00    +0.000 C 
ATOM     10  O   UNL     1      46.577  11.421  11.760  0.00  0.00    +0.000 OA
ATOM     11  C   UNL     1      47.585  10.395  11.789  0.00  0.00    +0.000 C 
ATOM     12  C   UNL     1      47.179   9.239  12.718  0.00  0.00    +0.000 C 
ENDBRANCH   5   7
BRANCH   1  13
ATOM     13  C   UNL     1      43.514   4.539  10.808  0.00  0.00    +0.000 C 
BRANCH  13  18
ATOM     14  C   UNL     1      46.712   2.471   7.318  0.00  0.00    +0.000 A 
ATOM     15  C   UNL     1      46.400   3.797   7.583  0.00  0.00    +0.000 A 
ATOM     16  C   UNL     1      45.493   4.097   8.599  0.00  0.00    +0.000 A 
ATOM     17  C   UNL     1      44.906   3.065   9.328  0.00  0.00    +0.000 A 
ATOM     18  N   UNL     1      44.017   3.269  10.344  0.00  0.00    +0.000 N 
ATOM     19  N   UNL     1      45.193   1.777   9.067  0.00  0.00    +0.000 NA
ATOM     20  C   UNL     1      46.088   1.503   8.084  0.00  0.00    +0.000 A 
ATOM     21  H   UNL     1      43.614   2.417  10.711  0.00  0.00    +0.000 HD
BRANCH  14  23
ATOM     22  N   UNL     1      48.388   1.827   5.456  0.00  0.00    +0.000 NA
ATOM     23  C   UNL     1      47.633   2.113   6.290  0.00  0.00    +0.000 C 
ENDBRANCH  14  23
ENDBRANCH  13  18
ENDBRANCH   1  13
TORSDOF 4
ENDMDL
MODEL 3
REMARK VINA RESULT:    -6.936      3.014      6.775
REMARK INTER + INTRA:          -9.074
REMARK INTER:                  -8.436
REMARK INTRA:                  -0.638
REMARK UNBOUND:                -0.517
REMARK  Name = 
REMARK  4 active torsions:
REMARK  status: ('A' for Active; 'I' for Inactive)
REMARK    1  A    between atoms: C_2  and  C_3
REMARK    2  A    between atoms: N_7  and  C_8
REMARK    3  A    between atoms: C_8  and  C_9
REMARK    4  A    between atoms: C_13  and  N_14
REMARK                            x       y       z     vdW  Elec       q    Type
REMARK                         _______ _______ _______ _____ _____    ______ ____
ROOT
ATOM      1  C   UNL     1      44.391   4.954  11.726  0.00  0.00    +0.000 A 
ATOM      2  C   UNL     1      43.424   4.090  12.229  0.00  0.00    +0.000 A 
ATOM      3  N   UNL     1      43.156   2.873  11.720  0.00  0.00    +0.000 NA
ATOM      4  C   UNL     1      43.878   2.506  10.633  0.00  0.00    +0.000 A 
ATOM      5  C   UNL     1      44.860   3.280  10.005  0.00  0.00    +0.000 A 
ATOM      6  C   UNL     1      45.110   4.519  10.602  0.00  0.00    +0.000 A 
ENDROOT
BRANCH   5   7
ATOM      7  N   UNL     1      45.471   2.875   8.835  0.00  0.00    +0.000 N 
ATOM      8  C   UNL     1      45.610   1.454   8.480  0.00  0.00    +0.000 C 
ATOM      9  C   UNL     1      46.906   1.278   7.667  0.00  0.00    +0.000 C 
ATOM     10  O   UNL     1      46.939   2.137   6.513  0.00  0.00    +0.000 OA
ATOM     11  C   UNL     1      46.822   3.516   6.907  0.00  0.00    +0.000 C 
ATOM     12  C   UNL     1      45.511   3.770   7.668  0.00  0.00    +0.000 C 
ENDBRANCH   5   7
BRANCH   1  13
ATOM     13  C   UNL     1      44.604   6.278  12.409  0.00  0.00    +0.000 C 
BRANCH  13  18
ATOM     14  C   UNL     1      49.559   7.720  12.626  0.00  0.00    +0.000 A 
ATOM     15  C   UNL     1      48.634   7.821  11.597  0.00  0.00    +0.000 A 
ATOM     16  C   UNL     1      47.335   7.353  11.796  0.00  0.00    +0.000 A 
ATOM     17  C   UNL     1      46.986   6.782  13.018  0.00  0.00    +0.000 A 
ATOM     18  N   UNL     1      45.738   6.308  13.300  0.00  0.00    +0.000 N 
ATOM     19  N   UNL     1      47.882   6.668  14.015  0.00  0.00    +0.000 NA
ATOM     20  C   UNL     1      49.138   7.141  13.810  0.00  0.00    +0.000 A 
ATOM     21  H   UNL     1      45.671   5.843  14.197  0.00  0.00    +0.000 HD
BRANCH  14  23
ATOM     22  N   UNL     1      51.988   8.567  12.355  0.00  0.00    +0.000 NA
ATOM     23  C   UNL     1      50.899   8.185  12.473  0.00  0.00    +0.000 C 
ENDBRANCH  14  23
ENDBRANCH  13  18
ENDBRANCH   1  13
TORSDOF 4
ENDMDL
MODEL 4
REMARK VINA RESULT:    -6.867      2.273      3.234
REMARK INTER + INTRA:          -8.990
REMARK INTER:                  -8.464
REMARK INTRA:                  -0.526
REMARK UNBOUND:                -0.517
REMARK  Name = 
REMARK  4 active torsions:
REMARK  status: ('A' for Active; 'I' for Inactive)
REMARK    1  A    between atoms: C_2  and  C_3
REMARK    2  A    between atoms: N_7  and  C_8
REMARK    3  A    between atoms: C_8  and  C_9
REMARK    4  A    between atoms: C_13  and  N_14
REMARK                            x       y       z     vdW  Elec       q    Type
REMARK                         _______ _______ _______ _____ _____    ______ ____
ROOT
ATOM      1  C   UNL     1      45.031   5.551  11.810  0.00  0.00    +0.000 A 
ATOM      2  C   UNL     1      45.405   4.847  12.950  0.00  0.00    +0.000 A 
ATOM      3  N   UNL     1      46.332   5.268  13.831  0.00  0.00    +0.000 NA
ATOM      4  C   UNL     1      46.939   6.446  13.544  0.00  0.00    +0.000 A 
ATOM      5  C   UNL     1      46.686   7.244  12.424  0.00  0.00    +0.000 A 
ATOM      6  C   UNL     1      45.691   6.765  11.567  0.00  0.00    +0.000 A 
ENDROOT
BRANCH   5   7
ATOM      7  N   UNL     1      47.429   8.375  12.152  0.00  0.00    +0.000 N 
ATOM      8  C   UNL     1      48.793   8.301  11.606  0.00  0.00    +0.000 C 
ATOM      9  C   UNL     1      49.597   9.503  12.135  0.00  0.00    +0.000 C 
ATOM     10  O   UNL     1      48.955  10.755  11.833  0.00  0.00    +0.000 OA
ATOM     11  C   UNL     1      47.634  10.794  12.403  0.00  0.00    +0.000 C 
ATOM     12  C   UNL     1      46.759   9.653  11.861  0.00  0.00    +0.000 C 
ENDBRANCH   5   7
BRANCH   1  13
ATOM     13  C   UNL     1      43.960   4.976  10.923  0.00  0.00    +0.000 C 
BRANCH  13  18
ATOM     14  C   UNL     1      46.725   2.567   7.286  0.00  0.00    +0.000 A 
ATOM     15  C   UNL     1      46.618   3.916   7.594  0.00  0.00    +0.000 A 
ATOM     16  C   UNL     1      45.793   4.315   8.645  0.00  0.00    +0.000 A 
ATOM     17  C   UNL     1      45.080   3.359   9.364  0.00  0.00    +0.000 A 
ATOM     18  N   UNL     1      44.258   3.660  10.412  0.00  0.00    +0.000 N 
ATOM     19  N   UNL     1      45.168   2.051   9.063  0.00  0.00    +0.000 NA
ATOM     20  C   UNL     1      45.986   1.678   8.046  0.00  0.00    +0.000 A 
ATOM     21  H   UNL     1      43.744   2.866  10.770  0.00  0.00    +0.000 HD
BRANCH  14  23
ATOM     22  N   UNL     1      48.226   1.731   5.352  0.00  0.00    +0.000 NA
ATOM     23  C   UNL     1      47.556   2.108   6.221  0.00  0.00    +0.000 C 
ENDBRANCH  14  23
ENDBRANCH  13  18
ENDBRANCH   1  13
TORSDOF 4
ENDMDL
MODEL 5
REMARK VINA RESULT:    -6.572      1.917      2.779
REMARK INTER + INTRA:          -8.626
REMARK INTER:                  -8.133
REMARK INTRA:                  -0.492
REMARK UNBOUND:                -0.517
REMARK  Name = 
REMARK  4 active torsions:
REMARK  status: ('A' for Active; 'I' for Inactive)
REMARK    1  A    between atoms: C_2  and  C_3
REMARK    2  A    between atoms: N_7  and  C_8
REMARK    3  A    between atoms: C_8  and  C_9
REMARK    4  A    between atoms: C_13  and  N_14
REMARK                            x       y       z     vdW  Elec       q    Type
REMARK                         _______ _______ _______ _____ _____    ______ ____
ROOT
ATOM      1  C   UNL     1      45.337   5.593  12.369  0.00  0.00    +0.000 A 
ATOM      2  C   UNL     1      45.144   4.545  13.262  0.00  0.00    +0.000 A 
ATOM      3  N   UNL     1      45.939   4.294  14.319  0.00  0.00    +0.000 NA
ATOM      4  C   UNL     1      47.002   5.120  14.479  0.00  0.00    +0.000 A 
ATOM      5  C   UNL     1      47.335   6.193  13.646  0.00  0.00    +0.000 A 
ATOM      6  C   UNL     1      46.451   6.418  12.587  0.00  0.00    +0.000 A 
ENDROOT
BRANCH   5   7
ATOM      7  N   UNL     1      48.498   6.917  13.819  0.00  0.00    +0.000 N 
ATOM      8  C   UNL     1      49.213   6.948  15.104  0.00  0.00    +0.000 C 
ATOM      9  C   UNL     1      49.898   8.320  15.250  0.00  0.00    +0.000 C 
ATOM     10  O   UNL     1      50.760   8.612  14.135  0.00  0.00    +0.000 OA
ATOM     11  C   UNL     1      50.016   8.593  12.904  0.00  0.00    +0.000 C 
ATOM     12  C   UNL     1      49.362   7.223  12.668  0.00  0.00    +0.000 C 
ENDBRANCH   5   7
BRANCH   1  13
ATOM     13  C   UNL     1      44.355   5.775  11.244  0.00  0.00    +0.000 C 
BRANCH  13  18
ATOM     14  C   UNL     1      46.216   2.345   7.860  0.00  0.00    +0.000 A 
ATOM     15  C   UNL     1      45.668   2.163   9.122  0.00  0.00    +0.000 A 
ATOM     16  C   UNL     1      45.228   3.272   9.843  0.00  0.00    +0.000 A 
ATOM     17  C   UNL     1      45.352   4.546   9.295  0.00  0.00    +0.000 A 
ATOM     18  N   UNL     1      44.939   5.684   9.928  0.00  0.00    +0.000 N 
ATOM     19  N   UNL     1      45.895   4.733   8.079  0.00  0.00    +0.000 NA
ATOM     20  C   UNL     1      46.306   3.641   7.384  0.00  0.00    +0.000 A 
ATOM     21  H   UNL     1      45.181   6.535   9.437  0.00  0.00    +0.000 HD
BRANCH  14  23
ATOM     22  N   UNL     1      47.061   0.345   6.455  0.00  0.00    +0.000 NA
ATOM     23  C   UNL     1      46.680   1.244   7.082  0.00  0.00    +0.000 C 
ENDBRANCH  14  23
ENDBRANCH  13  18
ENDBRANCH   1  13
TORSDOF 4
ENDMDL
MODEL 6
REMARK VINA RESULT:    -6.313      1.780      2.291
REMARK INTER + INTRA:          -8.306
REMARK INTER:                  -8.194
REMARK INTRA:                  -0.112
REMARK UNBOUND:                -0.517
REMARK  Name = 
REMARK  4 active torsions:
REMARK  status: ('A' for Active; 'I' for Inactive)
REMARK    1  A    between atoms: C_2  and  C_3
REMARK    2  A    between atoms: N_7  and  C_8
REMARK    3  A    between atoms: C_8  and  C_9
REMARK    4  A    between atoms: C_13  and  N_14
REMARK                            x       y       z     vdW  Elec       q    Type
REMARK                         _______ _______ _______ _____ _____    ______ ____
ROOT
ATOM      1  C   UNL     1      43.776   4.974  11.668  0.00  0.00    +0.000 A 
ATOM      2  C   UNL     1      42.935   5.968  11.178  0.00  0.00    +0.000 A 
ATOM      3  N   UNL     1      43.257   7.275  11.124  0.00  0.00    +0.000 NA
ATOM      4  C   UNL     1      44.477   7.611  11.611  0.00  0.00    +0.000 A 
ATOM      5  C   UNL     1      45.411   6.726  12.158  0.00  0.00    +0.000 A 
ATOM      6  C   UNL     1      45.027   5.382  12.155  0.00  0.00    +0.000 A 
ENDROOT
BRANCH   5   7
ATOM      7  N   UNL     1      46.586   7.168  12.732  0.00  0.00    +0.000 N 
ATOM      8  C   UNL     1      46.706   8.507  13.331  0.00  0.00    +0.000 C 
ATOM      9  C   UNL     1      48.155   8.996  13.148  0.00  0.00    +0.000 C 
ATOM     10  O   UNL     1      49.110   8.066  13.690  0.00  0.00    +0.000 OA
ATOM     11  C   UNL     1      48.972   6.779  13.061  0.00  0.00    +0.000 C 
ATOM     12  C   UNL     1      47.561   6.205  13.267  0.00  0.00    +0.000 C 
ENDBRANCH   5   7
BRANCH   1  13
ATOM     13  C   UNL     1      43.298   3.548  11.645  0.00  0.00    +0.000 C 
BRANCH  13  18
ATOM     14  C   UNL     1      46.007   2.853   7.302  0.00  0.00    +0.000 A 
ATOM     15  C   UNL     1      45.166   3.888   7.686  0.00  0.00    +0.000 A 
ATOM     16  C   UNL     1      44.548   3.840   8.935  0.00  0.00    +0.000 A 
ATOM     17  C   UNL     1      44.771   2.752   9.775  0.00  0.00    +0.000 A 
ATOM     18  N   UNL     1      44.214   2.628  11.015  0.00  0.00    +0.000 N 
ATOM     19  N   UNL     1      45.573   1.737   9.404  0.00  0.00    +0.000 NA
ATOM     20  C   UNL     1      46.179   1.807   8.191  0.00  0.00    +0.000 A 
ATOM     21  H   UNL     1      44.403   1.739  11.461  0.00  0.00    +0.000 HD
BRANCH  14  23
ATOM     22  N   UNL     1      47.192   2.855   5.003  0.00  0.00    +0.000 NA
ATOM     23  C   UNL     1      46.663   2.856   6.036  0.00  0.00    +0.000 C 
ENDBRANCH  14  23
ENDBRANCH  13  18
ENDBRANCH   1  13
TORSDOF 4
ENDMDL
MODEL 7
REMARK VINA RESULT:    -6.224      4.187      8.166
REMARK INTER + INTRA:          -8.196
REMARK INTER:                  -7.697
REMARK INTRA:                  -0.500
REMARK UNBOUND:                -0.517
REMARK  Name = 
REMARK  4 active torsions:
REMARK  status: ('A' for Active; 'I' for Inactive)
REMARK    1  A    between atoms: C_2  and  C_3
REMARK    2  A    between atoms: N_7  and  C_8
REMARK    3  A    between atoms: C_8  and  C_9
REMARK    4  A    between atoms: C_13  and  N_14
REMARK                            x       y       z     vdW  Elec       q    Type
REMARK                         _______ _______ _______ _____ _____    ______ ____
ROOT
ATOM      1  C   UNL     1      47.433   4.701  15.513  0.00  0.00    +0.000 A 
ATOM      2  C   UNL     1      48.288   5.735  15.146  0.00  0.00    +0.000 A 
ATOM      3  N   UNL     1      48.193   6.424  13.993  0.00  0.00    +0.000 NA
ATOM      4  C   UNL     1      47.205   6.042  13.147  0.00  0.00    +0.000 A 
ATOM      5  C   UNL     1      46.293   5.006  13.370  0.00  0.00    +0.000 A 
ATOM      6  C   UNL     1      46.427   4.353  14.599  0.00  0.00    +0.000 A 
ENDROOT
BRANCH   5   7
ATOM      7  N   UNL     1      45.387   4.611  12.406  0.00  0.00    +0.000 N 
ATOM      8  C   UNL     1      45.093   5.440  11.226  0.00  0.00    +0.000 C 
ATOM      9  C   UNL     1      43.626   5.207  10.819  0.00  0.00    +0.000 C 
ATOM     10  O   UNL     1      43.344   3.814  10.594  0.00  0.00    +0.000 OA
ATOM     11  C   UNL     1      43.624   3.046  11.778  0.00  0.00    +0.000 C 
ATOM     12  C   UNL     1      45.096   3.184  12.198  0.00  0.00    +0.000 C 
ENDBRANCH   5   7
BRANCH   1  13
ATOM     13  C   UNL     1      47.636   4.032  16.845  0.00  0.00    +0.000 C 
BRANCH  13  18
ATOM     14  C   UNL     1      52.397   2.339  17.920  0.00  0.00    +0.000 A 
ATOM     15  C   UNL     1      51.824   3.592  18.088  0.00  0.00    +0.000 A 
ATOM     16  C   UNL     1      50.496   3.793  17.716  0.00  0.00    +0.000 A 
ATOM     17  C   UNL     1      49.763   2.740  17.174  0.00  0.00    +0.000 A 
ATOM     18  N   UNL     1      48.456   2.847  16.793  0.00  0.00    +0.000 N 
ATOM     19  N   UNL     1      50.315   1.526  16.996  0.00  0.00    +0.000 NA
ATOM     20  C   UNL     1      51.605   1.344  17.375  0.00  0.00    +0.000 A 
ATOM     21  H   UNL     1      48.096   2.019  16.335  0.00  0.00    +0.000 HD
BRANCH  14  23
ATOM     22  N   UNL     1      54.854   1.882  18.584  0.00  0.00    +0.000 NA
ATOM     23  C   UNL     1      53.751   2.083  18.285  0.00  0.00    +0.000 C 
ENDBRANCH  14  23
ENDBRANCH  13  18
ENDBRANCH   1  13
TORSDOF 4
ENDMDL
MODEL 8
REMARK VINA RESULT:    -5.727      3.060      7.197
REMARK INTER + INTRA:          -7.583
REMARK INTER:                  -7.026
REMARK INTRA:                  -0.557
REMARK UNBOUND:                -0.517
REMARK  Name = 
REMARK  4 active torsions:
REMARK  status: ('A' for Active; 'I' for Inactive)
REMARK    1  A    between atoms: C_2  and  C_3
REMARK    2  A    between atoms: N_7  and  C_8
REMARK    3  A    between atoms: C_8  and  C_9
REMARK    4  A    between atoms: C_13  and  N_14
REMARK                            x       y       z     vdW  Elec       q    Type
REMARK                         _______ _______ _______ _____ _____    ______ ____
ROOT
ATOM      1  C   UNL     1      45.252   6.237  12.274  0.00  0.00    +0.000 A 
ATOM      2  C   UNL     1      44.663   5.461  13.266  0.00  0.00    +0.000 A 
ATOM      3  N   UNL     1      44.385   4.149  13.139  0.00  0.00    +0.000 NA
ATOM      4  C   UNL     1      44.690   3.587  11.944  0.00  0.00    +0.000 A 
ATOM      5  C   UNL     1      45.256   4.248  10.849  0.00  0.00    +0.000 A 
ATOM      6  C   UNL     1      45.548   5.599  11.060  0.00  0.00    +0.000 A 
ENDROOT
BRANCH   5   7
ATOM      7  N   UNL     1      45.433   3.624   9.631  0.00  0.00    +0.000 N 
ATOM      8  C   UNL     1      44.972   2.249   9.385  0.00  0.00    +0.000 C 
ATOM      9  C   UNL     1      45.926   1.587   8.374  0.00  0.00    +0.000 C 
ATOM     10  O   UNL     1      46.040   2.352   7.160  0.00  0.00    +0.000 OA
ATOM     11  C   UNL     1      46.514   3.680   7.444  0.00  0.00    +0.000 C 
ATOM     12  C   UNL     1      45.564   4.420   8.400  0.00  0.00    +0.000 C 
ENDBRANCH   5   7
BRANCH   1  13
ATOM     13  C   UNL     1      45.531   7.687  12.560  0.00  0.00    +0.000 C 
BRANCH  13  18
ATOM     14  C   UNL     1      50.320   7.658  14.495  0.00  0.00    +0.000 A 
ATOM     15  C   UNL     1      49.136   7.152  15.009  0.00  0.00    +0.000 A 
ATOM     16  C   UNL     1      47.957   7.286  14.276  0.00  0.00    +0.000 A 
ATOM     17  C   UNL     1      47.982   7.934  13.043  0.00  0.00    +0.000 A 
ATOM     18  N   UNL     1      46.879   8.101  12.256  0.00  0.00    +0.000 N 
ATOM     19  N   UNL     1      49.124   8.440  12.543  0.00  0.00    +0.000 NA
ATOM     20  C   UNL     1      50.264   8.288  13.264  0.00  0.00    +0.000 A 
ATOM     21  H   UNL     1      47.045   8.670  11.435  0.00  0.00    +0.000 HD
BRANCH  14  23
ATOM     22  N   UNL     1      52.552   7.444  15.785  0.00  0.00    +0.000 NA
ATOM     23  C   UNL     1      51.551   7.544  15.206  0.00  0.00    +0.000 C 
ENDBRANCH  14  23
ENDBRANCH  13  18
ENDBRANCH   1  13
TORSDOF 4
ENDMDL
MODEL 9
REMARK VINA RESULT:    -5.512      3.117      7.907
REMARK INTER + INTRA:          -7.318
REMARK INTER:                  -6.750
REMARK INTRA:                  -0.567
REMARK UNBOUND:                -0.517
REMARK  Name = 
REMARK  4 active torsions:
REMARK  status: ('A' for Active; 'I' for Inactive)
REMARK    1  A    between atoms: C_2  and  C_3
REMARK    2  A    between atoms: N_7  and  C_8
REMARK    3  A    between atoms: C_8  and  C_9
REMARK    4  A    between atoms: C_13  and  N_14
REMARK                            x       y       z     vdW  Elec       q    Type
REMARK                         _______ _______ _______ _____ _____    ______ ____
ROOT
ATOM      1  C   UNL     1      47.436   7.060  12.864  0.00  0.00    +0.000 A 
ATOM      2  C   UNL     1      46.823   8.286  12.633  0.00  0.00    +0.000 A 
ATOM      3  N   UNL     1      45.575   8.431  12.147  0.00  0.00    +0.000 NA
ATOM      4  C   UNL     1      44.912   7.287  11.851  0.00  0.00    +0.000 A 
ATOM      5  C   UNL     1      45.412   5.989  12.004  0.00  0.00    +0.000 A 
ATOM      6  C   UNL     1      46.699   5.909  12.542  0.00  0.00    +0.000 A 
ENDROOT
BRANCH   5   7
ATOM      7  N   UNL     1      44.709   4.881  11.574  0.00  0.00    +0.000 N 
ATOM      8  C   UNL     1      43.532   4.376  12.297  0.00  0.00    +0.000 C 
ATOM      9  C   UNL     1      43.468   2.848  12.119  0.00  0.00    +0.000 C 
ATOM     10  O   UNL     1      43.464   2.466  10.732  0.00  0.00    +0.000 OA
ATOM     11  C   UNL     1      44.642   2.962  10.070  0.00  0.00    +0.000 C 
ATOM     12  C   UNL     1      44.728   4.494  10.155  0.00  0.00    +0.000 C 
ENDBRANCH   5   7
BRANCH   1  13
ATOM     13  C   UNL     1      48.827   7.043  13.437  0.00  0.00    +0.000 C 
BRANCH  13  18
ATOM     14  C   UNL     1      48.681   5.671  18.415  0.00  0.00    +0.000 A 
ATOM     15  C   UNL     1      48.568   4.905  17.263  0.00  0.00    +0.000 A 
ATOM     16  C   UNL     1      48.648   5.526  16.017  0.00  0.00    +0.000 A 
ATOM     17  C   UNL     1      48.829   6.905  15.943  0.00  0.00    +0.000 A 
ATOM     18  N   UNL     1      48.926   7.592  14.767  0.00  0.00    +0.000 N 
ATOM     19  N   UNL     1      48.925   7.657  17.055  0.00  0.00    +0.000 NA
ATOM     20  C   UNL     1      48.859   7.034  18.260  0.00  0.00    +0.000 A 
ATOM     21  H   UNL     1      48.965   8.597  14.883  0.00  0.00    +0.000 HD
BRANCH  14  23
ATOM     22  N   UNL     1      48.540   4.604  20.767  0.00  0.00    +0.000 NA
ATOM     23  C   UNL     1      48.608   5.083  19.712  0.00  0.00    +0.000 C 
ENDBRANCH  14  23
ENDBRANCH  13  18
ENDBRANCH   1  13
TORSDOF 4
ENDMDL
