MODEL 1
REMARK VINA RESULT:    -6.842      0.000      0.000
REMARK INTER + INTRA:         -10.726
REMARK INTER:                 -10.042
REMARK INTRA:                  -0.685
REMARK UNBOUND:                -0.685
REMARK  Name = 
REMARK  12 active torsions:
REMARK  status: ('A' for Active; 'I' for Inactive)
REMARK    1  A    between atoms: C_1  and  C_2
REMARK    2  A    between atoms: C_2  and  N_3
REMARK    3  A    between atoms: N_3  and  C_4
REMARK    4  A    between atoms: C_4  and  C_5
REMARK    5  A    between atoms: C_6  and  C_8
REMARK    6  A    between atoms: C_11  and  O_12
REMARK    7  A    between atoms: O_12  and  C_13
REMARK    8  A    between atoms: C_13  and  C_14
REMARK    9  A    between atoms: C_14  and  C_15
REMARK   10  A    between atoms: C_14  and  C_16
REMARK   11  A    between atoms: C_14  and  C_17
REMARK   12  A    between atoms: C_21  and  C_22
REMARK                            x       y       z     vdW  Elec       q    Type
REMARK                         _______ _______ _______ _____ _____    ______ ____
ROOT
ATOM      1  C   UNL     1      48.563   5.333  15.896  0.00  0.00    +0.000 A 
ATOM      2  N   UNL     1      48.668   6.320  14.980  0.00  0.00    +0.000 NA
ATOM      3  C   UNL     1      47.819   6.272  13.935  0.00  0.00    +0.000 A 
ATOM      4  C   UNL     1      46.891   5.276  13.745  0.00  0.00    +0.000 A 
ATOM      5  C   UNL     1      46.874   4.314  14.737  0.00  0.00    +0.000 A 
ATOM      6  N   UNL     1      47.688   4.311  15.817  0.00  0.00    +0.000 NA
ENDROOT
BRANCH   1   8
ATOM      7  N   UNL     1      49.255   6.151  18.216  0.00  0.00    +0.000 N 
ATOM      8  C   UNL     1      49.524   5.340  17.074  0.00  0.00    +0.000 C 
ATOM      9  O   UNL     1      50.540   4.643  17.017  0.00  0.00    +0.000 OA
BRANCH   7  11
ATOM     10  C   UNL     1      50.249   5.130  20.262  0.00  0.00    +0.000 C 
ATOM     11  C   UNL     1      50.312   6.245  19.227  0.00  0.00    +0.000 C 
ENDBRANCH   7  11
BRANCH   7  12
ATOM     12  C   UNL     1      48.019   6.935  18.331  0.00  0.00    +0.000 C 
ATOM     13  C   UNL     1      47.572   7.445  19.689  0.00  0.00    +0.000 C 
ENDBRANCH   7  12
ENDBRANCH   1   8
BRANCH   4  14
ATOM     14  O   UNL     1      46.019   5.145  12.712  0.00  0.00    +0.000 OA
BRANCH  14  15
ATOM     15  C   UNL     1      45.375   3.870  12.568  0.00  0.00    +0.000 C 
BRANCH  15  16
ATOM     16  C   UNL     1      44.329   3.921  11.416  0.00  0.00    +0.000 C 
ATOM     17  C   UNL     1      43.257   2.841  11.701  0.00  0.00    +0.000 C 
ATOM     18  C   UNL     1      43.608   5.288  11.426  0.00  0.00    +0.000 C 
BRANCH  16  19
ATOM     19  C   UNL     1      45.040   3.729  10.058  0.00  0.00    +0.000 A 
ATOM     20  C   UNL     1      45.344   4.805   9.208  0.00  0.00    +0.000 A 
ATOM     21  C   UNL     1      45.976   4.609   7.973  0.00  0.00    +0.000 A 
ATOM     22  C   UNL     1      46.323   3.329   7.558  0.00  0.00    +0.000 A 
ATOM     23  C   UNL     1      46.048   2.238   8.386  0.00  0.00    +0.000 A 
ATOM     24  C   UNL     1      45.416   2.440   9.620  0.00  0.00    +0.000 A 
BRANCH  23  25
ATOM     25  C   UNL     1      46.410   0.914   7.971  0.00  0.00    +0.000 C 
ATOM     26  N   UNL     1      46.709  -0.153   7.638  0.00  0.00    +0.000 NA
ENDBRANCH  23  25
ENDBRANCH  16  19
ENDBRANCH  15  16
ENDBRANCH  14  15
ENDBRANCH   4  14
TORSDOF 8
ENDMDL
MODEL 2
REMARK VINA RESULT:    -6.755      2.837      3.895
REMARK INTER + INTRA:         -10.599
REMARK INTER:                  -9.708
REMARK INTRA:                  -0.891
REMARK UNBOUND:                -0.685
REMARK  Name = 
REMARK  12 active torsions:
REMARK  status: ('A' for Active; 'I' for Inactive)
REMARK    1  A    between atoms: C_1  and  C_2
REMARK    2  A    between atoms: C_2  and  N_3
REMARK    3  A    between atoms: N_3  and  C_4
REMARK    4  A    between atoms: C_4  and  C_5
REMARK    5  A    between atoms: C_6  and  C_8
REMARK    6  A    between atoms: C_11  and  O_12
REMARK    7  A    between atoms: O_12  and  C_13
REMARK    8  A    between atoms: C_13  and  C_14
REMARK    9  A    between atoms: C_14  and  C_15
REMARK   10  A    between atoms: C_14  and  C_16
REMARK   11  A    between atoms: C_14  and  C_17
REMARK   12  A    between atoms: C_21  and  C_22
REMARK                            x       y       z     vdW  Elec       q    Type
REMARK                         _______ _______ _______ _____ _____    ______ ____
ROOT
ATOM      1  C   UNL     1      48.401   7.281  13.716  0.00  0.00    +0.000 A 
ATOM      2  N   UNL     1      48.405   5.986  14.095  0.00  0.00    +0.000 NA
ATOM      3  C   UNL     1      47.283   5.278  13.854  0.00  0.00    +0.000 A 
ATOM      4  C   UNL     1      46.152   5.806  13.279  0.00  0.00    +0.000 A 
ATOM      5  C   UNL     1      46.254   7.142  12.937  0.00  0.00    +0.000 A 
ATOM      6  N   UNL     1      47.354   7.903  13.138  0.00  0.00    +0.000 NA
ENDROOT
BRANCH   1   8
ATOM      7  N   UNL     1      50.600   8.349  12.968  0.00  0.00    +0.000 N 
ATOM      8  C   UNL     1      49.640   8.117  13.997  0.00  0.00    +0.000 C 
ATOM      9  O   UNL     1      49.802   8.576  15.130  0.00  0.00    +0.000 OA
BRANCH   7  11
ATOM     10  C   UNL     1      51.898  10.477  12.978  0.00  0.00    +0.000 C 
ATOM     11  C   UNL     1      51.850   9.005  13.362  0.00  0.00    +0.000 C 
ENDBRANCH   7  11
BRANCH   7  12
ATOM     12  C   UNL     1      50.392   7.867  11.597  0.00  0.00    +0.000 C 
ATOM     13  C   UNL     1      51.587   7.606  10.698  0.00  0.00    +0.000 C 
ENDBRANCH   7  12
ENDBRANCH   1   8
BRANCH   4  14
ATOM     14  O   UNL     1      44.980   5.170  13.025  0.00  0.00    +0.000 OA
BRANCH  14  15
ATOM     15  C   UNL     1      45.069   3.834  12.506  0.00  0.00    +0.000 C 
BRANCH  15  16
ATOM     16  C   UNL     1      44.086   3.652  11.313  0.00  0.00    +0.000 C 
ATOM     17  C   UNL     1      43.189   2.428  11.619  0.00  0.00    +0.000 C 
ATOM     18  C   UNL     1      43.155   4.881  11.212  0.00  0.00    +0.000 C 
BRANCH  16  19
ATOM     19  C   UNL     1      44.884   3.506   9.998  0.00  0.00    +0.000 A 
ATOM     20  C   UNL     1      45.212   4.608   9.190  0.00  0.00    +0.000 A 
ATOM     21  C   UNL     1      45.923   4.454   7.993  0.00  0.00    +0.000 A 
ATOM     22  C   UNL     1      46.330   3.192   7.576  0.00  0.00    +0.000 A 
ATOM     23  C   UNL     1      46.034   2.077   8.364  0.00  0.00    +0.000 A 
ATOM     24  C   UNL     1      45.322   2.238   9.560  0.00  0.00    +0.000 A 
BRANCH  23  25
ATOM     25  C   UNL     1      46.457   0.773   7.947  0.00  0.00    +0.000 C 
ATOM     26  N   UNL     1      46.801  -0.282   7.617  0.00  0.00    +0.000 NA
ENDBRANCH  23  25
ENDBRANCH  16  19
ENDBRANCH  15  16
ENDBRANCH  14  15
ENDBRANCH   4  14
TORSDOF 8
ENDMDL
MODEL 3
REMARK VINA RESULT:    -6.409      1.295      2.061
REMARK INTER + INTRA:         -10.091
REMARK INTER:                  -9.257
REMARK INTRA:                  -0.834
REMARK UNBOUND:                -0.685
REMARK  Name = 
REMARK  12 active torsions:
REMARK  status: ('A' for Active; 'I' for Inactive)
REMARK    1  A    between atoms: C_1  and  C_2
REMARK    2  A    between atoms: C_2  and  N_3
REMARK    3  A    between atoms: N_3  and  C_4
REMARK    4  A    between atoms: C_4  and  C_5
REMARK    5  A    between atoms: C_6  and  C_8
REMARK    6  A    between atoms: C_11  and  O_12
REMARK    7  A    between atoms: O_12  and  C_13
REMARK    8  A    between atoms: C_13  and  C_14
REMARK    9  A    between atoms: C_14  and  C_15
REMARK   10  A    between atoms: C_14  and  C_16
REMARK   11  A    between atoms: C_14  and  C_17
REMARK   12  A    between atoms: C_21  and  C_22
REMARK                            x       y       z     vdW  Elec       q    Type
REMARK                         _______ _______ _______ _____ _____    ______ ____
ROOT
ATOM      1  C   UNL     1      48.391   4.814  16.232  0.00  0.00    +0.000 A 
ATOM      2  N   UNL     1      47.488   3.884  15.853  0.00  0.00    +0.000 NA
ATOM      3  C   UNL     1      46.795   4.133  14.725  0.00  0.00    +0.000 A 
ATOM      4  C   UNL     1      46.940   5.274  13.972  0.00  0.00    +0.000 A 
ATOM      5  C   UNL     1      47.884   6.161  14.454  0.00  0.00    +0.000 A 
ATOM      6  N   UNL     1      48.622   5.964  15.569  0.00  0.00    +0.000 NA
ENDROOT
BRANCH   1   8
ATOM      7  N   UNL     1      48.737   5.165  18.740  0.00  0.00    +0.000 N 
ATOM      8  C   UNL     1      49.172   4.578  17.515  0.00  0.00    +0.000 C 
ATOM      9  O   UNL     1      50.190   3.884  17.472  0.00  0.00    +0.000 OA
BRANCH   7  11
ATOM     10  C   UNL     1      48.942   4.515  21.137  0.00  0.00    +0.000 C 
ATOM     11  C   UNL     1      49.637   5.044  19.890  0.00  0.00    +0.000 C 
ENDBRANCH   7  11
BRANCH   7  12
ATOM     12  C   UNL     1      47.492   5.939  18.824  0.00  0.00    +0.000 C 
ATOM     13  C   UNL     1      47.549   7.445  19.004  0.00  0.00    +0.000 C 
ENDBRANCH   7  12
ENDBRANCH   1   8
BRANCH   4  14
ATOM     14  O   UNL     1      46.266   5.609  12.841  0.00  0.00    +0.000 OA
BRANCH  14  15
ATOM     15  C   UNL     1      44.893   5.196  12.760  0.00  0.00    +0.000 C 
BRANCH  15  16
ATOM     16  C   UNL     1      44.310   5.535  11.357  0.00  0.00    +0.000 C 
ATOM     17  C   UNL     1      42.811   5.877  11.538  0.00  0.00    +0.000 C 
ATOM     18  C   UNL     1      44.998   6.801  10.799  0.00  0.00    +0.000 C 
BRANCH  16  19
ATOM     19  C   UNL     1      44.553   4.355  10.392  0.00  0.00    +0.000 A 
ATOM     20  C   UNL     1      44.073   3.059  10.650  0.00  0.00    +0.000 A 
ATOM     21  C   UNL     1      44.317   1.998   9.770  0.00  0.00    +0.000 A 
ATOM     22  C   UNL     1      45.044   2.206   8.603  0.00  0.00    +0.000 A 
ATOM     23  C   UNL     1      45.522   3.485   8.309  0.00  0.00    +0.000 A 
ATOM     24  C   UNL     1      45.275   4.543   9.193  0.00  0.00    +0.000 A 
BRANCH  23  25
ATOM     25  C   UNL     1      46.265   3.711   7.104  0.00  0.00    +0.000 C 
ATOM     26  N   UNL     1      46.861   3.889   6.128  0.00  0.00    +0.000 NA
ENDBRANCH  23  25
ENDBRANCH  16  19
ENDBRANCH  15  16
ENDBRANCH  14  15
ENDBRANCH   4  14
TORSDOF 8
ENDMDL
MODEL 4
REMARK VINA RESULT:    -6.217      1.722      2.585
REMARK INTER + INTRA:          -9.809
REMARK INTER:                  -8.962
REMARK INTRA:                  -0.847
REMARK UNBOUND:                -0.685
REMARK  Name = 
REMARK  12 active torsions:
REMARK  status: ('A' for Active; 'I' for Inactive)
REMARK    1  A    between atoms: C_1  and  C_2
REMARK    2  A    between atoms: C_2  and  N_3
REMARK    3  A    between atoms: N_3  and  C_4
REMARK    4  A    between atoms: C_4  and  C_5
REMARK    5  A    between atoms: C_6  and  C_8
REMARK    6  A    between atoms: C_11  and  O_12
REMARK    7  A    between atoms: O_12  and  C_13
REMARK    8  A    between atoms: C_13  and  C_14
REMARK    9  A    between atoms: C_14  and  C_15
REMARK   10  A    between atoms: C_14  and  C_16
REMARK   11  A    between atoms: C_14  and  C_17
REMARK   12  A    between atoms: C_21  and  C_22
REMARK                            x       y       z     vdW  Elec       q    Type
REMARK                         _______ _______ _______ _____ _____    ______ ____
ROOT
ATOM      1  C   UNL     1      48.368   5.274  16.792  0.00  0.00    +0.000 A 
ATOM      2  N   UNL     1      48.664   6.135  15.794  0.00  0.00    +0.000 NA
ATOM      3  C   UNL     1      48.034   5.943  14.618  0.00  0.00    +0.000 A 
ATOM      4  C   UNL     1      47.146   4.921  14.382  0.00  0.00    +0.000 A 
ATOM      5  C   UNL     1      46.922   4.095  15.468  0.00  0.00    +0.000 A 
ATOM      6  N   UNL     1      47.510   4.242  16.677  0.00  0.00    +0.000 NA
ENDROOT
BRANCH   1   8
ATOM      7  N   UNL     1      50.289   4.737  18.390  0.00  0.00    +0.000 N 
ATOM      8  C   UNL     1      49.080   5.445  18.124  0.00  0.00    +0.000 C 
ATOM      9  O   UNL     1      48.586   6.195  18.970  0.00  0.00    +0.000 OA
BRANCH   7  11
ATOM     10  C   UNL     1      52.242   5.340  19.817  0.00  0.00    +0.000 C 
ATOM     11  C   UNL     1      50.815   4.810  19.755  0.00  0.00    +0.000 C 
ENDBRANCH   7  11
BRANCH   7  12
ATOM     12  C   UNL     1      50.927   3.892  17.372  0.00  0.00    +0.000 C 
ATOM     13  C   UNL     1      50.801   2.382  17.456  0.00  0.00    +0.000 C 
ENDBRANCH   7  12
ENDBRANCH   1   8
BRANCH   4  14
ATOM     14  O   UNL     1      46.491   4.646  13.225  0.00  0.00    +0.000 OA
BRANCH  14  15
ATOM     15  C   UNL     1      45.219   5.285  13.034  0.00  0.00    +0.000 C 
BRANCH  15  16
ATOM     16  C   UNL     1      45.084   5.792  11.569  0.00  0.00    +0.000 C 
ATOM     17  C   UNL     1      43.869   6.749  11.509  0.00  0.00    +0.000 C 
ATOM     18  C   UNL     1      46.332   6.620  11.187  0.00  0.00    +0.000 C 
BRANCH  16  19
ATOM     19  C   UNL     1      44.957   4.588  10.610  0.00  0.00    +0.000 A 
ATOM     20  C   UNL     1      44.249   3.424  10.952  0.00  0.00    +0.000 A 
ATOM     21  C   UNL     1      44.158   2.336  10.075  0.00  0.00    +0.000 A 
ATOM     22  C   UNL     1      44.772   2.386   8.828  0.00  0.00    +0.000 A 
ATOM     23  C   UNL     1      45.471   3.535   8.451  0.00  0.00    +0.000 A 
ATOM     24  C   UNL     1      45.558   4.619   9.333  0.00  0.00    +0.000 A 
BRANCH  23  25
ATOM     25  C   UNL     1      46.100   3.599   7.164  0.00  0.00    +0.000 C 
ATOM     26  N   UNL     1      46.604   3.658   6.124  0.00  0.00    +0.000 NA
ENDBRANCH  23  25
ENDBRANCH  16  19
ENDBRANCH  15  16
ENDBRANCH  14  15
ENDBRANCH   4  14
TORSDOF 8
ENDMDL
MODEL 5
REMARK VINA RESULT:    -5.687      2.573      8.400
REMARK INTER + INTRA:          -9.031
REMARK INTER:                  -8.059
REMARK INTRA:                  -0.972
REMARK UNBOUND:                -0.685
REMARK  Name = 
REMARK  12 active torsions:
REMARK  status: ('A' for Active; 'I' for Inactive)
REMARK    1  A    between atoms: C_1  and  C_2
REMARK    2  A    between atoms: C_2  and  N_3
REMARK    3  A    between atoms: N_3  and  C_4
REMARK    4  A    between atoms: C_4  and  C_5
REMARK    5  A    between atoms: C_6  and  C_8
REMARK    6  A    between atoms: C_11  and  O_12
REMARK    7  A    between atoms: O_12  and  C_13
REMARK    8  A    between atoms: C_13  and  C_14
REMARK    9  A    between atoms: C_14  and  C_15
REMARK   10  A    between atoms: C_14  and  C_16
REMARK   11  A    between atoms: C_14  and  C_17
REMARK   12  A    between atoms: C_21  and  C_22
REMARK                            x       y       z     vdW  Elec       q    Type
REMARK                         _______ _______ _______ _____ _____    ______ ____
ROOT
ATOM      1  C   UNL     1      46.258   6.287  11.596  0.00  0.00    +0.000 A 
ATOM      2  N   UNL     1      47.298   5.743  12.264  0.00  0.00    +0.000 NA
ATOM      3  C   UNL     1      47.831   6.477  13.260  0.00  0.00    +0.000 A 
ATOM      4  C   UNL     1      47.395   7.734  13.605  0.00  0.00    +0.000 A 
ATOM      5  C   UNL     1      46.333   8.198  12.852  0.00  0.00    +0.000 A 
ATOM      6  N   UNL     1      45.744   7.506  11.850  0.00  0.00    +0.000 NA
ENDROOT
BRANCH   1   8
ATOM      7  N   UNL     1      44.726   4.444  10.708  0.00  0.00    +0.000 N 
ATOM      8  C   UNL     1      45.649   5.499  10.447  0.00  0.00    +0.000 C 
ATOM      9  O   UNL     1      45.979   5.781   9.292  0.00  0.00    +0.000 OA
BRANCH   7  11
ATOM     10  C   UNL     1      45.284   2.462   9.303  0.00  0.00    +0.000 C 
ATOM     11  C   UNL     1      44.326   3.615   9.568  0.00  0.00    +0.000 C 
ENDBRANCH   7  11
BRANCH   7  12
ATOM     12  C   UNL     1      44.271   4.137  12.070  0.00  0.00    +0.000 C 
ATOM     13  C   UNL     1      43.450   2.887  12.329  0.00  0.00    +0.000 C 
ENDBRANCH   7  12
ENDBRANCH   1   8
BRANCH   4  14
ATOM     14  O   UNL     1      47.892   8.544  14.576  0.00  0.00    +0.000 OA
BRANCH  14  15
ATOM     15  C   UNL     1      49.287   8.404  14.883  0.00  0.00    +0.000 C 
BRANCH  15  16
ATOM     16  C   UNL     1      49.490   8.271  16.421  0.00  0.00    +0.000 C 
ATOM     17  C   UNL     1      50.689   9.166  16.820  0.00  0.00    +0.000 C 
ATOM     18  C   UNL     1      48.249   8.821  17.160  0.00  0.00    +0.000 C 
BRANCH  16  19
ATOM     19  C   UNL     1      49.690   6.786  16.794  0.00  0.00    +0.000 A 
ATOM     20  C   UNL     1      50.957   6.238  17.053  0.00  0.00    +0.000 A 
ATOM     21  C   UNL     1      51.120   4.885  17.374  0.00  0.00    +0.000 A 
ATOM     22  C   UNL     1      50.016   4.044  17.449  0.00  0.00    +0.000 A 
ATOM     23  C   UNL     1      48.740   4.560  17.212  0.00  0.00    +0.000 A 
ATOM     24  C   UNL     1      48.584   5.914  16.891  0.00  0.00    +0.000 A 
BRANCH  23  25
ATOM     25  C   UNL     1      47.594   3.702  17.296  0.00  0.00    +0.000 C 
ATOM     26  N   UNL     1      46.666   3.014  17.368  0.00  0.00    +0.000 NA
ENDBRANCH  23  25
ENDBRANCH  16  19
ENDBRANCH  15  16
ENDBRANCH  14  15
ENDBRANCH   4  14
TORSDOF 8
ENDMDL
MODEL 6
REMARK VINA RESULT:    -5.674      3.080      8.813
REMARK INTER + INTRA:          -9.013
REMARK INTER:                  -8.351
REMARK INTRA:                  -0.662
REMARK UNBOUND:                -0.685
REMARK  Name = 
REMARK  12 active torsions:
REMARK  status: ('A' for Active; 'I' for Inactive)
REMARK    1  A    between atoms: C_1  and  C_2
REMARK    2  A    between atoms: C_2  and  N_3
REMARK    3  A    between atoms: N_3  and  C_4
REMARK    4  A    between atoms: C_4  and  C_5
REMARK    5  A    between atoms: C_6  and  C_8
REMARK    6  A    between atoms: C_11  and  O_12
REMARK    7  A    between atoms: O_12  and  C_13
REMARK    8  A    between atoms: C_13  and  C_14
REMARK    9  A    between atoms: C_14  and  C_15
REMARK   10  A    between atoms: C_14  and  C_16
REMARK   11  A    between atoms: C_14  and  C_17
REMARK   12  A    between atoms: C_21  and  C_22
REMARK                            x       y       z     vdW  Elec       q    Type
REMARK                         _______ _______ _______ _____ _____    ______ ____
ROOT
ATOM      1  C   UNL     1      46.789   4.712  14.112  0.00  0.00    +0.000 A 
ATOM      2  N   UNL     1      47.596   5.696  13.662  0.00  0.00    +0.000 NA
ATOM      3  C   UNL     1      48.446   6.242  14.554  0.00  0.00    +0.000 A 
ATOM      4  C   UNL     1      48.513   5.871  15.875  0.00  0.00    +0.000 A 
ATOM      5  C   UNL     1      47.639   4.861  16.231  0.00  0.00    +0.000 A 
ATOM      6  N   UNL     1      46.772   4.263  15.383  0.00  0.00    +0.000 NA
ENDROOT
BRANCH   1   8
ATOM      7  N   UNL     1      44.744   4.880  12.589  0.00  0.00    +0.000 N 
ATOM      8  C   UNL     1      45.797   4.093  13.140  0.00  0.00    +0.000 C 
ATOM      9  O   UNL     1      45.915   2.900  12.850  0.00  0.00    +0.000 OA
BRANCH   7  11
ATOM     10  C   UNL     1      43.885   4.366  10.306  0.00  0.00    +0.000 C 
ATOM     11  C   UNL     1      43.726   4.173  11.807  0.00  0.00    +0.000 C 
ENDBRANCH   7  11
BRANCH   7  12
ATOM     12  C   UNL     1      44.627   6.317  12.869  0.00  0.00    +0.000 C 
ATOM     13  C   UNL     1      45.120   7.328  11.850  0.00  0.00    +0.000 C 
ENDBRANCH   7  12
ENDBRANCH   1   8
BRANCH   4  14
ATOM     14  O   UNL     1      49.322   6.384  16.838  0.00  0.00    +0.000 OA
BRANCH  14  15
ATOM     15  C   UNL     1      49.560   5.561  17.990  0.00  0.00    +0.000 C 
BRANCH  15  16
ATOM     16  C   UNL     1      51.087   5.316  18.172  0.00  0.00    +0.000 C 
ATOM     17  C   UNL     1      51.836   6.243  17.184  0.00  0.00    +0.000 C 
ATOM     18  C   UNL     1      51.515   5.732  19.597  0.00  0.00    +0.000 C 
BRANCH  16  19
ATOM     19  C   UNL     1      51.403   3.819  17.960  0.00  0.00    +0.000 A 
ATOM     20  C   UNL     1      50.464   2.917  17.433  0.00  0.00    +0.000 A 
ATOM     21  C   UNL     1      50.765   1.560  17.262  0.00  0.00    +0.000 A 
ATOM     22  C   UNL     1      52.017   1.070  17.612  0.00  0.00    +0.000 A 
ATOM     23  C   UNL     1      52.980   1.942  18.125  0.00  0.00    +0.000 A 
ATOM     24  C   UNL     1      52.673   3.299  18.293  0.00  0.00    +0.000 A 
BRANCH  23  25
ATOM     25  C   UNL     1      54.278   1.448  18.480  0.00  0.00    +0.000 C 
ATOM     26  N   UNL     1      55.325   1.053  18.773  0.00  0.00    +0.000 NA
ENDBRANCH  23  25
ENDBRANCH  16  19
ENDBRANCH  15  16
ENDBRANCH  14  15
ENDBRANCH   4  14
TORSDOF 8
ENDMDL
MODEL 7
REMARK VINA RESULT:    -5.391      3.036      4.572
REMARK INTER + INTRA:          -8.597
REMARK INTER:                  -7.666
REMARK INTRA:                  -0.931
REMARK UNBOUND:                -0.685
REMARK  Name = 
REMARK  12 active torsions:
REMARK  status: ('A' for Active; 'I' for Inactive)
REMARK    1  A    between atoms: C_1  and  C_2
REMARK    2  A    between atoms: C_2  and  N_3
REMARK    3  A    between atoms: N_3  and  C_4
REMARK    4  A    between atoms: C_4  and  C_5
REMARK    5  A    between atoms: C_6  and  C_8
REMARK    6  A    between atoms: C_11  and  O_12
REMARK    7  A    between atoms: O_12  and  C_13
REMARK    8  A    between atoms: C_13  and  C_14
REMARK    9  A    between atoms: C_14  and  C_15
REMARK   10  A    between atoms: C_14  and  C_16
REMARK   11  A    between atoms: C_14  and  C_17
REMARK   12  A    between atoms: C_21  and  C_22
REMARK                            x       y       z     vdW  Elec       q    Type
REMARK                         _______ _______ _______ _____ _____    ______ ____
ROOT
ATOM      1  C   UNL     1      49.138   4.831  17.344  0.00  0.00    +0.000 A 
ATOM      2  N   UNL     1      49.109   5.623  16.251  0.00  0.00    +0.000 NA
ATOM      3  C   UNL     1      48.118   5.401  15.365  0.00  0.00    +0.000 A 
ATOM      4  C   UNL     1      47.173   4.414  15.504  0.00  0.00    +0.000 A 
ATOM      5  C   UNL     1      47.300   3.657  16.654  0.00  0.00    +0.000 A 
ATOM      6  N   UNL     1      48.261   3.838  17.588  0.00  0.00    +0.000 NA
ENDROOT
BRANCH   1   8
ATOM      7  N   UNL     1      51.351   4.120  18.408  0.00  0.00    +0.000 N 
ATOM      8  C   UNL     1      50.259   5.036  18.351  0.00  0.00    +0.000 C 
ATOM      9  O   UNL     1      50.197   5.997  19.121  0.00  0.00    +0.000 OA
BRANCH   7  11
ATOM     10  C   UNL     1      53.553   5.038  19.129  0.00  0.00    +0.000 C 
ATOM     11  C   UNL     1      52.292   4.278  19.519  0.00  0.00    +0.000 C 
ENDBRANCH   7  11
BRANCH   7  12
ATOM     12  C   UNL     1      51.475   3.009  17.456  0.00  0.00    +0.000 C 
ATOM     13  C   UNL     1      52.338   1.809  17.803  0.00  0.00    +0.000 C 
ENDBRANCH   7  12
ENDBRANCH   1   8
BRANCH   4  14
ATOM     14  O   UNL     1      46.161   4.112  14.649  0.00  0.00    +0.000 OA
BRANCH  14  15
ATOM     15  C   UNL     1      46.472   4.126  13.248  0.00  0.00    +0.000 C 
BRANCH  15  16
ATOM     16  C   UNL     1      45.521   5.100  12.493  0.00  0.00    +0.000 C 
ATOM     17  C   UNL     1      45.226   4.490  11.101  0.00  0.00    +0.000 C 
ATOM     18  C   UNL     1      44.172   5.195  13.241  0.00  0.00    +0.000 C 
BRANCH  16  19
ATOM     19  C   UNL     1      46.163   6.503  12.419  0.00  0.00    +0.000 A 
ATOM     20  C   UNL     1      45.446   7.676  12.708  0.00  0.00    +0.000 A 
ATOM     21  C   UNL     1      46.042   8.940  12.620  0.00  0.00    +0.000 A 
ATOM     22  C   UNL     1      47.375   9.063  12.244  0.00  0.00    +0.000 A 
ATOM     23  C   UNL     1      48.120   7.916  11.964  0.00  0.00    +0.000 A 
ATOM     24  C   UNL     1      47.518   6.654  12.054  0.00  0.00    +0.000 A 
BRANCH  23  25
ATOM     25  C   UNL     1      49.497   8.032  11.584  0.00  0.00    +0.000 C 
ATOM     26  N   UNL     1      50.609   8.133  11.281  0.00  0.00    +0.000 NA
ENDBRANCH  23  25
ENDBRANCH  16  19
ENDBRANCH  15  16
ENDBRANCH  14  15
ENDBRANCH   4  14
TORSDOF 8
ENDMDL
MODEL 8
REMARK VINA RESULT:    -5.289      2.868      4.820
REMARK INTER + INTRA:          -8.447
REMARK INTER:                  -7.443
REMARK INTRA:                  -1.004
REMARK UNBOUND:                -0.685
REMARK  Name = 
REMARK  12 active torsions:
REMARK  status: ('A' for Active; 'I' for Inactive)
REMARK    1  A    between atoms: C_1  and  C_2
REMARK    2  A    between atoms: C_2  and  N_3
REMARK    3  A    between atoms: N_3  and  C_4
REMARK    4  A    between atoms: C_4  and  C_5
REMARK    5  A    between atoms: C_6  and  C_8
REMARK    6  A    between atoms: C_11  and  O_12
REMARK    7  A    between atoms: O_12  and  C_13
REMARK    8  A    between atoms: C_13  and  C_14
REMARK    9  A    between atoms: C_14  and  C_15
REMARK   10  A    between atoms: C_14  and  C_16
REMARK   11  A    between atoms: C_14  and  C_17
REMARK   12  A    between atoms: C_21  and  C_22
REMARK                            x       y       z     vdW  Elec       q    Type
REMARK                         _______ _______ _______ _____ _____    ______ ____
ROOT
ATOM      1  C   UNL     1      48.740   5.337  16.210  0.00  0.00    +0.000 A 
ATOM      2  N   UNL     1      47.919   4.268  16.146  0.00  0.00    +0.000 NA
ATOM      3  C   UNL     1      47.107   4.188  15.073  0.00  0.00    +0.000 A 
ATOM      4  C   UNL     1      47.058   5.133  14.076  0.00  0.00    +0.000 A 
ATOM      5  C   UNL     1      47.934   6.188  14.245  0.00  0.00    +0.000 A 
ATOM      6  N   UNL     1      48.783   6.321  15.289  0.00  0.00    +0.000 NA
ENDROOT
BRANCH   1   8
ATOM      7  N   UNL     1      49.168   6.081  18.617  0.00  0.00    +0.000 N 
ATOM      8  C   UNL     1      49.650   5.474  17.420  0.00  0.00    +0.000 C 
ATOM      9  O   UNL     1      50.810   5.063  17.341  0.00  0.00    +0.000 OA
BRANCH   7  11
ATOM     10  C   UNL     1      50.106   5.317  20.796  0.00  0.00    +0.000 C 
ATOM     11  C   UNL     1      50.152   6.342  19.672  0.00  0.00    +0.000 C 
ENDBRANCH   7  11
BRANCH   7  12
ATOM     12  C   UNL     1      47.772   6.516  18.753  0.00  0.00    +0.000 C 
ATOM     13  C   UNL     1      47.459   7.972  19.048  0.00  0.00    +0.000 C 
ENDBRANCH   7  12
ENDBRANCH   1   8
BRANCH   4  14
ATOM     14  O   UNL     1      46.256   5.137  12.980  0.00  0.00    +0.000 OA
BRANCH  14  15
ATOM     15  C   UNL     1      45.093   5.977  13.032  0.00  0.00    +0.000 C 
BRANCH  15  16
ATOM     16  C   UNL     1      44.789   6.567  11.624  0.00  0.00    +0.000 C 
ATOM     17  C   UNL     1      45.638   5.788  10.591  0.00  0.00    +0.000 C 
ATOM     18  C   UNL     1      43.306   6.325  11.266  0.00  0.00    +0.000 C 
BRANCH  16  19
ATOM     19  C   UNL     1      45.073   8.085  11.623  0.00  0.00    +0.000 A 
ATOM     20  C   UNL     1      44.139   9.026  11.161  0.00  0.00    +0.000 A 
ATOM     21  C   UNL     1      44.421  10.398  11.154  0.00  0.00    +0.000 A 
ATOM     22  C   UNL     1      45.646  10.865  11.615  0.00  0.00    +0.000 A 
ATOM     23  C   UNL     1      46.593   9.957  12.096  0.00  0.00    +0.000 A 
ATOM     24  C   UNL     1      46.304   8.586  12.100  0.00  0.00    +0.000 A 
BRANCH  23  25
ATOM     25  C   UNL     1      47.856  10.429  12.581  0.00  0.00    +0.000 C 
ATOM     26  N   UNL     1      48.878  10.803  12.974  0.00  0.00    +0.000 NA
ENDBRANCH  23  25
ENDBRANCH  16  19
ENDBRANCH  15  16
ENDBRANCH  14  15
ENDBRANCH   4  14
TORSDOF 8
ENDMDL
MODEL 9
REMARK VINA RESULT:    -5.210      3.098      4.758
REMARK INTER + INTRA:          -8.332
REMARK INTER:                  -7.476
REMARK INTRA:                  -0.856
REMARK UNBOUND:                -0.685
REMARK  Name = 
REMARK  12 active torsions:
REMARK  status: ('A' for Active; 'I' for Inactive)
REMARK    1  A    between atoms: C_1  and  C_2
REMARK    2  A    between atoms: C_2  and  N_3
REMARK    3  A    between atoms: N_3  and  C_4
REMARK    4  A    between atoms: C_4  and  C_5
REMARK    5  A    between atoms: C_6  and  C_8
REMARK    6  A    between atoms: C_11  and  O_12
REMARK    7  A    between atoms: O_12  and  C_13
REMARK    8  A    between atoms: C_13  and  C_14
REMARK    9  A    between atoms: C_14  and  C_15
REMARK   10  A    between atoms: C_14  and  C_16
REMARK   11  A    between atoms: C_14  and  C_17
REMARK   12  A    between atoms: C_21  and  C_22
REMARK                            x       y       z     vdW  Elec       q    Type
REMARK                         _______ _______ _______ _____ _____    ______ ____
ROOT
ATOM      1  C   UNL     1      48.804   5.282  16.240  0.00  0.00    +0.000 A 
ATOM      2  N   UNL     1      47.919   4.270  16.117  0.00  0.00    +0.000 NA
ATOM      3  C   UNL     1      47.147   4.269  15.012  0.00  0.00    +0.000 A 
ATOM      4  C   UNL     1      47.197   5.240  14.040  0.00  0.00    +0.000 A 
ATOM      5  C   UNL     1      48.132   6.231  14.270  0.00  0.00    +0.000 A 
ATOM      6  N   UNL     1      48.946   6.282  15.349  0.00  0.00    +0.000 NA
ENDROOT
BRANCH   1   8
ATOM      7  N   UNL     1      49.234   6.042  18.642  0.00  0.00    +0.000 N 
ATOM      8  C   UNL     1      49.673   5.329  17.487  0.00  0.00    +0.000 C 
ATOM      9  O   UNL     1      50.763   4.753  17.475  0.00  0.00    +0.000 OA
BRANCH   7  11
ATOM     10  C   UNL     1      50.018   5.166  20.840  0.00  0.00    +0.000 C 
ATOM     11  C   UNL     1      50.200   6.196  19.733  0.00  0.00    +0.000 C 
ENDBRANCH   7  11
BRANCH   7  12
ATOM     12  C   UNL     1      47.912   6.678  18.700  0.00  0.00    +0.000 C 
ATOM     13  C   UNL     1      46.718   5.894  19.212  0.00  0.00    +0.000 C 
ENDBRANCH   7  12
ENDBRANCH   1   8
BRANCH   4  14
ATOM     14  O   UNL     1      46.442   5.323  12.915  0.00  0.00    +0.000 OA
BRANCH  14  15
ATOM     15  C   UNL     1      45.087   5.772  13.077  0.00  0.00    +0.000 C 
BRANCH  15  16
ATOM     16  C   UNL     1      44.500   6.220  11.707  0.00  0.00    +0.000 C 
ATOM     17  C   UNL     1      45.297   5.500  10.592  0.00  0.00    +0.000 C 
ATOM     18  C   UNL     1      43.032   5.749  11.590  0.00  0.00    +0.000 C 
BRANCH  16  19
ATOM     19  C   UNL     1      44.552   7.759  11.595  0.00  0.00    +0.000 A 
ATOM     20  C   UNL     1      45.605   8.518  12.134  0.00  0.00    +0.000 A 
ATOM     21  C   UNL     1      45.627   9.915  12.035  0.00  0.00    +0.000 A 
ATOM     22  C   UNL     1      44.597  10.590  11.390  0.00  0.00    +0.000 A 
ATOM     23  C   UNL     1      43.543   9.864  10.829  0.00  0.00    +0.000 A 
ATOM     24  C   UNL     1      43.527   8.467  10.931  0.00  0.00    +0.000 A 
BRANCH  23  25
ATOM     25  C   UNL     1      42.481  10.550  10.154  0.00  0.00    +0.000 C 
ATOM     26  N   UNL     1      41.620  11.097   9.608  0.00  0.00    +0.000 NA
ENDBRANCH  23  25
ENDBRANCH  16  19
ENDBRANCH  15  16
ENDBRANCH  14  15
ENDBRANCH   4  14
TORSDOF 8
ENDMDL
