MODEL 1
REMARK VINA RESULT:    -8.355      0.000      0.000
REMARK INTER + INTRA:         -12.520
REMARK INTER:                 -11.774
REMARK INTRA:                  -0.746
REMARK UNBOUND:                -0.746
REMARK  Name = 
REMARK  8 active torsions:
REMARK  status: ('A' for Active; 'I' for Inactive)
REMARK    1  A    between atoms: C_1  and  O_2
REMARK    2  A    between atoms: O_2  and  C_3
REMARK    3  A    between atoms: N_7  and  C_8
REMARK    4  A    between atoms: C_8  and  C_9
REMARK    5  A    between atoms: C_9  and  C_12
REMARK    6  A    between atoms: C_16  and  O_17
REMARK    7  A    between atoms: O_17  and  C_18
REMARK    8  A    between atoms: C_24  and  C_25
REMARK                            x       y       z     vdW  Elec       q    Type
REMARK                         _______ _______ _______ _____ _____    ______ ____
ROOT
ATOM      1  C   UNL     1      46.458   3.364   7.552  0.00  0.00    +0.000 A 
ATOM      2  C   UNL     1      45.820   4.515   7.992  0.00  0.00    +0.000 A 
ATOM      3  C   UNL     1      44.927   4.452   9.058  0.00  0.00    +0.000 A 
ATOM      4  C   UNL     1      44.653   3.239   9.680  0.00  0.00    +0.000 A 
ATOM      5  N   UNL     1      43.769   3.137  10.726  0.00  0.00    +0.000 N 
ATOM      6  N   UNL     1      45.245   2.101   9.270  0.00  0.00    +0.000 NA
ATOM      7  C   UNL     1      46.131   2.177   8.213  0.00  0.00    +0.000 A 
ATOM      8  H   UNL     1      43.634   2.212  11.116  0.00  0.00    +0.000 HD
ENDROOT
BRANCH   7   9
ATOM      9  C   UNL     1      46.771   0.862   7.834  0.00  0.00    +0.000 C 
ATOM     10  N   UNL     1      48.024   0.968   7.278  0.00  0.00    +0.000 N 
ATOM     11  O   UNL     1      46.263  -0.245   7.970  0.00  0.00    +0.000 OA
ATOM     12  H   UNL     1      48.439   1.883   7.154  0.00  0.00    +0.000 HD
ATOM     13  H   UNL     1      48.505   0.129   6.987  0.00  0.00    +0.000 HD
ENDBRANCH   7   9
BRANCH   1  15
ATOM     14  C   UNL     1      46.786   3.071   5.223  0.00  0.00    +0.000 C 
ATOM     15  O   UNL     1      47.333   3.355   6.505  0.00  0.00    +0.000 OA
ENDBRANCH   1  15
BRANCH   5  16
ATOM     16  C   UNL     1      43.096   4.293  11.327  0.00  0.00    +0.000 C 
BRANCH  16  17
ATOM     17  C   UNL     1      43.492   4.597  12.794  0.00  0.00    +0.000 C 
ATOM     18  F   UNL     1      42.580   5.466  13.321  0.00  0.00    +0.000 F 
ATOM     19  F   UNL     1      43.362   3.450  13.526  0.00  0.00    +0.000 F 
BRANCH  17  20
ATOM     20  C   UNL     1      44.909   5.146  12.841  0.00  0.00    +0.000 A 
ATOM     21  C   UNL     1      45.326   6.123  11.925  0.00  0.00    +0.000 A 
ATOM     22  C   UNL     1      46.608   6.671  12.009  0.00  0.00    +0.000 A 
ATOM     23  C   UNL     1      47.494   6.250  13.003  0.00  0.00    +0.000 A 
ATOM     24  C   UNL     1      47.099   5.272  13.912  0.00  0.00    +0.000 A 
ATOM     25  C   UNL     1      45.812   4.728  13.833  0.00  0.00    +0.000 A 
BRANCH  24  26
ATOM     26  O   UNL     1      47.872   4.806  14.947  0.00  0.00    +0.000 OA
BRANCH  26  27
ATOM     27  C   UNL     1      47.302   3.877  15.896  0.00  0.00    +0.000 C 
ATOM     28  C   UNL     1      47.195   4.348  17.365  0.00  0.00    +0.000 C 
ATOM     29  C   UNL     1      47.837   3.030  17.819  0.00  0.00    +0.000 C 
ATOM     30  C   UNL     1      48.292   2.787  16.375  0.00  0.00    +0.000 C 
ENDBRANCH  26  27
ENDBRANCH  24  26
ENDBRANCH  17  20
ENDBRANCH  16  17
ENDBRANCH   5  16
TORSDOF 7
ENDMDL
MODEL 2
REMARK VINA RESULT:    -7.941      3.075      8.135
REMARK INTER + INTRA:         -11.937
REMARK INTER:                 -10.788
REMARK INTRA:                  -1.149
REMARK UNBOUND:                -0.746
REMARK  Name = 
REMARK  8 active torsions:
REMARK  status: ('A' for Active; 'I' for Inactive)
REMARK    1  A    between atoms: C_1  and  O_2
REMARK    2  A    between atoms: O_2  and  C_3
REMARK    3  A    between atoms: N_7  and  C_8
REMARK    4  A    between atoms: C_8  and  C_9
REMARK    5  A    between atoms: C_9  and  C_12
REMARK    6  A    between atoms: C_16  and  O_17
REMARK    7  A    between atoms: O_17  and  C_18
REMARK    8  A    between atoms: C_24  and  C_25
REMARK                            x       y       z     vdW  Elec       q    Type
REMARK                         _______ _______ _______ _____ _____    ______ ____
ROOT
ATOM      1  C   UNL     1      48.629   5.620  17.342  0.00  0.00    +0.000 A 
ATOM      2  C   UNL     1      48.757   6.726  16.513  0.00  0.00    +0.000 A 
ATOM      3  C   UNL     1      48.304   6.665  15.197  0.00  0.00    +0.000 A 
ATOM      4  C   UNL     1      47.738   5.497  14.698  0.00  0.00    +0.000 A 
ATOM      5  N   UNL     1      47.293   5.398  13.402  0.00  0.00    +0.000 N 
ATOM      6  N   UNL     1      47.611   4.402  15.472  0.00  0.00    +0.000 NA
ATOM      7  C   UNL     1      48.061   4.476  16.775  0.00  0.00    +0.000 A 
ATOM      8  H   UNL     1      46.894   4.507  13.128  0.00  0.00    +0.000 HD
ENDROOT
BRANCH   7   9
ATOM      9  C   UNL     1      47.857   3.216  17.582  0.00  0.00    +0.000 C 
ATOM     10  N   UNL     1      48.987   2.736  18.201  0.00  0.00    +0.000 N 
ATOM     11  O   UNL     1      46.798   2.611  17.705  0.00  0.00    +0.000 OA
ATOM     12  H   UNL     1      49.864   3.228  18.090  0.00  0.00    +0.000 HD
ATOM     13  H   UNL     1      48.926   1.887  18.746  0.00  0.00    +0.000 HD
ENDBRANCH   7   9
BRANCH   1  15
ATOM     14  C   UNL     1      48.194   6.184  19.603  0.00  0.00    +0.000 C 
ATOM     15  O   UNL     1      49.064   5.610  18.635  0.00  0.00    +0.000 OA
ENDBRANCH   1  15
BRANCH   5  16
ATOM     16  C   UNL     1      47.302   6.520  12.459  0.00  0.00    +0.000 C 
BRANCH  16  17
ATOM     17  C   UNL     1      45.906   6.991  11.979  0.00  0.00    +0.000 C 
ATOM     18  F   UNL     1      45.134   7.253  13.075  0.00  0.00    +0.000 F 
ATOM     19  F   UNL     1      46.047   8.191  11.341  0.00  0.00    +0.000 F 
BRANCH  17  20
ATOM     20  C   UNL     1      45.290   5.933  11.077  0.00  0.00    +0.000 A 
ATOM     21  C   UNL     1      44.087   5.306  11.431  0.00  0.00    +0.000 A 
ATOM     22  C   UNL     1      43.490   4.381  10.571  0.00  0.00    +0.000 A 
ATOM     23  C   UNL     1      44.086   4.065   9.348  0.00  0.00    +0.000 A 
ATOM     24  C   UNL     1      45.287   4.671   8.988  0.00  0.00    +0.000 A 
ATOM     25  C   UNL     1      45.881   5.603   9.845  0.00  0.00    +0.000 A 
BRANCH  24  26
ATOM     26  O   UNL     1      45.944   4.462   7.801  0.00  0.00    +0.000 OA
BRANCH  26  27
ATOM     27  C   UNL     1      45.856   3.170   7.159  0.00  0.00    +0.000 C 
ATOM     28  C   UNL     1      46.452   1.963   7.922  0.00  0.00    +0.000 C 
ATOM     29  C   UNL     1      47.201   1.547   6.648  0.00  0.00    +0.000 C 
ATOM     30  C   UNL     1      46.931   2.940   6.068  0.00  0.00    +0.000 C 
ENDBRANCH  26  27
ENDBRANCH  24  26
ENDBRANCH  17  20
ENDBRANCH  16  17
ENDBRANCH   5  16
TORSDOF 7
ENDMDL
MODEL 3
REMARK VINA RESULT:    -7.717      3.427      8.286
REMARK INTER + INTRA:         -11.621
REMARK INTER:                 -10.527
REMARK INTRA:                  -1.093
REMARK UNBOUND:                -0.746
REMARK  Name = 
REMARK  8 active torsions:
REMARK  status: ('A' for Active; 'I' for Inactive)
REMARK    1  A    between atoms: C_1  and  O_2
REMARK    2  A    between atoms: O_2  and  C_3
REMARK    3  A    between atoms: N_7  and  C_8
REMARK    4  A    between atoms: C_8  and  C_9
REMARK    5  A    between atoms: C_9  and  C_12
REMARK    6  A    between atoms: C_16  and  O_17
REMARK    7  A    between atoms: O_17  and  C_18
REMARK    8  A    between atoms: C_24  and  C_25
REMARK                            x       y       z     vdW  Elec       q    Type
REMARK                         _______ _______ _______ _____ _____    ______ ____
ROOT
ATOM      1  C   UNL     1      48.977   3.561  16.965  0.00  0.00    +0.000 A 
ATOM      2  C   UNL     1      47.898   3.035  16.267  0.00  0.00    +0.000 A 
ATOM      3  C   UNL     1      47.197   3.832  15.366  0.00  0.00    +0.000 A 
ATOM      4  C   UNL     1      47.557   5.161  15.170  0.00  0.00    +0.000 A 
ATOM      5  N   UNL     1      46.880   5.979  14.298  0.00  0.00    +0.000 N 
ATOM      6  N   UNL     1      48.590   5.706  15.840  0.00  0.00    +0.000 NA
ATOM      7  C   UNL     1      49.279   4.905  16.729  0.00  0.00    +0.000 A 
ATOM      8  H   UNL     1      47.215   6.933  14.221  0.00  0.00    +0.000 HD
ENDROOT
BRANCH   7   9
ATOM      9  C   UNL     1      50.438   5.583  17.418  0.00  0.00    +0.000 C 
ATOM     10  N   UNL     1      50.312   5.703  18.782  0.00  0.00    +0.000 N 
ATOM     11  O   UNL     1      51.436   6.030  16.864  0.00  0.00    +0.000 OA
ATOM     12  H   UNL     1      49.482   5.345  19.239  0.00  0.00    +0.000 HD
ATOM     13  H   UNL     1      51.044   6.160  19.306  0.00  0.00    +0.000 HD
ENDBRANCH   7   9
BRANCH   1  15
ATOM     14  C   UNL     1      50.665   1.940  17.342  0.00  0.00    +0.000 C 
ATOM     15  O   UNL     1      49.696   2.838  17.871  0.00  0.00    +0.000 OA
ENDBRANCH   1  15
BRANCH   5  16
ATOM     16  C   UNL     1      45.778   5.517  13.449  0.00  0.00    +0.000 C 
BRANCH  16  17
ATOM     17  C   UNL     1      45.848   5.974  11.971  0.00  0.00    +0.000 C 
ATOM     18  F   UNL     1      45.129   7.128  11.837  0.00  0.00    +0.000 F 
ATOM     19  F   UNL     1      47.139   6.317  11.682  0.00  0.00    +0.000 F 
BRANCH  17  20
ATOM     20  C   UNL     1      45.336   4.865  11.065  0.00  0.00    +0.000 A 
ATOM     21  C   UNL     1      44.520   3.846  11.577  0.00  0.00    +0.000 A 
ATOM     22  C   UNL     1      44.000   2.863  10.731  0.00  0.00    +0.000 A 
ATOM     23  C   UNL     1      44.290   2.879   9.365  0.00  0.00    +0.000 A 
ATOM     24  C   UNL     1      45.108   3.878   8.844  0.00  0.00    +0.000 A 
ATOM     25  C   UNL     1      45.623   4.867   9.689  0.00  0.00    +0.000 A 
BRANCH  24  26
ATOM     26  O   UNL     1      45.433   4.012   7.517  0.00  0.00    +0.000 OA
BRANCH  26  27
ATOM     27  C   UNL     1      46.740   3.597   7.061  0.00  0.00    +0.000 C 
ATOM     28  C   UNL     1      46.866   3.175   5.578  0.00  0.00    +0.000 C 
ATOM     29  C   UNL     1      47.602   1.902   6.019  0.00  0.00    +0.000 C 
ATOM     30  C   UNL     1      47.104   2.142   7.449  0.00  0.00    +0.000 C 
ENDBRANCH  26  27
ENDBRANCH  24  26
ENDBRANCH  17  20
ENDBRANCH  16  17
ENDBRANCH   5  16
TORSDOF 7
ENDMDL
MODEL 4
REMARK VINA RESULT:    -7.449      2.370      3.225
REMARK INTER + INTRA:         -11.243
REMARK INTER:                 -10.561
REMARK INTRA:                  -0.682
REMARK UNBOUND:                -0.746
REMARK  Name = 
REMARK  8 active torsions:
REMARK  status: ('A' for Active; 'I' for Inactive)
REMARK    1  A    between atoms: C_1  and  O_2
REMARK    2  A    between atoms: O_2  and  C_3
REMARK    3  A    between atoms: N_7  and  C_8
REMARK    4  A    between atoms: C_8  and  C_9
REMARK    5  A    between atoms: C_9  and  C_12
REMARK    6  A    between atoms: C_16  and  O_17
REMARK    7  A    between atoms: O_17  and  C_18
REMARK    8  A    between atoms: C_24  and  C_25
REMARK                            x       y       z     vdW  Elec       q    Type
REMARK                         _______ _______ _______ _____ _____    ______ ____
ROOT
ATOM      1  C   UNL     1      46.436   3.322   7.451  0.00  0.00    +0.000 A 
ATOM      2  C   UNL     1      45.657   4.314   8.031  0.00  0.00    +0.000 A 
ATOM      3  C   UNL     1      44.853   4.015   9.128  0.00  0.00    +0.000 A 
ATOM      4  C   UNL     1      44.809   2.723   9.641  0.00  0.00    +0.000 A 
ATOM      5  N   UNL     1      44.018   2.390  10.713  0.00  0.00    +0.000 N 
ATOM      6  N   UNL     1      45.541   1.735   9.094  0.00  0.00    +0.000 NA
ATOM      7  C   UNL     1      46.337   2.044   8.008  0.00  0.00    +0.000 A 
ATOM      8  H   UNL     1      44.051   1.424  11.017  0.00  0.00    +0.000 HD
ENDROOT
BRANCH   7   9
ATOM      9  C   UNL     1      47.147   0.887   7.473  0.00  0.00    +0.000 C 
ATOM     10  N   UNL     1      46.592  -0.354   7.681  0.00  0.00    +0.000 N 
ATOM     11  O   UNL     1      48.227   0.976   6.902  0.00  0.00    +0.000 OA
ATOM     12  H   UNL     1      45.705  -0.429   8.163  0.00  0.00    +0.000 HD
ATOM     13  H   UNL     1      47.087  -1.174   7.361  0.00  0.00    +0.000 HD
ENDBRANCH   7   9
BRANCH   1  15
ATOM     14  C   UNL     1      46.712   3.154   5.103  0.00  0.00    +0.000 C 
ATOM     15  O   UNL     1      47.234   3.545   6.367  0.00  0.00    +0.000 OA
ENDBRANCH   1  15
BRANCH   5  16
ATOM     16  C   UNL     1      43.214   3.366  11.456  0.00  0.00    +0.000 C 
BRANCH  16  17
ATOM     17  C   UNL     1      43.924   4.017  12.670  0.00  0.00    +0.000 C 
ATOM     18  F   UNL     1      43.047   4.060  13.716  0.00  0.00    +0.000 F 
ATOM     19  F   UNL     1      44.933   3.190  13.079  0.00  0.00    +0.000 F 
BRANCH  17  20
ATOM     20  C   UNL     1      44.436   5.396  12.287  0.00  0.00    +0.000 A 
ATOM     21  C   UNL     1      43.598   6.314  11.637  0.00  0.00    +0.000 A 
ATOM     22  C   UNL     1      44.052   7.602  11.342  0.00  0.00    +0.000 A 
ATOM     23  C   UNL     1      45.348   7.992  11.686  0.00  0.00    +0.000 A 
ATOM     24  C   UNL     1      46.196   7.088  12.321  0.00  0.00    +0.000 A 
ATOM     25  C   UNL     1      45.740   5.800  12.624  0.00  0.00    +0.000 A 
BRANCH  24  26
ATOM     26  O   UNL     1      47.474   7.371  12.734  0.00  0.00    +0.000 OA
BRANCH  26  27
ATOM     27  C   UNL     1      48.307   8.232  11.925  0.00  0.00    +0.000 C 
ATOM     28  C   UNL     1      49.708   7.700  11.543  0.00  0.00    +0.000 C 
ATOM     29  C   UNL     1      50.321   9.031  11.999  0.00  0.00    +0.000 C 
ATOM     30  C   UNL     1      49.012   9.353  12.728  0.00  0.00    +0.000 C 
ENDBRANCH  26  27
ENDBRANCH  24  26
ENDBRANCH  17  20
ENDBRANCH  16  17
ENDBRANCH   5  16
TORSDOF 7
ENDMDL
MODEL 5
REMARK VINA RESULT:    -7.398      3.272      7.170
REMARK INTER + INTRA:         -11.172
REMARK INTER:                 -10.505
REMARK INTRA:                  -0.667
REMARK UNBOUND:                -0.746
REMARK  Name = 
REMARK  8 active torsions:
REMARK  status: ('A' for Active; 'I' for Inactive)
REMARK    1  A    between atoms: C_1  and  O_2
REMARK    2  A    between atoms: O_2  and  C_3
REMARK    3  A    between atoms: N_7  and  C_8
REMARK    4  A    between atoms: C_8  and  C_9
REMARK    5  A    between atoms: C_9  and  C_12
REMARK    6  A    between atoms: C_16  and  O_17
REMARK    7  A    between atoms: O_17  and  C_18
REMARK    8  A    between atoms: C_24  and  C_25
REMARK                            x       y       z     vdW  Elec       q    Type
REMARK                         _______ _______ _______ _____ _____    ______ ____
ROOT
ATOM      1  C   UNL     1      47.536   8.883  12.999  0.00  0.00    +0.000 A 
ATOM      2  C   UNL     1      46.171   9.043  12.802  0.00  0.00    +0.000 A 
ATOM      3  C   UNL     1      45.330   7.934  12.834  0.00  0.00    +0.000 A 
ATOM      4  C   UNL     1      45.846   6.660  13.047  0.00  0.00    +0.000 A 
ATOM      5  N   UNL     1      45.047   5.543  13.073  0.00  0.00    +0.000 N 
ATOM      6  N   UNL     1      47.166   6.469  13.228  0.00  0.00    +0.000 NA
ATOM      7  C   UNL     1      47.991   7.577  13.197  0.00  0.00    +0.000 A 
ATOM      8  H   UNL     1      45.512   4.658  13.235  0.00  0.00    +0.000 HD
ENDROOT
BRANCH   7   9
ATOM      9  C   UNL     1      49.452   7.280  13.436  0.00  0.00    +0.000 C 
ATOM     10  N   UNL     1      50.268   7.473  12.347  0.00  0.00    +0.000 N 
ATOM     11  O   UNL     1      49.936   6.880  14.489  0.00  0.00    +0.000 OA
ATOM     12  H   UNL     1      49.867   7.791  11.473  0.00  0.00    +0.000 HD
ATOM     13  H   UNL     1      51.256   7.279  12.432  0.00  0.00    +0.000 HD
ENDBRANCH   7   9
BRANCH   1  15
ATOM     14  C   UNL     1      48.396  10.736  11.796  0.00  0.00    +0.000 C 
ATOM     15  O   UNL     1      48.416   9.926  12.965  0.00  0.00    +0.000 OA
ENDBRANCH   1  15
BRANCH   5  16
ATOM     16  C   UNL     1      43.586   5.595  12.956  0.00  0.00    +0.000 C 
BRANCH  16  17
ATOM     17  C   UNL     1      43.040   5.594  11.506  0.00  0.00    +0.000 C 
ATOM     18  F   UNL     1      41.676   5.565  11.554  0.00  0.00    +0.000 F 
ATOM     19  F   UNL     1      43.356   6.788  10.921  0.00  0.00    +0.000 F 
BRANCH  17  20
ATOM     20  C   UNL     1      43.618   4.413  10.741  0.00  0.00    +0.000 A 
ATOM     21  C   UNL     1      43.554   3.118  11.274  0.00  0.00    +0.000 A 
ATOM     22  C   UNL     1      44.029   2.027  10.543  0.00  0.00    +0.000 A 
ATOM     23  C   UNL     1      44.578   2.212   9.272  0.00  0.00    +0.000 A 
ATOM     24  C   UNL     1      44.658   3.494   8.734  0.00  0.00    +0.000 A 
ATOM     25  C   UNL     1      44.176   4.586   9.463  0.00  0.00    +0.000 A 
BRANCH  24  26
ATOM     26  O   UNL     1      45.147   3.790   7.485  0.00  0.00    +0.000 OA
BRANCH  26  27
ATOM     27  C   UNL     1      46.537   3.531   7.188  0.00  0.00    +0.000 C 
ATOM     28  C   UNL     1      46.907   3.299   5.704  0.00  0.00    +0.000 C 
ATOM     29  C   UNL     1      47.687   2.042   6.111  0.00  0.00    +0.000 C 
ATOM     30  C   UNL     1      46.975   2.072   7.468  0.00  0.00    +0.000 C 
ENDBRANCH  26  27
ENDBRANCH  24  26
ENDBRANCH  17  20
ENDBRANCH  16  17
ENDBRANCH   5  16
TORSDOF 7
ENDMDL
MODEL 6
REMARK VINA RESULT:    -7.357      3.569      7.418
REMARK INTER + INTRA:         -11.114
REMARK INTER:                 -10.017
REMARK INTRA:                  -1.097
REMARK UNBOUND:                -0.746
REMARK  Name = 
REMARK  8 active torsions:
REMARK  status: ('A' for Active; 'I' for Inactive)
REMARK    1  A    between atoms: C_1  and  O_2
REMARK    2  A    between atoms: O_2  and  C_3
REMARK    3  A    between atoms: N_7  and  C_8
REMARK    4  A    between atoms: C_8  and  C_9
REMARK    5  A    between atoms: C_9  and  C_12
REMARK    6  A    between atoms: C_16  and  O_17
REMARK    7  A    between atoms: O_17  and  C_18
REMARK    8  A    between atoms: C_24  and  C_25
REMARK                            x       y       z     vdW  Elec       q    Type
REMARK                         _______ _______ _______ _____ _____    ______ ____
ROOT
ATOM      1  C   UNL     1      48.739   7.880  12.377  0.00  0.00    +0.000 A 
ATOM      2  C   UNL     1      48.220   6.595  12.450  0.00  0.00    +0.000 A 
ATOM      3  C   UNL     1      46.846   6.406  12.570  0.00  0.00    +0.000 A 
ATOM      4  C   UNL     1      45.985   7.496  12.636  0.00  0.00    +0.000 A 
ATOM      5  N   UNL     1      44.626   7.346  12.767  0.00  0.00    +0.000 N 
ATOM      6  N   UNL     1      46.457   8.756  12.581  0.00  0.00    +0.000 NA
ATOM      7  C   UNL     1      47.821   8.931  12.459  0.00  0.00    +0.000 A 
ATOM      8  H   UNL     1      44.079   8.198  12.806  0.00  0.00    +0.000 HD
ENDROOT
BRANCH   7   9
ATOM      9  C   UNL     1      48.265  10.372  12.377  0.00  0.00    +0.000 C 
ATOM     10  N   UNL     1      48.153  11.080  13.550  0.00  0.00    +0.000 N 
ATOM     11  O   UNL     1      48.687  10.933  11.372  0.00  0.00    +0.000 OA
ATOM     12  H   UNL     1      47.793  10.621  14.377  0.00  0.00    +0.000 HD
ATOM     13  H   UNL     1      48.418  12.054  13.564  0.00  0.00    +0.000 HD
ENDBRANCH   7   9
BRANCH   1  15
ATOM     14  C   UNL     1      50.711   7.712  11.071  0.00  0.00    +0.000 C 
ATOM     15  O   UNL     1      50.076   8.134  12.272  0.00  0.00    +0.000 OA
ENDBRANCH   1  15
BRANCH   5  16
ATOM     16  C   UNL     1      43.956   6.042  12.775  0.00  0.00    +0.000 C 
BRANCH  16  17
ATOM     17  C   UNL     1      43.116   5.725  11.512  0.00  0.00    +0.000 C 
ATOM     18  F   UNL     1      41.826   5.492  11.894  0.00  0.00    +0.000 F 
ATOM     19  F   UNL     1      43.065   6.845  10.731  0.00  0.00    +0.000 F 
BRANCH  17  20
ATOM     20  C   UNL     1      43.724   4.542  10.775  0.00  0.00    +0.000 A 
ATOM     21  C   UNL     1      43.507   3.232  11.227  0.00  0.00    +0.000 A 
ATOM     22  C   UNL     1      44.014   2.144  10.513  0.00  0.00    +0.000 A 
ATOM     23  C   UNL     1      44.748   2.345   9.341  0.00  0.00    +0.000 A 
ATOM     24  C   UNL     1      44.981   3.641   8.887  0.00  0.00    +0.000 A 
ATOM     25  C   UNL     1      44.467   4.731   9.598  0.00  0.00    +0.000 A 
BRANCH  24  26
ATOM     26  O   UNL     1      45.659   3.957   7.736  0.00  0.00    +0.000 OA
BRANCH  26  27
ATOM     27  C   UNL     1      46.087   2.897   6.851  0.00  0.00    +0.000 C 
ATOM     28  C   UNL     1      47.384   2.144   7.232  0.00  0.00    +0.000 C 
ATOM     29  C   UNL     1      47.896   2.332   5.797  0.00  0.00    +0.000 C 
ATOM     30  C   UNL     1      46.817   3.400   5.581  0.00  0.00    +0.000 C 
ENDBRANCH  26  27
ENDBRANCH  24  26
ENDBRANCH  17  20
ENDBRANCH  16  17
ENDBRANCH   5  16
TORSDOF 7
ENDMDL
MODEL 7
REMARK VINA RESULT:    -7.259      3.521      8.366
REMARK INTER + INTRA:         -10.975
REMARK INTER:                  -9.811
REMARK INTRA:                  -1.165
REMARK UNBOUND:                -0.746
REMARK  Name = 
REMARK  8 active torsions:
REMARK  status: ('A' for Active; 'I' for Inactive)
REMARK    1  A    between atoms: C_1  and  O_2
REMARK    2  A    between atoms: O_2  and  C_3
REMARK    3  A    between atoms: N_7  and  C_8
REMARK    4  A    between atoms: C_8  and  C_9
REMARK    5  A    between atoms: C_9  and  C_12
REMARK    6  A    between atoms: C_16  and  O_17
REMARK    7  A    between atoms: O_17  and  C_18
REMARK    8  A    between atoms: C_24  and  C_25
REMARK                            x       y       z     vdW  Elec       q    Type
REMARK                         _______ _______ _______ _____ _____    ______ ____
ROOT
ATOM      1  C   UNL     1      49.059   8.074  16.186  0.00  0.00    +0.000 A 
ATOM      2  C   UNL     1      48.411   8.813  15.205  0.00  0.00    +0.000 A 
ATOM      3  C   UNL     1      47.853   8.169  14.104  0.00  0.00    +0.000 A 
ATOM      4  C   UNL     1      47.953   6.789  13.967  0.00  0.00    +0.000 A 
ATOM      5  N   UNL     1      47.425   6.122  12.887  0.00  0.00    +0.000 N 
ATOM      6  N   UNL     1      48.586   6.044  14.892  0.00  0.00    +0.000 NA
ATOM      7  C   UNL     1      49.133   6.693  15.981  0.00  0.00    +0.000 A 
ATOM      8  H   UNL     1      47.546   5.116  12.874  0.00  0.00    +0.000 HD
ENDROOT
BRANCH   7   9
ATOM      9  C   UNL     1      49.801   5.784  16.985  0.00  0.00    +0.000 C 
ATOM     10  N   UNL     1      51.114   6.086  17.257  0.00  0.00    +0.000 N 
ATOM     11  O   UNL     1      49.276   4.825  17.540  0.00  0.00    +0.000 OA
ATOM     12  H   UNL     1      51.552   6.870  16.790  0.00  0.00    +0.000 HD
ATOM     13  H   UNL     1      51.627   5.510  17.909  0.00  0.00    +0.000 HD
ENDBRANCH   7   9
BRANCH   1  15
ATOM     14  C   UNL     1      49.097   9.887  17.712  0.00  0.00    +0.000 C 
ATOM     15  O   UNL     1      49.639   8.644  17.281  0.00  0.00    +0.000 OA
ENDBRANCH   1  15
BRANCH   5  16
ATOM     16  C   UNL     1      46.652   6.784  11.832  0.00  0.00    +0.000 C 
BRANCH  16  17
ATOM     17  C   UNL     1      45.168   6.351  11.731  0.00  0.00    +0.000 C 
ATOM     18  F   UNL     1      44.692   6.130  12.992  0.00  0.00    +0.000 F 
ATOM     19  F   UNL     1      44.440   7.402  11.249  0.00  0.00    +0.000 F 
BRANCH  17  20
ATOM     20  C   UNL     1      45.051   5.121  10.844  0.00  0.00    +0.000 A 
ATOM     21  C   UNL     1      44.295   4.014  11.256  0.00  0.00    +0.000 A 
ATOM     22  C   UNL     1      44.137   2.912  10.413  0.00  0.00    +0.000 A 
ATOM     23  C   UNL     1      44.734   2.894   9.151  0.00  0.00    +0.000 A 
ATOM     24  C   UNL     1      45.498   3.981   8.733  0.00  0.00    +0.000 A 
ATOM     25  C   UNL     1      45.650   5.090   9.573  0.00  0.00    +0.000 A 
BRANCH  24  26
ATOM     26  O   UNL     1      46.103   4.088   7.505  0.00  0.00    +0.000 OA
BRANCH  26  27
ATOM     27  C   UNL     1      46.352   2.893   6.731  0.00  0.00    +0.000 C 
ATOM     28  C   UNL     1      47.718   2.195   6.934  0.00  0.00    +0.000 C 
ATOM     29  C   UNL     1      47.900   2.141   5.411  0.00  0.00    +0.000 C 
ATOM     30  C   UNL     1      46.775   3.173   5.268  0.00  0.00    +0.000 C 
ENDBRANCH  26  27
ENDBRANCH  24  26
ENDBRANCH  17  20
ENDBRANCH  16  17
ENDBRANCH   5  16
TORSDOF 7
ENDMDL
MODEL 8
REMARK VINA RESULT:    -7.105      3.551      7.746
REMARK INTER + INTRA:         -10.758
REMARK INTER:                  -9.794
REMARK INTRA:                  -0.964
REMARK UNBOUND:                -0.746
REMARK  Name = 
REMARK  8 active torsions:
REMARK  status: ('A' for Active; 'I' for Inactive)
REMARK    1  A    between atoms: C_1  and  O_2
REMARK    2  A    between atoms: O_2  and  C_3
REMARK    3  A    between atoms: N_7  and  C_8
REMARK    4  A    between atoms: C_8  and  C_9
REMARK    5  A    between atoms: C_9  and  C_12
REMARK    6  A    between atoms: C_16  and  O_17
REMARK    7  A    between atoms: O_17  and  C_18
REMARK    8  A    between atoms: C_24  and  C_25
REMARK                            x       y       z     vdW  Elec       q    Type
REMARK                         _______ _______ _______ _____ _____    ______ ____
ROOT
ATOM      1  C   UNL     1      50.324   8.428  13.065  0.00  0.00    +0.000 A 
ATOM      2  C   UNL     1      49.583   8.645  11.911  0.00  0.00    +0.000 A 
ATOM      3  C   UNL     1      48.298   8.121  11.800  0.00  0.00    +0.000 A 
ATOM      4  C   UNL     1      47.752   7.364  12.831  0.00  0.00    +0.000 A 
ATOM      5  N   UNL     1      46.492   6.822  12.750  0.00  0.00    +0.000 N 
ATOM      6  N   UNL     1      48.448   7.124  13.958  0.00  0.00    +0.000 NA
ATOM      7  C   UNL     1      49.720   7.651  14.058  0.00  0.00    +0.000 A 
ATOM      8  H   UNL     1      46.178   6.286  13.551  0.00  0.00    +0.000 HD
ENDROOT
BRANCH   7   9
ATOM      9  C   UNL     1      50.421   7.358  15.363  0.00  0.00    +0.000 C 
ATOM     10  N   UNL     1      51.042   8.440  15.942  0.00  0.00    +0.000 N 
ATOM     11  O   UNL     1      50.484   6.263  15.910  0.00  0.00    +0.000 OA
ATOM     12  H   UNL     1      51.000   9.342  15.485  0.00  0.00    +0.000 HD
ATOM     13  H   UNL     1      51.543   8.314  16.810  0.00  0.00    +0.000 HD
ENDBRANCH   7   9
BRANCH   1  15
ATOM     14  C   UNL     1      52.201   9.501  12.093  0.00  0.00    +0.000 C 
ATOM     15  O   UNL     1      51.593   8.901  13.231  0.00  0.00    +0.000 OA
ENDBRANCH   1  15
BRANCH   5  16
ATOM     16  C   UNL     1      45.588   7.049  11.618  0.00  0.00    +0.000 C 
BRANCH  16  17
ATOM     17  C   UNL     1      44.282   6.216  11.640  0.00  0.00    +0.000 C 
ATOM     18  F   UNL     1      43.965   5.937  12.939  0.00  0.00    +0.000 F 
ATOM     19  F   UNL     1      43.260   6.998  11.179  0.00  0.00    +0.000 F 
BRANCH  17  20
ATOM     20  C   UNL     1      44.460   4.958  10.804  0.00  0.00    +0.000 A 
ATOM     21  C   UNL     1      43.933   3.734  11.237  0.00  0.00    +0.000 A 
ATOM     22  C   UNL     1      44.043   2.593  10.439  0.00  0.00    +0.000 A 
ATOM     23  C   UNL     1      44.686   2.655   9.200  0.00  0.00    +0.000 A 
ATOM     24  C   UNL     1      45.226   3.862   8.762  0.00  0.00    +0.000 A 
ATOM     25  C   UNL     1      45.108   5.007   9.558  0.00  0.00    +0.000 A 
BRANCH  24  26
ATOM     26  O   UNL     1      45.849   4.049   7.553  0.00  0.00    +0.000 OA
BRANCH  26  27
ATOM     27  C   UNL     1      46.186   2.899   6.744  0.00  0.00    +0.000 C 
ATOM     28  C   UNL     1      47.424   2.077   7.171  0.00  0.00    +0.000 C 
ATOM     29  C   UNL     1      47.935   2.124   5.724  0.00  0.00    +0.000 C 
ATOM     30  C   UNL     1      46.939   3.254   5.438  0.00  0.00    +0.000 C 
ENDBRANCH  26  27
ENDBRANCH  24  26
ENDBRANCH  17  20
ENDBRANCH  16  17
ENDBRANCH   5  16
TORSDOF 7
ENDMDL
MODEL 9
REMARK VINA RESULT:    -7.089      3.426      5.190
REMARK INTER + INTRA:         -10.737
REMARK INTER:                  -9.260
REMARK INTRA:                  -1.477
REMARK UNBOUND:                -0.746
REMARK  Name = 
REMARK  8 active torsions:
REMARK  status: ('A' for Active; 'I' for Inactive)
REMARK    1  A    between atoms: C_1  and  O_2
REMARK    2  A    between atoms: O_2  and  C_3
REMARK    3  A    between atoms: N_7  and  C_8
REMARK    4  A    between atoms: C_8  and  C_9
REMARK    5  A    between atoms: C_9  and  C_12
REMARK    6  A    between atoms: C_16  and  O_17
REMARK    7  A    between atoms: O_17  and  C_18
REMARK    8  A    between atoms: C_24  and  C_25
REMARK                            x       y       z     vdW  Elec       q    Type
REMARK                         _______ _______ _______ _____ _____    ______ ____
ROOT
ATOM      1  C   UNL     1      45.176   4.285  11.634  0.00  0.00    +0.000 A 
ATOM      2  C   UNL     1      45.446   4.711  12.927  0.00  0.00    +0.000 A 
ATOM      3  C   UNL     1      46.038   5.952  13.142  0.00  0.00    +0.000 A 
ATOM      4  C   UNL     1      46.379   6.768  12.068  0.00  0.00    +0.000 A 
ATOM      5  N   UNL     1      46.976   7.993  12.242  0.00  0.00    +0.000 N 
ATOM      6  N   UNL     1      46.144   6.379  10.801  0.00  0.00    +0.000 NA
ATOM      7  C   UNL     1      45.554   5.147  10.601  0.00  0.00    +0.000 A 
ATOM      8  H   UNL     1      47.187   8.517  11.401  0.00  0.00    +0.000 HD
ENDROOT
BRANCH   7   9
ATOM      9  C   UNL     1      45.299   4.800   9.153  0.00  0.00    +0.000 C 
ATOM     10  N   UNL     1      44.007   4.427   8.866  0.00  0.00    +0.000 N 
ATOM     11  O   UNL     1      46.136   4.813   8.258  0.00  0.00    +0.000 OA
ATOM     12  H   UNL     1      43.318   4.404   9.608  0.00  0.00    +0.000 HD
ATOM     13  H   UNL     1      43.769   4.166   7.920  0.00  0.00    +0.000 HD
ENDBRANCH   7   9
BRANCH   1  15
ATOM     14  C   UNL     1      43.393   2.773  12.025  0.00  0.00    +0.000 C 
ATOM     15  O   UNL     1      44.611   3.075  11.355  0.00  0.00    +0.000 OA
ENDBRANCH   1  15
BRANCH   5  16
ATOM     16  C   UNL     1      47.237   8.582  13.559  0.00  0.00    +0.000 C 
BRANCH  16  17
ATOM     17  C   UNL     1      48.691   8.432  14.072  0.00  0.00    +0.000 C 
ATOM     18  F   UNL     1      49.421   7.771  13.126  0.00  0.00    +0.000 F 
ATOM     19  F   UNL     1      49.253   9.675  14.157  0.00  0.00    +0.000 F 
BRANCH  17  20
ATOM     20  C   UNL     1      48.692   7.713  15.412  0.00  0.00    +0.000 A 
ATOM     21  C   UNL     1      48.619   8.437  16.610  0.00  0.00    +0.000 A 
ATOM     22  C   UNL     1      48.557   7.772  17.837  0.00  0.00    +0.000 A 
ATOM     23  C   UNL     1      48.572   6.376  17.887  0.00  0.00    +0.000 A 
ATOM     24  C   UNL     1      48.657   5.643  16.706  0.00  0.00    +0.000 A 
ATOM     25  C   UNL     1      48.711   6.309  15.476  0.00  0.00    +0.000 A 
BRANCH  24  26
ATOM     26  O   UNL     1      48.647   4.273  16.632  0.00  0.00    +0.000 OA
BRANCH  26  27
ATOM     27  C   UNL     1      49.471   3.507  17.540  0.00  0.00    +0.000 C 
ATOM     28  C   UNL     1      50.989   3.807  17.534  0.00  0.00    +0.000 C 
ATOM     29  C   UNL     1      51.270   2.302  17.429  0.00  0.00    +0.000 C 
ATOM     30  C   UNL     1      49.806   2.084  17.030  0.00  0.00    +0.000 C 
ENDBRANCH  26  27
ENDBRANCH  24  26
ENDBRANCH  17  20
ENDBRANCH  16  17
ENDBRANCH   5  16
TORSDOF 7
ENDMDL
