MODEL 1
REMARK VINA RESULT:    -8.182      0.000      0.000
REMARK INTER + INTRA:         -12.500
REMARK INTER:                 -11.531
REMARK INTRA:                  -0.970
REMARK UNBOUND:                -0.970
REMARK  Name = 
REMARK  9 active torsions:
REMARK  status: ('A' for Active; 'I' for Inactive)
REMARK    1  A    between atoms: C_1  and  N_2
REMARK    2  A    between atoms: N_2  and  C_3
REMARK    3  A    between atoms: C_4  and  C_6
REMARK    4  A    between atoms: C_6  and  O_7
REMARK    5  A    between atoms: O_7  and  C_8
REMARK    6  A    between atoms: C_11  and  C_12
REMARK    7  A    between atoms: C_12  and  O_13
REMARK    8  A    between atoms: O_13  and  C_14
REMARK    9  A    between atoms: C_17  and  C_18
REMARK                            x       y       z     vdW  Elec       q    Type
REMARK                         _______ _______ _______ _____ _____    ______ ____
ROOT
ATOM      1  C   UNL     1      46.911   5.478  13.620  0.00  0.00    +0.000 A 
ATOM      2  C   UNL     1      45.756   4.723  13.824  0.00  0.00    +0.000 A 
ATOM      3  C   UNL     1      44.712   4.763  12.894  0.00  0.00    +0.000 A 
ATOM      4  C   UNL     1      44.815   5.564  11.751  0.00  0.00    +0.000 A 
ATOM      5  C   UNL     1      45.948   6.374  11.590  0.00  0.00    +0.000 A 
ATOM      6  C   UNL     1      46.987   6.333  12.521  0.00  0.00    +0.000 A 
ENDROOT
BRANCH   1   7
ATOM      7  O   UNL     1      47.901   5.313  14.551  0.00  0.00    +0.000 OA
BRANCH   7   8
ATOM      8  C   UNL     1      47.482   4.745  15.787  0.00  0.00    +0.000 C 
BRANCH   8  12
ATOM      9  C   UNL     1      50.041   2.519  17.568  0.00  0.00    +0.000 C 
ATOM     10  N   UNL     1      49.213   3.664  17.239  0.00  0.00    +0.000 N 
ATOM     11  C   UNL     1      49.383   4.892  18.000  0.00  0.00    +0.000 C 
ATOM     12  C   UNL     1      48.341   3.537  16.163  0.00  0.00    +0.000 C 
ATOM     13  O   UNL     1      48.284   2.501  15.495  0.00  0.00    +0.000 OA
ENDBRANCH   8  12
ENDBRANCH   7   8
ENDBRANCH   1   7
BRANCH   4  14
ATOM     14  C   UNL     1      43.733   5.562  10.700  0.00  0.00    +0.000 C 
BRANCH  14  15
ATOM     15  O   UNL     1      43.527   4.228  10.246  0.00  0.00    +0.000 OA
BRANCH  15  16
ATOM     16  C   UNL     1      44.476   3.714   9.405  0.00  0.00    +0.000 A 
ATOM     17  C   UNL     1      45.223   4.436   8.472  0.00  0.00    +0.000 A 
ATOM     18  C   UNL     1      46.160   3.781   7.664  0.00  0.00    +0.000 A 
ATOM     19  C   UNL     1      46.369   2.403   7.791  0.00  0.00    +0.000 A 
ATOM     20  C   UNL     1      45.616   1.678   8.720  0.00  0.00    +0.000 A 
ATOM     21  C   UNL     1      44.675   2.336   9.519  0.00  0.00    +0.000 A 
BRANCH  19  22
ATOM     22  C   UNL     1      47.369   1.759   6.899  0.00  0.00    +0.000 C 
ATOM     23  N   UNL     1      48.427   2.519   6.485  0.00  0.00    +0.000 N 
ATOM     24  O   UNL     1      47.236   0.604   6.515  0.00  0.00    +0.000 OA
ATOM     25  H   UNL     1      48.453   3.523   6.583  0.00  0.00    +0.000 HD
ATOM     26  H   UNL     1      49.038   2.095   5.798  0.00  0.00    +0.000 HD
ENDBRANCH  19  22
ENDBRANCH  15  16
ENDBRANCH  14  15
ENDBRANCH   4  14
TORSDOF 7
ENDMDL
MODEL 2
REMARK VINA RESULT:    -8.088      1.131      1.656
REMARK INTER + INTRA:         -12.367
REMARK INTER:                 -11.349
REMARK INTRA:                  -1.018
REMARK UNBOUND:                -0.970
REMARK  Name = 
REMARK  9 active torsions:
REMARK  status: ('A' for Active; 'I' for Inactive)
REMARK    1  A    between atoms: C_1  and  N_2
REMARK    2  A    between atoms: N_2  and  C_3
REMARK    3  A    between atoms: C_4  and  C_6
REMARK    4  A    between atoms: C_6  and  O_7
REMARK    5  A    between atoms: O_7  and  C_8
REMARK    6  A    between atoms: C_11  and  C_12
REMARK    7  A    between atoms: C_12  and  O_13
REMARK    8  A    between atoms: O_13  and  C_14
REMARK    9  A    between atoms: C_17  and  C_18
REMARK                            x       y       z     vdW  Elec       q    Type
REMARK                         _______ _______ _______ _____ _____    ______ ____
ROOT
ATOM      1  C   UNL     1      47.160   5.597  13.403  0.00  0.00    +0.000 A 
ATOM      2  C   UNL     1      46.625   4.324  13.602  0.00  0.00    +0.000 A 
ATOM      3  C   UNL     1      45.449   3.943  12.948  0.00  0.00    +0.000 A 
ATOM      4  C   UNL     1      44.796   4.836  12.090  0.00  0.00    +0.000 A 
ATOM      5  C   UNL     1      45.301   6.136  11.954  0.00  0.00    +0.000 A 
ATOM      6  C   UNL     1      46.474   6.515  12.609  0.00  0.00    +0.000 A 
ENDROOT
BRANCH   1   7
ATOM      7  O   UNL     1      48.351   5.846  14.032  0.00  0.00    +0.000 OA
BRANCH   7   8
ATOM      8  C   UNL     1      48.240   6.364  15.354  0.00  0.00    +0.000 C 
BRANCH   8  12
ATOM      9  C   UNL     1      49.595   4.070  18.107  0.00  0.00    +0.000 C 
ATOM     10  N   UNL     1      48.675   4.715  17.188  0.00  0.00    +0.000 N 
ATOM     11  C   UNL     1      47.259   4.395  17.275  0.00  0.00    +0.000 C 
ATOM     12  C   UNL     1      49.201   5.657  16.310  0.00  0.00    +0.000 C 
ATOM     13  O   UNL     1      50.399   5.955  16.322  0.00  0.00    +0.000 OA
ENDBRANCH   8  12
ENDBRANCH   7   8
ENDBRANCH   1   7
BRANCH   4  14
ATOM     14  C   UNL     1      43.570   4.417  11.319  0.00  0.00    +0.000 C 
BRANCH  14  15
ATOM     15  O   UNL     1      43.771   4.696   9.937  0.00  0.00    +0.000 OA
BRANCH  15  16
ATOM     16  C   UNL     1      44.595   3.844   9.254  0.00  0.00    +0.000 A 
ATOM     17  C   UNL     1      44.629   2.454   9.385  0.00  0.00    +0.000 A 
ATOM     18  C   UNL     1      45.533   1.700   8.627  0.00  0.00    +0.000 A 
ATOM     19  C   UNL     1      46.401   2.325   7.725  0.00  0.00    +0.000 A 
ATOM     20  C   UNL     1      46.373   3.717   7.599  0.00  0.00    +0.000 A 
ATOM     21  C   UNL     1      45.473   4.468   8.364  0.00  0.00    +0.000 A 
BRANCH  19  22
ATOM     22  C   UNL     1      47.347   1.474   6.956  0.00  0.00    +0.000 C 
ATOM     23  N   UNL     1      48.473   2.070   6.462  0.00  0.00    +0.000 N 
ATOM     24  O   UNL     1      47.113   0.292   6.737  0.00  0.00    +0.000 OA
ATOM     25  H   UNL     1      48.589   3.071   6.415  0.00  0.00    +0.000 HD
ATOM     26  H   UNL     1      49.049   1.500   5.855  0.00  0.00    +0.000 HD
ENDBRANCH  19  22
ENDBRANCH  15  16
ENDBRANCH  14  15
ENDBRANCH   4  14
TORSDOF 7
ENDMDL
MODEL 3
REMARK VINA RESULT:    -7.849      2.025      2.801
REMARK INTER + INTRA:         -12.031
REMARK INTER:                 -11.147
REMARK INTRA:                  -0.884
REMARK UNBOUND:                -0.970
REMARK  Name = 
REMARK  9 active torsions:
REMARK  status: ('A' for Active; 'I' for Inactive)
REMARK    1  A    between atoms: C_1  and  N_2
REMARK    2  A    between atoms: N_2  and  C_3
REMARK    3  A    between atoms: C_4  and  C_6
REMARK    4  A    between atoms: C_6  and  O_7
REMARK    5  A    between atoms: O_7  and  C_8
REMARK    6  A    between atoms: C_11  and  C_12
REMARK    7  A    between atoms: C_12  and  O_13
REMARK    8  A    between atoms: O_13  and  C_14
REMARK    9  A    between atoms: C_17  and  C_18
REMARK                            x       y       z     vdW  Elec       q    Type
REMARK                         _______ _______ _______ _____ _____    ______ ____
ROOT
ATOM      1  C   UNL     1      46.914   5.028  13.746  0.00  0.00    +0.000 A 
ATOM      2  C   UNL     1      46.169   6.051  13.159  0.00  0.00    +0.000 A 
ATOM      3  C   UNL     1      45.055   5.750  12.370  0.00  0.00    +0.000 A 
ATOM      4  C   UNL     1      44.677   4.419  12.158  0.00  0.00    +0.000 A 
ATOM      5  C   UNL     1      45.473   3.396  12.692  0.00  0.00    +0.000 A 
ATOM      6  C   UNL     1      46.586   3.699  13.478  0.00  0.00    +0.000 A 
ENDROOT
BRANCH   1   7
ATOM      7  O   UNL     1      47.941   5.430  14.557  0.00  0.00    +0.000 OA
BRANCH   7   8
ATOM      8  C   UNL     1      48.319   6.796  14.423  0.00  0.00    +0.000 C 
BRANCH   8  12
ATOM      9  C   UNL     1      50.790   8.826  16.532  0.00  0.00    +0.000 C 
ATOM     10  N   UNL     1      49.692   8.500  15.642  0.00  0.00    +0.000 N 
ATOM     11  C   UNL     1      48.945   9.585  15.026  0.00  0.00    +0.000 C 
ATOM     12  C   UNL     1      49.456   7.155  15.381  0.00  0.00    +0.000 C 
ATOM     13  O   UNL     1      50.165   6.267  15.865  0.00  0.00    +0.000 OA
ENDBRANCH   8  12
ENDBRANCH   7   8
ENDBRANCH   1   7
BRANCH   4  14
ATOM     14  C   UNL     1      43.436   4.078  11.373  0.00  0.00    +0.000 C 
BRANCH  14  15
ATOM     15  O   UNL     1      43.620   4.473  10.017  0.00  0.00    +0.000 OA
BRANCH  15  16
ATOM     16  C   UNL     1      44.519   3.747   9.284  0.00  0.00    +0.000 A 
ATOM     17  C   UNL     1      44.648   2.357   9.287  0.00  0.00    +0.000 A 
ATOM     18  C   UNL     1      45.622   1.740   8.492  0.00  0.00    +0.000 A 
ATOM     19  C   UNL     1      46.464   2.506   7.678  0.00  0.00    +0.000 A 
ATOM     20  C   UNL     1      46.341   3.899   7.680  0.00  0.00    +0.000 A 
ATOM     21  C   UNL     1      45.372   4.511   8.482  0.00  0.00    +0.000 A 
BRANCH  19  22
ATOM     22  C   UNL     1      47.487   1.798   6.864  0.00  0.00    +0.000 C 
ATOM     23  N   UNL     1      48.560   2.523   6.427  0.00  0.00    +0.000 N 
ATOM     24  O   UNL     1      47.360   0.619   6.559  0.00  0.00    +0.000 OA
ATOM     25  H   UNL     1      48.587   3.532   6.453  0.00  0.00    +0.000 HD
ATOM     26  H   UNL     1      49.187   2.050   5.789  0.00  0.00    +0.000 HD
ENDBRANCH  19  22
ENDBRANCH  15  16
ENDBRANCH  14  15
ENDBRANCH   4  14
TORSDOF 7
ENDMDL
MODEL 4
REMARK VINA RESULT:    -7.785      2.380      3.132
REMARK INTER + INTRA:         -11.940
REMARK INTER:                 -10.862
REMARK INTRA:                  -1.077
REMARK UNBOUND:                -0.970
REMARK  Name = 
REMARK  9 active torsions:
REMARK  status: ('A' for Active; 'I' for Inactive)
REMARK    1  A    between atoms: C_1  and  N_2
REMARK    2  A    between atoms: N_2  and  C_3
REMARK    3  A    between atoms: C_4  and  C_6
REMARK    4  A    between atoms: C_6  and  O_7
REMARK    5  A    between atoms: O_7  and  C_8
REMARK    6  A    between atoms: C_11  and  C_12
REMARK    7  A    between atoms: C_12  and  O_13
REMARK    8  A    between atoms: O_13  and  C_14
REMARK    9  A    between atoms: C_17  and  C_18
REMARK                            x       y       z     vdW  Elec       q    Type
REMARK                         _______ _______ _______ _____ _____    ______ ____
ROOT
ATOM      1  C   UNL     1      46.783   5.301  13.508  0.00  0.00    +0.000 A 
ATOM      2  C   UNL     1      46.867   3.910  13.444  0.00  0.00    +0.000 A 
ATOM      3  C   UNL     1      45.836   3.166  12.864  0.00  0.00    +0.000 A 
ATOM      4  C   UNL     1      44.706   3.809  12.345  0.00  0.00    +0.000 A 
ATOM      5  C   UNL     1      44.597   5.200  12.478  0.00  0.00    +0.000 A 
ATOM      6  C   UNL     1      45.628   5.941  13.059  0.00  0.00    +0.000 A 
ENDROOT
BRANCH   1   7
ATOM      7  O   UNL     1      47.876   5.940  14.029  0.00  0.00    +0.000 OA
BRANCH   7   8
ATOM      8  C   UNL     1      47.920   7.345  13.806  0.00  0.00    +0.000 C 
BRANCH   8  12
ATOM      9  C   UNL     1      51.284   8.520  12.399  0.00  0.00    +0.000 C 
ATOM     10  N   UNL     1      50.248   8.145  13.343  0.00  0.00    +0.000 N 
ATOM     11  C   UNL     1      50.509   8.295  14.766  0.00  0.00    +0.000 C 
ATOM     12  C   UNL     1      49.031   7.718  12.823  0.00  0.00    +0.000 C 
ATOM     13  O   UNL     1      48.824   7.679  11.606  0.00  0.00    +0.000 OA
ENDBRANCH   8  12
ENDBRANCH   7   8
ENDBRANCH   1   7
BRANCH   4  14
ATOM     14  C   UNL     1      43.619   3.029  11.649  0.00  0.00    +0.000 C 
BRANCH  14  15
ATOM     15  O   UNL     1      43.412   3.577  10.350  0.00  0.00    +0.000 OA
BRANCH  15  16
ATOM     16  C   UNL     1      44.405   3.368   9.432  0.00  0.00    +0.000 A 
ATOM     17  C   UNL     1      45.019   4.348   8.650  0.00  0.00    +0.000 A 
ATOM     18  C   UNL     1      46.021   3.993   7.739  0.00  0.00    +0.000 A 
ATOM     19  C   UNL     1      46.426   2.660   7.611  0.00  0.00    +0.000 A 
ATOM     20  C   UNL     1      45.806   1.676   8.388  0.00  0.00    +0.000 A 
ATOM     21  C   UNL     1      44.800   2.035   9.292  0.00  0.00    +0.000 A 
BRANCH  19  22
ATOM     22  C   UNL     1      47.487   2.341   6.620  0.00  0.00    +0.000 C 
ATOM     23  N   UNL     1      47.514   3.073   5.466  0.00  0.00    +0.000 N 
ATOM     24  O   UNL     1      48.286   1.432   6.806  0.00  0.00    +0.000 OA
ATOM     25  H   UNL     1      46.748   3.661   5.171  0.00  0.00    +0.000 HD
ATOM     26  H   UNL     1      48.176   2.771   4.762  0.00  0.00    +0.000 HD
ENDBRANCH  19  22
ENDBRANCH  15  16
ENDBRANCH  14  15
ENDBRANCH   4  14
TORSDOF 7
ENDMDL
MODEL 5
REMARK VINA RESULT:    -6.956      2.048      8.893
REMARK INTER + INTRA:         -10.772
REMARK INTER:                 -10.114
REMARK INTRA:                  -0.658
REMARK UNBOUND:                -0.970
REMARK  Name = 
REMARK  9 active torsions:
REMARK  status: ('A' for Active; 'I' for Inactive)
REMARK    1  A    between atoms: C_1  and  N_2
REMARK    2  A    between atoms: N_2  and  C_3
REMARK    3  A    between atoms: C_4  and  C_6
REMARK    4  A    between atoms: C_6  and  O_7
REMARK    5  A    between atoms: O_7  and  C_8
REMARK    6  A    between atoms: C_11  and  C_12
REMARK    7  A    between atoms: C_12  and  O_13
REMARK    8  A    between atoms: O_13  and  C_14
REMARK    9  A    between atoms: C_17  and  C_18
REMARK                            x       y       z     vdW  Elec       q    Type
REMARK                         _______ _______ _______ _____ _____    ______ ____
ROOT
ATOM      1  C   UNL     1      44.864   4.199  10.388  0.00  0.00    +0.000 A 
ATOM      2  C   UNL     1      45.423   5.460  10.591  0.00  0.00    +0.000 A 
ATOM      3  C   UNL     1      46.048   5.768  11.804  0.00  0.00    +0.000 A 
ATOM      4  C   UNL     1      46.116   4.814  12.826  0.00  0.00    +0.000 A 
ATOM      5  C   UNL     1      45.489   3.575  12.639  0.00  0.00    +0.000 A 
ATOM      6  C   UNL     1      44.864   3.270  11.428  0.00  0.00    +0.000 A 
ENDROOT
BRANCH   1   7
ATOM      7  O   UNL     1      44.340   3.974   9.142  0.00  0.00    +0.000 OA
BRANCH   7   8
ATOM      8  C   UNL     1      44.829   2.813   8.480  0.00  0.00    +0.000 C 
BRANCH   8  12
ATOM      9  C   UNL     1      48.081   2.417   6.493  0.00  0.00    +0.000 C 
ATOM     10  N   UNL     1      46.907   2.091   7.282  0.00  0.00    +0.000 N 
ATOM     11  C   UNL     1      46.718   0.718   7.722  0.00  0.00    +0.000 C 
ATOM     12  C   UNL     1      46.056   3.136   7.626  0.00  0.00    +0.000 C 
ATOM     13  O   UNL     1      46.295   4.302   7.296  0.00  0.00    +0.000 OA
ENDBRANCH   8  12
ENDBRANCH   7   8
ENDBRANCH   1   7
BRANCH   4  14
ATOM     14  C   UNL     1      46.851   5.102  14.111  0.00  0.00    +0.000 C 
BRANCH  14  15
ATOM     15  O   UNL     1      47.040   3.883  14.823  0.00  0.00    +0.000 OA
BRANCH  15  16
ATOM     16  C   UNL     1      47.514   3.988  16.102  0.00  0.00    +0.000 A 
ATOM     17  C   UNL     1      47.444   3.001  17.087  0.00  0.00    +0.000 A 
ATOM     18  C   UNL     1      47.963   3.245  18.364  0.00  0.00    +0.000 A 
ATOM     19  C   UNL     1      48.568   4.471  18.663  0.00  0.00    +0.000 A 
ATOM     20  C   UNL     1      48.632   5.463  17.680  0.00  0.00    +0.000 A 
ATOM     21  C   UNL     1      48.104   5.217  16.407  0.00  0.00    +0.000 A 
BRANCH  19  22
ATOM     22  C   UNL     1      49.092   4.678  20.039  0.00  0.00    +0.000 C 
ATOM     23  N   UNL     1      50.162   5.515  20.188  0.00  0.00    +0.000 N 
ATOM     24  O   UNL     1      48.612   4.094  21.002  0.00  0.00    +0.000 OA
ATOM     25  H   UNL     1      50.727   5.826  19.411  0.00  0.00    +0.000 HD
ATOM     26  H   UNL     1      50.568   5.560  21.114  0.00  0.00    +0.000 HD
ENDBRANCH  19  22
ENDBRANCH  15  16
ENDBRANCH  14  15
ENDBRANCH   4  14
TORSDOF 7
ENDMDL
MODEL 6
REMARK VINA RESULT:    -6.845      3.025      4.028
REMARK INTER + INTRA:         -10.615
REMARK INTER:                  -9.620
REMARK INTRA:                  -0.995
REMARK UNBOUND:                -0.970
REMARK  Name = 
REMARK  9 active torsions:
REMARK  status: ('A' for Active; 'I' for Inactive)
REMARK    1  A    between atoms: C_1  and  N_2
REMARK    2  A    between atoms: N_2  and  C_3
REMARK    3  A    between atoms: C_4  and  C_6
REMARK    4  A    between atoms: C_6  and  O_7
REMARK    5  A    between atoms: O_7  and  C_8
REMARK    6  A    between atoms: C_11  and  C_12
REMARK    7  A    between atoms: C_12  and  O_13
REMARK    8  A    between atoms: O_13  and  C_14
REMARK    9  A    between atoms: C_17  and  C_18
REMARK                            x       y       z     vdW  Elec       q    Type
REMARK                         _______ _______ _______ _____ _____    ______ ____
ROOT
ATOM      1  C   UNL     1      47.288   6.928  12.824  0.00  0.00    +0.000 A 
ATOM      2  C   UNL     1      46.449   7.562  11.908  0.00  0.00    +0.000 A 
ATOM      3  C   UNL     1      45.330   6.896  11.398  0.00  0.00    +0.000 A 
ATOM      4  C   UNL     1      45.043   5.586  11.800  0.00  0.00    +0.000 A 
ATOM      5  C   UNL     1      45.932   4.933  12.665  0.00  0.00    +0.000 A 
ATOM      6  C   UNL     1      47.049   5.599  13.171  0.00  0.00    +0.000 A 
ENDROOT
BRANCH   1   7
ATOM      7  O   UNL     1      48.314   7.691  13.317  0.00  0.00    +0.000 OA
BRANCH   7   8
ATOM      8  C   UNL     1      48.188   9.092  13.094  0.00  0.00    +0.000 C 
BRANCH   8  12
ATOM      9  C   UNL     1      51.645  10.736  12.953  0.00  0.00    +0.000 C 
ATOM     10  N   UNL     1      50.426  10.148  13.477  0.00  0.00    +0.000 N 
ATOM     11  C   UNL     1      50.221  10.129  14.916  0.00  0.00    +0.000 C 
ATOM     12  C   UNL     1      49.489   9.688  12.558  0.00  0.00    +0.000 C 
ATOM     13  O   UNL     1      49.670   9.794  11.340  0.00  0.00    +0.000 OA
ENDBRANCH   8  12
ENDBRANCH   7   8
ENDBRANCH   1   7
BRANCH   4  14
ATOM     14  C   UNL     1      43.801   4.879  11.319  0.00  0.00    +0.000 C 
BRANCH  14  15
ATOM     15  O   UNL     1      43.780   4.891   9.895  0.00  0.00    +0.000 OA
BRANCH  15  16
ATOM     16  C   UNL     1      44.610   4.007   9.263  0.00  0.00    +0.000 A 
ATOM     17  C   UNL     1      45.635   4.335   8.373  0.00  0.00    +0.000 A 
ATOM     18  C   UNL     1      46.407   3.324   7.787  0.00  0.00    +0.000 A 
ATOM     19  C   UNL     1      46.171   1.980   8.095  0.00  0.00    +0.000 A 
ATOM     20  C   UNL     1      45.139   1.650   8.980  0.00  0.00    +0.000 A 
ATOM     21  C   UNL     1      44.366   2.663   9.557  0.00  0.00    +0.000 A 
BRANCH  19  22
ATOM     22  C   UNL     1      47.014   0.950   7.435  0.00  0.00    +0.000 C 
ATOM     23  N   UNL     1      46.716  -0.362   7.677  0.00  0.00    +0.000 N 
ATOM     24  O   UNL     1      47.967   1.257   6.729  0.00  0.00    +0.000 OA
ATOM     25  H   UNL     1      46.102  -0.656   8.423  0.00  0.00    +0.000 HD
ATOM     26  H   UNL     1      47.364  -1.043   7.304  0.00  0.00    +0.000 HD
ENDBRANCH  19  22
ENDBRANCH  15  16
ENDBRANCH  14  15
ENDBRANCH   4  14
TORSDOF 7
ENDMDL
MODEL 7
REMARK VINA RESULT:    -6.256      3.137      4.574
REMARK INTER + INTRA:          -9.785
REMARK INTER:                  -8.958
REMARK INTRA:                  -0.828
REMARK UNBOUND:                -0.970
REMARK  Name = 
REMARK  9 active torsions:
REMARK  status: ('A' for Active; 'I' for Inactive)
REMARK    1  A    between atoms: C_1  and  N_2
REMARK    2  A    between atoms: N_2  and  C_3
REMARK    3  A    between atoms: C_4  and  C_6
REMARK    4  A    between atoms: C_6  and  O_7
REMARK    5  A    between atoms: O_7  and  C_8
REMARK    6  A    between atoms: C_11  and  C_12
REMARK    7  A    between atoms: C_12  and  O_13
REMARK    8  A    between atoms: O_13  and  C_14
REMARK    9  A    between atoms: C_17  and  C_18
REMARK                            x       y       z     vdW  Elec       q    Type
REMARK                         _______ _______ _______ _____ _____    ______ ____
ROOT
ATOM      1  C   UNL     1      47.194   6.953  13.135  0.00  0.00    +0.000 A 
ATOM      2  C   UNL     1      47.523   5.610  13.317  0.00  0.00    +0.000 A 
ATOM      3  C   UNL     1      46.554   4.617  13.149  0.00  0.00    +0.000 A 
ATOM      4  C   UNL     1      45.243   4.960  12.800  0.00  0.00    +0.000 A 
ATOM      5  C   UNL     1      44.904   6.316  12.690  0.00  0.00    +0.000 A 
ATOM      6  C   UNL     1      45.873   7.306  12.860  0.00  0.00    +0.000 A 
ENDROOT
BRANCH   1   7
ATOM      7  O   UNL     1      48.230   7.841  13.253  0.00  0.00    +0.000 OA
BRANCH   7   8
ATOM      8  C   UNL     1      47.959   9.155  12.775  0.00  0.00    +0.000 C 
BRANCH   8  12
ATOM      9  C   UNL     1      49.958  11.284  10.296  0.00  0.00    +0.000 C 
ATOM     10  N   UNL     1      48.874  10.816  11.139  0.00  0.00    +0.000 N 
ATOM     11  C   UNL     1      47.600  11.516  11.094  0.00  0.00    +0.000 C 
ATOM     12  C   UNL     1      49.101   9.676  11.903  0.00  0.00    +0.000 C 
ATOM     13  O   UNL     1      50.174   9.066  11.853  0.00  0.00    +0.000 OA
ENDBRANCH   8  12
ENDBRANCH   7   8
ENDBRANCH   1   7
BRANCH   4  14
ATOM     14  C   UNL     1      44.203   3.899  12.541  0.00  0.00    +0.000 C 
BRANCH  14  15
ATOM     15  O   UNL     1      43.642   4.102  11.248  0.00  0.00    +0.000 OA
BRANCH  15  16
ATOM     16  C   UNL     1      44.445   3.810  10.179  0.00  0.00    +0.000 A 
ATOM     17  C   UNL     1      45.190   4.728   9.437  0.00  0.00    +0.000 A 
ATOM     18  C   UNL     1      45.967   4.293   8.357  0.00  0.00    +0.000 A 
ATOM     19  C   UNL     1      46.016   2.937   8.017  0.00  0.00    +0.000 A 
ATOM     20  C   UNL     1      45.263   2.017   8.754  0.00  0.00    +0.000 A 
ATOM     21  C   UNL     1      44.483   2.458   9.828  0.00  0.00    +0.000 A 
BRANCH  19  22
ATOM     22  C   UNL     1      46.848   2.534   6.853  0.00  0.00    +0.000 C 
ATOM     23  N   UNL     1      47.891   1.682   7.088  0.00  0.00    +0.000 N 
ATOM     24  O   UNL     1      46.637   2.975   5.731  0.00  0.00    +0.000 OA
ATOM     25  H   UNL     1      48.240   1.484   8.014  0.00  0.00    +0.000 HD
ATOM     26  H   UNL     1      48.507   1.505   6.304  0.00  0.00    +0.000 HD
ENDBRANCH  19  22
ENDBRANCH  15  16
ENDBRANCH  14  15
ENDBRANCH   4  14
TORSDOF 7
ENDMDL
MODEL 8
REMARK VINA RESULT:    -6.221      1.747      2.449
REMARK INTER + INTRA:          -9.737
REMARK INTER:                  -9.150
REMARK INTRA:                  -0.587
REMARK UNBOUND:                -0.970
REMARK  Name = 
REMARK  9 active torsions:
REMARK  status: ('A' for Active; 'I' for Inactive)
REMARK    1  A    between atoms: C_1  and  N_2
REMARK    2  A    between atoms: N_2  and  C_3
REMARK    3  A    between atoms: C_4  and  C_6
REMARK    4  A    between atoms: C_6  and  O_7
REMARK    5  A    between atoms: O_7  and  C_8
REMARK    6  A    between atoms: C_11  and  C_12
REMARK    7  A    between atoms: C_12  and  O_13
REMARK    8  A    between atoms: O_13  and  C_14
REMARK    9  A    between atoms: C_17  and  C_18
REMARK                            x       y       z     vdW  Elec       q    Type
REMARK                         _______ _______ _______ _____ _____    ______ ____
ROOT
ATOM      1  C   UNL     1      47.507   6.000  14.000  0.00  0.00    +0.000 A 
ATOM      2  C   UNL     1      46.608   4.944  13.848  0.00  0.00    +0.000 A 
ATOM      3  C   UNL     1      45.596   5.012  12.887  0.00  0.00    +0.000 A 
ATOM      4  C   UNL     1      45.471   6.141  12.069  0.00  0.00    +0.000 A 
ATOM      5  C   UNL     1      46.333   7.227  12.278  0.00  0.00    +0.000 A 
ATOM      6  C   UNL     1      47.343   7.158  13.239  0.00  0.00    +0.000 A 
ENDROOT
BRANCH   1   7
ATOM      7  O   UNL     1      48.504   5.805  14.918  0.00  0.00    +0.000 OA
BRANCH   7   8
ATOM      8  C   UNL     1      49.347   6.930  15.145  0.00  0.00    +0.000 C 
BRANCH   8  12
ATOM      9  C   UNL     1      49.869   7.311  18.921  0.00  0.00    +0.000 C 
ATOM     10  N   UNL     1      50.016   6.839  17.557  0.00  0.00    +0.000 N 
ATOM     11  C   UNL     1      50.925   5.735  17.293  0.00  0.00    +0.000 C 
ATOM     12  C   UNL     1      49.223   7.436  16.583  0.00  0.00    +0.000 C 
ATOM     13  O   UNL     1      48.407   8.319  16.864  0.00  0.00    +0.000 OA
ENDBRANCH   8  12
ENDBRANCH   7   8
ENDBRANCH   1   7
BRANCH   4  14
ATOM     14  C   UNL     1      44.433   6.200  10.977  0.00  0.00    +0.000 C 
BRANCH  14  15
ATOM     15  O   UNL     1      43.874   4.903  10.795  0.00  0.00    +0.000 OA
BRANCH  15  16
ATOM     16  C   UNL     1      44.538   4.064   9.943  0.00  0.00    +0.000 A 
ATOM     17  C   UNL     1      44.532   2.669   9.995  0.00  0.00    +0.000 A 
ATOM     18  C   UNL     1      45.267   1.928   9.062  0.00  0.00    +0.000 A 
ATOM     19  C   UNL     1      46.004   2.574   8.062  0.00  0.00    +0.000 A 
ATOM     20  C   UNL     1      46.017   3.971   8.015  0.00  0.00    +0.000 A 
ATOM     21  C   UNL     1      45.287   4.707   8.954  0.00  0.00    +0.000 A 
BRANCH  19  22
ATOM     22  C   UNL     1      46.774   1.736   7.106  0.00  0.00    +0.000 C 
ATOM     23  N   UNL     1      46.963   0.422   7.427  0.00  0.00    +0.000 N 
ATOM     24  O   UNL     1      47.257   2.209   6.085  0.00  0.00    +0.000 OA
ATOM     25  H   UNL     1      46.790   0.052   8.351  0.00  0.00    +0.000 HD
ATOM     26  H   UNL     1      47.576  -0.103   6.817  0.00  0.00    +0.000 HD
ENDBRANCH  19  22
ENDBRANCH  15  16
ENDBRANCH  14  15
ENDBRANCH   4  14
TORSDOF 7
ENDMDL
MODEL 9
REMARK VINA RESULT:    -6.118      2.409      8.306
REMARK INTER + INTRA:          -9.591
REMARK INTER:                  -8.861
REMARK INTRA:                  -0.730
REMARK UNBOUND:                -0.970
REMARK  Name = 
REMARK  9 active torsions:
REMARK  status: ('A' for Active; 'I' for Inactive)
REMARK    1  A    between atoms: C_1  and  N_2
REMARK    2  A    between atoms: N_2  and  C_3
REMARK    3  A    between atoms: C_4  and  C_6
REMARK    4  A    between atoms: C_6  and  O_7
REMARK    5  A    between atoms: O_7  and  C_8
REMARK    6  A    between atoms: C_11  and  C_12
REMARK    7  A    between atoms: C_12  and  O_13
REMARK    8  A    between atoms: O_13  and  C_14
REMARK    9  A    between atoms: C_17  and  C_18
REMARK                            x       y       z     vdW  Elec       q    Type
REMARK                         _______ _______ _______ _____ _____    ______ ____
ROOT
ATOM      1  C   UNL     1      46.511   6.453  12.264  0.00  0.00    +0.000 A 
ATOM      2  C   UNL     1      47.246   7.585  12.616  0.00  0.00    +0.000 A 
ATOM      3  C   UNL     1      47.982   7.607  13.804  0.00  0.00    +0.000 A 
ATOM      4  C   UNL     1      47.986   6.495  14.654  0.00  0.00    +0.000 A 
ATOM      5  C   UNL     1      47.187   5.390  14.328  0.00  0.00    +0.000 A 
ATOM      6  C   UNL     1      46.452   5.371  13.141  0.00  0.00    +0.000 A 
ENDROOT
BRANCH   1   7
ATOM      7  O   UNL     1      45.884   6.506  11.047  0.00  0.00    +0.000 OA
BRANCH   7   8
ATOM      8  C   UNL     1      44.765   5.638  10.905  0.00  0.00    +0.000 C 
BRANCH   8  12
ATOM      9  C   UNL     1      44.713   2.380   8.890  0.00  0.00    +0.000 C 
ATOM     10  N   UNL     1      44.471   3.341   9.949  0.00  0.00    +0.000 N 
ATOM     11  C   UNL     1      43.765   2.903  11.143  0.00  0.00    +0.000 C 
ATOM     12  C   UNL     1      44.988   4.621   9.784  0.00  0.00    +0.000 C 
ATOM     13  O   UNL     1      45.650   4.929   8.788  0.00  0.00    +0.000 OA
ENDBRANCH   8  12
ENDBRANCH   7   8
ENDBRANCH   1   7
BRANCH   4  14
ATOM     14  C   UNL     1      48.833   6.472  15.902  0.00  0.00    +0.000 C 
BRANCH  14  15
ATOM     15  O   UNL     1      48.428   5.379  16.720  0.00  0.00    +0.000 OA
BRANCH  15  16
ATOM     16  C   UNL     1      49.377   4.430  16.987  0.00  0.00    +0.000 A 
ATOM     17  C   UNL     1      50.667   4.672  17.462  0.00  0.00    +0.000 A 
ATOM     18  C   UNL     1      51.544   3.603  17.686  0.00  0.00    +0.000 A 
ATOM     19  C   UNL     1      51.136   2.286  17.450  0.00  0.00    +0.000 A 
ATOM     20  C   UNL     1      49.846   2.044  16.967  0.00  0.00    +0.000 A 
ATOM     21  C   UNL     1      48.976   3.115  16.738  0.00  0.00    +0.000 A 
BRANCH  19  22
ATOM     22  C   UNL     1      52.113   1.193  17.695  0.00  0.00    +0.000 C 
ATOM     23  N   UNL     1      51.640   0.033  18.241  0.00  0.00    +0.000 N 
ATOM     24  O   UNL     1      53.306   1.334  17.455  0.00  0.00    +0.000 OA
ATOM     25  H   UNL     1      50.727  -0.041  18.666  0.00  0.00    +0.000 HD
ATOM     26  H   UNL     1      52.336  -0.656  18.496  0.00  0.00    +0.000 HD
ENDBRANCH  19  22
ENDBRANCH  15  16
ENDBRANCH  14  15
ENDBRANCH   4  14
TORSDOF 7
ENDMDL
