MODEL 1
REMARK VINA RESULT:    -8.975      0.000      0.000
REMARK INTER + INTRA:         -12.381
REMARK INTER:                 -11.598
REMARK INTRA:                  -0.783
REMARK UNBOUND:                -0.783
REMARK  Name = 
REMARK  5 active torsions:
REMARK  status: ('A' for Active; 'I' for Inactive)
REMARK    1  A    between atoms: C_2  and  C_4
REMARK    2  A    between atoms: C_7  and  O_8
REMARK    3  A    between atoms: O_8  and  C_9
REMARK    4  A    between atoms: C_9  and  C_10
REMARK    5  A    between atoms: C_15  and  C_16
REMARK                            x       y       z     vdW  Elec       q    Type
REMARK                         _______ _______ _______ _____ _____    ______ ____
ROOT
ATOM      1  C   UNL     1      43.669   4.279  11.231  0.00  0.00    +0.000 C 
ENDROOT
BRANCH   1   2
ATOM      2  C   UNL     1      44.907   4.710  11.987  0.00  0.00    +0.000 A 
ATOM      3  C   UNL     1      45.536   3.812  12.855  0.00  0.00    +0.000 A 
ATOM      4  C   UNL     1      46.696   4.191  13.515  0.00  0.00    +0.000 A 
ATOM      5  F   UNL     1      47.295   3.324  14.343  0.00  0.00    +0.000 F 
ATOM      6  C   UNL     1      47.254   5.452  13.328  0.00  0.00    +0.000 A 
ATOM      7  C   UNL     1      46.671   6.375  12.444  0.00  0.00    +0.000 A 
ATOM      8  C   UNL     1      45.496   5.969  11.776  0.00  0.00    +0.000 A 
BRANCH   7   9
ATOM      9  C   UNL     1      47.267   7.708  12.203  0.00  0.00    +0.000 A 
ATOM     10  C   UNL     1      48.591   7.873  11.771  0.00  0.00    +0.000 A 
ATOM     11  C   UNL     1      49.110   9.146  11.529  0.00  0.00    +0.000 A 
ATOM     12  C   UNL     1      48.286  10.239  11.717  0.00  0.00    +0.000 A 
ATOM     13  N   UNL     1      47.011  10.145  12.139  0.00  0.00    +0.000 NA
ATOM     14  C   UNL     1      46.542   8.893  12.376  0.00  0.00    +0.000 A 
ENDBRANCH   7   9
ENDBRANCH   1   2
BRANCH   1  15
ATOM     15  O   UNL     1      43.733   4.711   9.868  0.00  0.00    +0.000 OA
BRANCH  15  19
ATOM     16  C   UNL     1      46.416   2.449   7.714  0.00  0.00    +0.000 A 
ATOM     17  C   UNL     1      45.549   1.823   8.610  0.00  0.00    +0.000 A 
ATOM     18  C   UNL     1      44.645   2.599   9.339  0.00  0.00    +0.000 A 
ATOM     19  C   UNL     1      44.639   3.972   9.136  0.00  0.00    +0.000 A 
ATOM     20  N   UNL     1      45.470   4.603   8.278  0.00  0.00    +0.000 NA
ATOM     21  C   UNL     1      46.346   3.830   7.596  0.00  0.00    +0.000 A 
BRANCH  16  23
ATOM     22  N   UNL     1      48.491   2.439   6.446  0.00  0.00    +0.000 N 
ATOM     23  C   UNL     1      47.420   1.728   6.906  0.00  0.00    +0.000 C 
ATOM     24  O   UNL     1      47.320   0.527   6.691  0.00  0.00    +0.000 OA
ATOM     25  H   UNL     1      49.222   1.898   6.000  0.00  0.00    +0.000 HD
ATOM     26  H   UNL     1      48.743   3.345   6.815  0.00  0.00    +0.000 HD
ENDBRANCH  16  23
ENDBRANCH  15  19
ENDBRANCH   1  15
TORSDOF 5
ENDMDL
MODEL 2
REMARK VINA RESULT:    -8.523      2.387      3.691
REMARK INTER + INTRA:         -11.797
REMARK INTER:                 -11.062
REMARK INTRA:                  -0.735
REMARK UNBOUND:                -0.783
REMARK  Name = 
REMARK  5 active torsions:
REMARK  status: ('A' for Active; 'I' for Inactive)
REMARK    1  A    between atoms: C_2  and  C_4
REMARK    2  A    between atoms: C_7  and  O_8
REMARK    3  A    between atoms: O_8  and  C_9
REMARK    4  A    between atoms: C_9  and  C_10
REMARK    5  A    between atoms: C_15  and  C_16
REMARK                            x       y       z     vdW  Elec       q    Type
REMARK                         _______ _______ _______ _____ _____    ______ ____
ROOT
ATOM      1  C   UNL     1      44.016   4.291  11.475  0.00  0.00    +0.000 C 
ENDROOT
BRANCH   1   2
ATOM      2  C   UNL     1      45.152   5.060  12.114  0.00  0.00    +0.000 A 
ATOM      3  C   UNL     1      45.523   6.304  11.597  0.00  0.00    +0.000 A 
ATOM      4  C   UNL     1      46.536   7.029  12.209  0.00  0.00    +0.000 A 
ATOM      5  F   UNL     1      46.884   8.222  11.710  0.00  0.00    +0.000 F 
ATOM      6  C   UNL     1      47.191   6.544  13.337  0.00  0.00    +0.000 A 
ATOM      7  C   UNL     1      46.830   5.311  13.907  0.00  0.00    +0.000 A 
ATOM      8  C   UNL     1      45.793   4.592  13.275  0.00  0.00    +0.000 A 
BRANCH   7   9
ATOM      9  C   UNL     1      47.490   4.793  15.126  0.00  0.00    +0.000 A 
ATOM     10  C   UNL     1      47.431   3.441  15.496  0.00  0.00    +0.000 A 
ATOM     11  C   UNL     1      48.089   2.983  16.638  0.00  0.00    +0.000 A 
ATOM     12  C   UNL     1      48.806   3.893  17.393  0.00  0.00    +0.000 A 
ATOM     13  N   UNL     1      48.892   5.203  17.094  0.00  0.00    +0.000 NA
ATOM     14  C   UNL     1      48.230   5.615  15.982  0.00  0.00    +0.000 A 
ENDBRANCH   7   9
ENDBRANCH   1   2
BRANCH   1  15
ATOM     15  O   UNL     1      43.875   4.649  10.096  0.00  0.00    +0.000 OA
BRANCH  15  19
ATOM     16  C   UNL     1      46.431   2.461   7.720  0.00  0.00    +0.000 A 
ATOM     17  C   UNL     1      45.660   1.811   8.686  0.00  0.00    +0.000 A 
ATOM     18  C   UNL     1      44.799   2.563   9.489  0.00  0.00    +0.000 A 
ATOM     19  C   UNL     1      44.738   3.934   9.289  0.00  0.00    +0.000 A 
ATOM     20  N   UNL     1      45.475   4.587   8.365  0.00  0.00    +0.000 NA
ATOM     21  C   UNL     1      46.311   3.839   7.610  0.00  0.00    +0.000 A 
BRANCH  16  23
ATOM     22  N   UNL     1      48.495   2.454   6.436  0.00  0.00    +0.000 N 
ATOM     23  C   UNL     1      47.382   1.768   6.829  0.00  0.00    +0.000 C 
ATOM     24  O   UNL     1      47.205   0.605   6.490  0.00  0.00    +0.000 OA
ATOM     25  H   UNL     1      49.188   1.918   5.927  0.00  0.00    +0.000 HD
ATOM     26  H   UNL     1      48.806   3.297   6.896  0.00  0.00    +0.000 HD
ENDBRANCH  16  23
ENDBRANCH  15  19
ENDBRANCH   1  15
TORSDOF 5
ENDMDL
MODEL 3
REMARK VINA RESULT:    -8.220      1.661      2.167
REMARK INTER + INTRA:         -11.405
REMARK INTER:                 -10.553
REMARK INTRA:                  -0.852
REMARK UNBOUND:                -0.783
REMARK  Name = 
REMARK  5 active torsions:
REMARK  status: ('A' for Active; 'I' for Inactive)
REMARK    1  A    between atoms: C_2  and  C_4
REMARK    2  A    between atoms: C_7  and  O_8
REMARK    3  A    between atoms: O_8  and  C_9
REMARK    4  A    between atoms: C_9  and  C_10
REMARK    5  A    between atoms: C_15  and  C_16
REMARK                            x       y       z     vdW  Elec       q    Type
REMARK                         _______ _______ _______ _____ _____    ______ ____
ROOT
ATOM      1  C   UNL     1      44.031   3.563  11.582  0.00  0.00    +0.000 C 
ENDROOT
BRANCH   1   2
ATOM      2  C   UNL     1      44.836   4.724  12.124  0.00  0.00    +0.000 A 
ATOM      3  C   UNL     1      45.921   4.480  12.971  0.00  0.00    +0.000 A 
ATOM      4  C   UNL     1      46.686   5.541  13.433  0.00  0.00    +0.000 A 
ATOM      5  F   UNL     1      47.726   5.299  14.242  0.00  0.00    +0.000 F 
ATOM      6  C   UNL     1      46.397   6.852  13.067  0.00  0.00    +0.000 A 
ATOM      7  C   UNL     1      45.333   7.140  12.196  0.00  0.00    +0.000 A 
ATOM      8  C   UNL     1      44.572   6.048  11.730  0.00  0.00    +0.000 A 
BRANCH   7   9
ATOM      9  C   UNL     1      45.030   8.524  11.766  0.00  0.00    +0.000 A 
ATOM     10  C   UNL     1      45.842   9.614  12.112  0.00  0.00    +0.000 A 
ATOM     11  C   UNL     1      45.541  10.901  11.665  0.00  0.00    +0.000 A 
ATOM     12  C   UNL     1      44.426  11.075  10.867  0.00  0.00    +0.000 A 
ATOM     13  N   UNL     1      43.604  10.070  10.509  0.00  0.00    +0.000 NA
ATOM     14  C   UNL     1      43.921   8.833  10.971  0.00  0.00    +0.000 A 
ENDBRANCH   7   9
ENDBRANCH   1   2
BRANCH   1  15
ATOM     15  O   UNL     1      43.650   3.802  10.224  0.00  0.00    +0.000 OA
BRANCH  15  19
ATOM     16  C   UNL     1      46.575   2.668   7.555  0.00  0.00    +0.000 A 
ATOM     17  C   UNL     1      46.218   4.014   7.658  0.00  0.00    +0.000 A 
ATOM     18  C   UNL     1      45.222   4.388   8.563  0.00  0.00    +0.000 A 
ATOM     19  C   UNL     1      44.628   3.400   9.336  0.00  0.00    +0.000 A 
ATOM     20  N   UNL     1      44.952   2.092   9.254  0.00  0.00    +0.000 NA
ATOM     21  C   UNL     1      45.909   1.754   8.359  0.00  0.00    +0.000 A 
BRANCH  16  23
ATOM     22  N   UNL     1      47.835   2.883   5.487  0.00  0.00    +0.000 N 
ATOM     23  C   UNL     1      47.602   2.162   6.623  0.00  0.00    +0.000 C 
ATOM     24  O   UNL     1      48.253   1.157   6.878  0.00  0.00    +0.000 OA
ATOM     25  H   UNL     1      48.624   2.583   4.926  0.00  0.00    +0.000 HD
ATOM     26  H   UNL     1      47.519   3.835   5.371  0.00  0.00    +0.000 HD
ENDBRANCH  16  23
ENDBRANCH  15  19
ENDBRANCH   1  15
TORSDOF 5
ENDMDL
MODEL 4
REMARK VINA RESULT:    -8.119      2.305      2.851
REMARK INTER + INTRA:         -11.275
REMARK INTER:                 -10.562
REMARK INTRA:                  -0.714
REMARK UNBOUND:                -0.783
REMARK  Name = 
REMARK  5 active torsions:
REMARK  status: ('A' for Active; 'I' for Inactive)
REMARK    1  A    between atoms: C_2  and  C_4
REMARK    2  A    between atoms: C_7  and  O_8
REMARK    3  A    between atoms: O_8  and  C_9
REMARK    4  A    between atoms: C_9  and  C_10
REMARK    5  A    between atoms: C_15  and  C_16
REMARK                            x       y       z     vdW  Elec       q    Type
REMARK                         _______ _______ _______ _____ _____    ______ ____
ROOT
ATOM      1  C   UNL     1      44.369   3.914  11.594  0.00  0.00    +0.000 C 
ENDROOT
BRANCH   1   2
ATOM      2  C   UNL     1      44.926   5.308  11.782  0.00  0.00    +0.000 A 
ATOM      3  C   UNL     1      44.184   6.414  11.358  0.00  0.00    +0.000 A 
ATOM      4  C   UNL     1      44.675   7.694  11.569  0.00  0.00    +0.000 A 
ATOM      5  F   UNL     1      43.957   8.749  11.163  0.00  0.00    +0.000 F 
ATOM      6  C   UNL     1      45.896   7.904  12.203  0.00  0.00    +0.000 A 
ATOM      7  C   UNL     1      46.661   6.822  12.671  0.00  0.00    +0.000 A 
ATOM      8  C   UNL     1      46.142   5.528  12.454  0.00  0.00    +0.000 A 
BRANCH   7   9
ATOM      9  C   UNL     1      47.945   7.023  13.378  0.00  0.00    +0.000 A 
ATOM     10  C   UNL     1      48.963   7.843  12.870  0.00  0.00    +0.000 A 
ATOM     11  C   UNL     1      50.151   8.032  13.579  0.00  0.00    +0.000 A 
ATOM     12  C   UNL     1      50.296   7.396  14.798  0.00  0.00    +0.000 A 
ATOM     13  N   UNL     1      49.360   6.590  15.332  0.00  0.00    +0.000 NA
ATOM     14  C   UNL     1      48.222   6.421  14.611  0.00  0.00    +0.000 A 
ENDBRANCH   7   9
ENDBRANCH   1   2
BRANCH   1  15
ATOM     15  O   UNL     1      43.798   3.769  10.289  0.00  0.00    +0.000 OA
BRANCH  15  19
ATOM     16  C   UNL     1      46.603   2.660   7.485  0.00  0.00    +0.000 A 
ATOM     17  C   UNL     1      46.222   4.000   7.589  0.00  0.00    +0.000 A 
ATOM     18  C   UNL     1      45.268   4.365   8.541  0.00  0.00    +0.000 A 
ATOM     19  C   UNL     1      44.737   3.376   9.357  0.00  0.00    +0.000 A 
ATOM     20  N   UNL     1      45.085   2.074   9.275  0.00  0.00    +0.000 NA
ATOM     21  C   UNL     1      46.000   1.744   8.335  0.00  0.00    +0.000 A 
BRANCH  16  23
ATOM     22  N   UNL     1      47.841   2.938   5.411  0.00  0.00    +0.000 N 
ATOM     23  C   UNL     1      47.590   2.163   6.507  0.00  0.00    +0.000 C 
ATOM     24  O   UNL     1      48.196   1.115   6.691  0.00  0.00    +0.000 OA
ATOM     25  H   UNL     1      48.606   2.635   4.820  0.00  0.00    +0.000 HD
ATOM     26  H   UNL     1      47.569   3.909   5.357  0.00  0.00    +0.000 HD
ENDBRANCH  16  23
ENDBRANCH  15  19
ENDBRANCH   1  15
TORSDOF 5
ENDMDL
MODEL 5
REMARK VINA RESULT:    -7.638      2.731      6.778
REMARK INTER + INTRA:         -10.654
REMARK INTER:                  -9.808
REMARK INTRA:                  -0.846
REMARK UNBOUND:                -0.783
REMARK  Name = 
REMARK  5 active torsions:
REMARK  status: ('A' for Active; 'I' for Inactive)
REMARK    1  A    between atoms: C_2  and  C_4
REMARK    2  A    between atoms: C_7  and  O_8
REMARK    3  A    between atoms: O_8  and  C_9
REMARK    4  A    between atoms: C_9  and  C_10
REMARK    5  A    between atoms: C_15  and  C_16
REMARK                            x       y       z     vdW  Elec       q    Type
REMARK                         _______ _______ _______ _____ _____    ______ ____
ROOT
ATOM      1  C   UNL     1      44.638   6.650  11.143  0.00  0.00    +0.000 C 
ENDROOT
BRANCH   1   2
ATOM      2  C   UNL     1      44.579   5.186  10.762  0.00  0.00    +0.000 A 
ATOM      3  C   UNL     1      43.748   4.318  11.476  0.00  0.00    +0.000 A 
ATOM      4  C   UNL     1      43.659   2.985  11.100  0.00  0.00    +0.000 A 
ATOM      5  F   UNL     1      42.859   2.160  11.788  0.00  0.00    +0.000 F 
ATOM      6  C   UNL     1      44.381   2.491  10.018  0.00  0.00    +0.000 A 
ATOM      7  C   UNL     1      45.206   3.335   9.255  0.00  0.00    +0.000 A 
ATOM      8  C   UNL     1      45.277   4.688   9.648  0.00  0.00    +0.000 A 
BRANCH   7   9
ATOM      9  C   UNL     1      45.955   2.838   8.079  0.00  0.00    +0.000 A 
ATOM     10  C   UNL     1      46.227   3.645   6.965  0.00  0.00    +0.000 A 
ATOM     11  C   UNL     1      46.960   3.150   5.885  0.00  0.00    +0.000 A 
ATOM     12  C   UNL     1      47.418   1.847   5.944  0.00  0.00    +0.000 A 
ATOM     13  N   UNL     1      47.181   1.022   6.981  0.00  0.00    +0.000 NA
ATOM     14  C   UNL     1      46.456   1.533   8.009  0.00  0.00    +0.000 A 
ENDBRANCH   7   9
ENDBRANCH   1   2
BRANCH   1  15
ATOM     15  O   UNL     1      45.169   6.808  12.462  0.00  0.00    +0.000 OA
BRANCH  15  19
ATOM     16  C   UNL     1      49.135   7.918  12.419  0.00  0.00    +0.000 A 
ATOM     17  C   UNL     1      48.788   6.609  12.760  0.00  0.00    +0.000 A 
ATOM     18  C   UNL     1      47.440   6.244  12.775  0.00  0.00    +0.000 A 
ATOM     19  C   UNL     1      46.493   7.201  12.441  0.00  0.00    +0.000 A 
ATOM     20  N   UNL     1      46.801   8.473  12.111  0.00  0.00    +0.000 NA
ATOM     21  C   UNL     1      48.112   8.806  12.118  0.00  0.00    +0.000 A 
BRANCH  16  23
ATOM     22  N   UNL     1      51.441   7.683  11.684  0.00  0.00    +0.000 N 
ATOM     23  C   UNL     1      50.525   8.414  12.386  0.00  0.00    +0.000 C 
ATOM     24  O   UNL     1      50.839   9.465  12.929  0.00  0.00    +0.000 OA
ATOM     25  H   UNL     1      52.355   8.106  11.576  0.00  0.00    +0.000 HD
ATOM     26  H   UNL     1      51.176   6.973  11.017  0.00  0.00    +0.000 HD
ENDBRANCH  16  23
ENDBRANCH  15  19
ENDBRANCH   1  15
TORSDOF 5
ENDMDL
MODEL 6
REMARK VINA RESULT:    -7.576      2.146      2.839
REMARK INTER + INTRA:         -10.573
REMARK INTER:                  -9.888
REMARK INTRA:                  -0.685
REMARK UNBOUND:                -0.783
REMARK  Name = 
REMARK  5 active torsions:
REMARK  status: ('A' for Active; 'I' for Inactive)
REMARK    1  A    between atoms: C_2  and  C_4
REMARK    2  A    between atoms: C_7  and  O_8
REMARK    3  A    between atoms: O_8  and  C_9
REMARK    4  A    between atoms: C_9  and  C_10
REMARK    5  A    between atoms: C_15  and  C_16
REMARK                            x       y       z     vdW  Elec       q    Type
REMARK                         _______ _______ _______ _____ _____    ______ ____
ROOT
ATOM      1  C   UNL     1      44.945   5.127  11.294  0.00  0.00    +0.000 C 
ENDROOT
BRANCH   1   2
ATOM      2  C   UNL     1      45.509   6.506  11.561  0.00  0.00    +0.000 A 
ATOM      3  C   UNL     1      44.648   7.605  11.630  0.00  0.00    +0.000 A 
ATOM      4  C   UNL     1      45.159   8.863  11.918  0.00  0.00    +0.000 A 
ATOM      5  F   UNL     1      44.328   9.911  11.985  0.00  0.00    +0.000 F 
ATOM      6  C   UNL     1      46.519   9.055  12.145  0.00  0.00    +0.000 A 
ATOM      7  C   UNL     1      47.416   7.973  12.113  0.00  0.00    +0.000 A 
ATOM      8  C   UNL     1      46.876   6.701  11.827  0.00  0.00    +0.000 A 
BRANCH   7   9
ATOM      9  C   UNL     1      48.859   8.149  12.386  0.00  0.00    +0.000 A 
ATOM     10  C   UNL     1      49.387   8.126  13.686  0.00  0.00    +0.000 A 
ATOM     11  C   UNL     1      50.759   8.268  13.903  0.00  0.00    +0.000 A 
ATOM     12  C   UNL     1      51.585   8.425  12.806  0.00  0.00    +0.000 A 
ATOM     13  N   UNL     1      51.137   8.465  11.537  0.00  0.00    +0.000 NA
ATOM     14  C   UNL     1      49.796   8.334  11.364  0.00  0.00    +0.000 A 
ENDBRANCH   7   9
ENDBRANCH   1   2
BRANCH   1  15
ATOM     15  O   UNL     1      44.412   5.046   9.969  0.00  0.00    +0.000 OA
BRANCH  15  19
ATOM     16  C   UNL     1      46.514   2.368   7.651  0.00  0.00    +0.000 A 
ATOM     17  C   UNL     1      45.660   1.896   8.649  0.00  0.00    +0.000 A 
ATOM     18  C   UNL     1      44.954   2.812   9.432  0.00  0.00    +0.000 A 
ATOM     19  C   UNL     1      45.125   4.166   9.180  0.00  0.00    +0.000 A 
ATOM     20  N   UNL     1      45.947   4.649   8.224  0.00  0.00    +0.000 NA
ATOM     21  C   UNL     1      46.630   3.741   7.489  0.00  0.00    +0.000 A 
BRANCH  16  23
ATOM     22  N   UNL     1      48.352   2.057   6.090  0.00  0.00    +0.000 N 
ATOM     23  C   UNL     1      47.317   1.490   6.777  0.00  0.00    +0.000 C 
ATOM     24  O   UNL     1      47.094   0.288   6.704  0.00  0.00    +0.000 OA
ATOM     25  H   UNL     1      48.959   1.415   5.595  0.00  0.00    +0.000 HD
ATOM     26  H   UNL     1      48.727   2.965   6.322  0.00  0.00    +0.000 HD
ENDBRANCH  16  23
ENDBRANCH  15  19
ENDBRANCH   1  15
TORSDOF 5
ENDMDL
MODEL 7
REMARK VINA RESULT:    -7.449      4.666      8.075
REMARK INTER + INTRA:         -10.409
REMARK INTER:                  -9.837
REMARK INTRA:                  -0.572
REMARK UNBOUND:                -0.783
REMARK  Name = 
REMARK  5 active torsions:
REMARK  status: ('A' for Active; 'I' for Inactive)
REMARK    1  A    between atoms: C_2  and  C_4
REMARK    2  A    between atoms: C_7  and  O_8
REMARK    3  A    between atoms: O_8  and  C_9
REMARK    4  A    between atoms: C_9  and  C_10
REMARK    5  A    between atoms: C_15  and  C_16
REMARK                            x       y       z     vdW  Elec       q    Type
REMARK                         _______ _______ _______ _____ _____    ______ ____
ROOT
ATOM      1  C   UNL     1      45.960   5.201  14.031  0.00  0.00    +0.000 C 
ENDROOT
BRANCH   1   2
ATOM      2  C   UNL     1      45.086   4.953  12.820  0.00  0.00    +0.000 A 
ATOM      3  C   UNL     1      43.762   5.402  12.818  0.00  0.00    +0.000 A 
ATOM      4  C   UNL     1      42.974   5.214  11.692  0.00  0.00    +0.000 A 
ATOM      5  F   UNL     1      41.707   5.650  11.696  0.00  0.00    +0.000 F 
ATOM      6  C   UNL     1      43.476   4.587  10.555  0.00  0.00    +0.000 A 
ATOM      7  C   UNL     1      44.809   4.145  10.505  0.00  0.00    +0.000 A 
ATOM      8  C   UNL     1      45.598   4.352  11.656  0.00  0.00    +0.000 A 
BRANCH   7   9
ATOM      9  C   UNL     1      45.373   3.507   9.295  0.00  0.00    +0.000 A 
ATOM     10  C   UNL     1      45.890   4.251   8.224  0.00  0.00    +0.000 A 
ATOM     11  C   UNL     1      46.440   3.615   7.110  0.00  0.00    +0.000 A 
ATOM     12  C   UNL     1      46.469   2.232   7.091  0.00  0.00    +0.000 A 
ATOM     13  N   UNL     1      45.980   1.465   8.083  0.00  0.00    +0.000 NA
ATOM     14  C   UNL     1      45.444   2.117   9.146  0.00  0.00    +0.000 A 
ENDBRANCH   7   9
ENDBRANCH   1   2
BRANCH   1  15
ATOM     15  O   UNL     1      46.684   4.017  14.383  0.00  0.00    +0.000 OA
BRANCH  15  19
ATOM     16  C   UNL     1      48.490   4.407  18.064  0.00  0.00    +0.000 A 
ATOM     17  C   UNL     1      48.685   5.389  17.092  0.00  0.00    +0.000 A 
ATOM     18  C   UNL     1      48.071   5.246  15.846  0.00  0.00    +0.000 A 
ATOM     19  C   UNL     1      47.279   4.129  15.624  0.00  0.00    +0.000 A 
ATOM     20  N   UNL     1      47.077   3.162  16.545  0.00  0.00    +0.000 NA
ATOM     21  C   UNL     1      47.694   3.317  17.739  0.00  0.00    +0.000 A 
BRANCH  16  23
ATOM     22  N   UNL     1      48.416   3.865  20.433  0.00  0.00    +0.000 N 
ATOM     23  C   UNL     1      49.101   4.450  19.407  0.00  0.00    +0.000 C 
ATOM     24  O   UNL     1      50.203   4.953  19.589  0.00  0.00    +0.000 OA
ATOM     25  H   UNL     1      48.910   3.801  21.316  0.00  0.00    +0.000 HD
ATOM     26  H   UNL     1      47.652   3.222  20.282  0.00  0.00    +0.000 HD
ENDBRANCH  16  23
ENDBRANCH  15  19
ENDBRANCH   1  15
TORSDOF 5
ENDMDL
MODEL 8
REMARK VINA RESULT:    -7.372      3.796      7.378
REMARK INTER + INTRA:         -10.309
REMARK INTER:                  -9.657
REMARK INTRA:                  -0.652
REMARK UNBOUND:                -0.783
REMARK  Name = 
REMARK  5 active torsions:
REMARK  status: ('A' for Active; 'I' for Inactive)
REMARK    1  A    between atoms: C_2  and  C_4
REMARK    2  A    between atoms: C_7  and  O_8
REMARK    3  A    between atoms: O_8  and  C_9
REMARK    4  A    between atoms: C_9  and  C_10
REMARK    5  A    between atoms: C_15  and  C_16
REMARK                            x       y       z     vdW  Elec       q    Type
REMARK                         _______ _______ _______ _____ _____    ______ ____
ROOT
ATOM      1  C   UNL     1      46.133   7.045  12.848  0.00  0.00    +0.000 C 
ENDROOT
BRANCH   1   2
ATOM      2  C   UNL     1      45.226   6.163  12.019  0.00  0.00    +0.000 A 
ATOM      3  C   UNL     1      43.843   6.212  12.216  0.00  0.00    +0.000 A 
ATOM      4  C   UNL     1      43.007   5.436  11.426  0.00  0.00    +0.000 A 
ATOM      5  F   UNL     1      41.682   5.491  11.619  0.00  0.00    +0.000 F 
ATOM      6  C   UNL     1      43.518   4.606  10.433  0.00  0.00    +0.000 A 
ATOM      7  C   UNL     1      44.900   4.546  10.183  0.00  0.00    +0.000 A 
ATOM      8  C   UNL     1      45.733   5.349  10.990  0.00  0.00    +0.000 A 
BRANCH   7   9
ATOM      9  C   UNL     1      45.461   3.697   9.109  0.00  0.00    +0.000 A 
ATOM     10  C   UNL     1      46.060   4.235   7.960  0.00  0.00    +0.000 A 
ATOM     11  C   UNL     1      46.604   3.403   6.980  0.00  0.00    +0.000 A 
ATOM     12  C   UNL     1      46.545   2.036   7.173  0.00  0.00    +0.000 A 
ATOM     13  N   UNL     1      45.975   1.461   8.249  0.00  0.00    +0.000 NA
ATOM     14  C   UNL     1      45.447   2.300   9.176  0.00  0.00    +0.000 A 
ENDBRANCH   7   9
ENDBRANCH   1   2
BRANCH   1  15
ATOM     15  O   UNL     1      47.447   6.483  12.932  0.00  0.00    +0.000 OA
BRANCH  15  19
ATOM     16  C   UNL     1      48.098   4.699  16.587  0.00  0.00    +0.000 A 
ATOM     17  C   UNL     1      47.199   4.123  15.687  0.00  0.00    +0.000 A 
ATOM     18  C   UNL     1      46.983   4.737  14.452  0.00  0.00    +0.000 A 
ATOM     19  C   UNL     1      47.680   5.901  14.162  0.00  0.00    +0.000 A 
ATOM     20  N   UNL     1      48.552   6.482  15.015  0.00  0.00    +0.000 NA
ATOM     21  C   UNL     1      48.732   5.875  16.211  0.00  0.00    +0.000 A 
BRANCH  16  23
ATOM     22  N   UNL     1      47.645   4.597  18.974  0.00  0.00    +0.000 N 
ATOM     23  C   UNL     1      48.390   4.143  17.923  0.00  0.00    +0.000 C 
ATOM     24  O   UNL     1      49.238   3.274  18.079  0.00  0.00    +0.000 OA
ATOM     25  H   UNL     1      47.782   4.115  19.854  0.00  0.00    +0.000 HD
ATOM     26  H   UNL     1      46.779   5.102  18.850  0.00  0.00    +0.000 HD
ENDBRANCH  16  23
ENDBRANCH  15  19
ENDBRANCH   1  15
TORSDOF 5
ENDMDL
MODEL 9
REMARK VINA RESULT:    -6.944      5.397      7.861
REMARK INTER + INTRA:          -9.757
REMARK INTER:                  -8.993
REMARK INTRA:                  -0.764
REMARK UNBOUND:                -0.783
REMARK  Name = 
REMARK  5 active torsions:
REMARK  status: ('A' for Active; 'I' for Inactive)
REMARK    1  A    between atoms: C_2  and  C_4
REMARK    2  A    between atoms: C_7  and  O_8
REMARK    3  A    between atoms: O_8  and  C_9
REMARK    4  A    between atoms: C_9  and  C_10
REMARK    5  A    between atoms: C_15  and  C_16
REMARK                            x       y       z     vdW  Elec       q    Type
REMARK                         _______ _______ _______ _____ _____    ______ ____
ROOT
ATOM      1  C   UNL     1      48.796   6.517  15.811  0.00  0.00    +0.000 C 
ENDROOT
BRANCH   1   2
ATOM      2  C   UNL     1      48.292   6.617  14.387  0.00  0.00    +0.000 A 
ATOM      3  C   UNL     1      48.957   7.440  13.474  0.00  0.00    +0.000 A 
ATOM      4  C   UNL     1      48.522   7.500  12.157  0.00  0.00    +0.000 A 
ATOM      5  F   UNL     1      49.166   8.288  11.287  0.00  0.00    +0.000 F 
ATOM      6  C   UNL     1      47.433   6.749  11.722  0.00  0.00    +0.000 A 
ATOM      7  C   UNL     1      46.754   5.887  12.600  0.00  0.00    +0.000 A 
ATOM      8  C   UNL     1      47.216   5.835  13.932  0.00  0.00    +0.000 A 
BRANCH   7   9
ATOM      9  C   UNL     1      45.617   5.055  12.150  0.00  0.00    +0.000 A 
ATOM     10  C   UNL     1      44.904   5.328  10.973  0.00  0.00    +0.000 A 
ATOM     11  C   UNL     1      43.854   4.504  10.566  0.00  0.00    +0.000 A 
ATOM     12  C   UNL     1      43.538   3.407  11.346  0.00  0.00    +0.000 A 
ATOM     13  N   UNL     1      44.178   3.099  12.490  0.00  0.00    +0.000 NA
ATOM     14  C   UNL     1      45.187   3.929  12.861  0.00  0.00    +0.000 A 
ENDBRANCH   7   9
ENDBRANCH   1   2
BRANCH   1  15
ATOM     15  O   UNL     1      48.201   5.400  16.480  0.00  0.00    +0.000 OA
BRANCH  15  19
ATOM     16  C   UNL     1      50.931   2.454  17.391  0.00  0.00    +0.000 A 
ATOM     17  C   UNL     1      49.617   2.104  17.075  0.00  0.00    +0.000 A 
ATOM     18  C   UNL     1      48.698   3.111  16.771  0.00  0.00    +0.000 A 
ATOM     19  C   UNL     1      49.132   4.429  16.788  0.00  0.00    +0.000 A 
ATOM     20  N   UNL     1      50.396   4.795  17.093  0.00  0.00    +0.000 NA
ATOM     21  C   UNL     1      51.263   3.802  17.398  0.00  0.00    +0.000 A 
BRANCH  16  23
ATOM     22  N   UNL     1      51.575   0.232  18.137  0.00  0.00    +0.000 N 
ATOM     23  C   UNL     1      51.979   1.475  17.741  0.00  0.00    +0.000 C 
ATOM     24  O   UNL     1      53.167   1.749  17.638  0.00  0.00    +0.000 OA
ATOM     25  H   UNL     1      52.310  -0.456  18.255  0.00  0.00    +0.000 HD
ATOM     26  H   UNL     1      50.638  -0.112  17.983  0.00  0.00    +0.000 HD
ENDBRANCH  16  23
ENDBRANCH  15  19
ENDBRANCH   1  15
TORSDOF 5
ENDMDL
