MODEL 1
REMARK VINA RESULT:    -8.744      0.000      0.000
REMARK INTER + INTRA:         -11.861
REMARK INTER:                 -11.300
REMARK INTRA:                  -0.561
REMARK UNBOUND:                -0.561
REMARK  Name = 
REMARK  5 active torsions:
REMARK  status: ('A' for Active; 'I' for Inactive)
REMARK    1  A    between atoms: C_2  and  C_4
REMARK    2  A    between atoms: C_7  and  N_8
REMARK    3  A    between atoms: N_8  and  C_9
REMARK    4  A    between atoms: C_9  and  C_10
REMARK    5  A    between atoms: C_15  and  N_16
REMARK                            x       y       z     vdW  Elec       q    Type
REMARK                         _______ _______ _______ _____ _____    ______ ____
ROOT
ATOM      1  C   UNL     1      43.930   4.931  11.239  0.00  0.00    +0.000 C 
ATOM      2  C   UNL     1      43.030   3.794  11.686  0.00  0.00    +0.000 C 
ATOM      3  C   UNL     1      42.548   5.201  11.814  0.00  0.00    +0.000 C 
ENDROOT
BRANCH   1   4
ATOM      4  C   UNL     1      45.134   5.342  12.083  0.00  0.00    +0.000 A 
ATOM      5  C   UNL     1      45.629   4.519  13.104  0.00  0.00    +0.000 A 
ATOM      6  C   UNL     1      46.809   4.834  13.771  0.00  0.00    +0.000 A 
ATOM      7  C   UNL     1      47.520   5.980  13.420  0.00  0.00    +0.000 A 
ATOM      8  F   UNL     1      48.651   6.238  14.098  0.00  0.00    +0.000 F 
ATOM      9  C   UNL     1      47.073   6.859  12.420  0.00  0.00    +0.000 A 
ATOM     10  C   UNL     1      45.865   6.514  11.783  0.00  0.00    +0.000 A 
BRANCH   9  11
ATOM     11  N   UNL     1      47.772   7.983  12.017  0.00  0.00    +0.000 N 
ATOM     12  C   UNL     1      49.128   7.918  11.453  0.00  0.00    +0.000 C 
ATOM     13  C   UNL     1      50.117   8.705  12.324  0.00  0.00    +0.000 C 
ATOM     14  O   UNL     1      49.666  10.055  12.542  0.00  0.00    +0.000 OA
ATOM     15  C   UNL     1      48.390  10.048  13.204  0.00  0.00    +0.000 C 
ATOM     16  C   UNL     1      47.315   9.334  12.365  0.00  0.00    +0.000 C 
ENDBRANCH   9  11
ENDBRANCH   1   4
BRANCH   1  17
ATOM     17  N   UNL     1      44.164   5.143   9.791  0.00  0.00    +0.000 N 
ATOM     18  H   UNL     1      43.360   5.405   9.234  0.00  0.00    +0.000 HD
BRANCH  17  22
ATOM     19  C   UNL     1      46.508   2.438   7.744  0.00  0.00    +0.000 A 
ATOM     20  C   UNL     1      46.596   3.792   7.476  0.00  0.00    +0.000 A 
ATOM     21  N   UNL     1      45.853   4.713   8.139  0.00  0.00    +0.000 NA
ATOM     22  C   UNL     1      45.015   4.254   9.097  0.00  0.00    +0.000 A 
ATOM     23  C   UNL     1      44.943   2.878   9.353  0.00  0.00    +0.000 A 
ATOM     24  N   UNL     1      45.677   1.935   8.700  0.00  0.00    +0.000 NA
BRANCH  19  26
ATOM     25  N   UNL     1      48.432   2.003   6.339  0.00  0.00    +0.000 N 
ATOM     26  C   UNL     1      47.329   1.481   6.954  0.00  0.00    +0.000 C 
ATOM     27  O   UNL     1      47.047   0.294   6.867  0.00  0.00    +0.000 OA
ATOM     28  H   UNL     1      49.047   1.392   5.822  0.00  0.00    +0.000 HD
ATOM     29  H   UNL     1      48.662   2.985   6.454  0.00  0.00    +0.000 HD
ENDBRANCH  19  26
ENDBRANCH  17  22
ENDBRANCH   1  17
TORSDOF 5
ENDMDL
MODEL 2
REMARK VINA RESULT:    -8.540      1.448      2.062
REMARK INTER + INTRA:         -11.598
REMARK INTER:                 -10.915
REMARK INTRA:                  -0.682
REMARK UNBOUND:                -0.561
REMARK  Name = 
REMARK  5 active torsions:
REMARK  status: ('A' for Active; 'I' for Inactive)
REMARK    1  A    between atoms: C_2  and  C_4
REMARK    2  A    between atoms: C_7  and  N_8
REMARK    3  A    between atoms: N_8  and  C_9
REMARK    4  A    between atoms: C_9  and  C_10
REMARK    5  A    between atoms: C_15  and  N_16
REMARK                            x       y       z     vdW  Elec       q    Type
REMARK                         _______ _______ _______ _____ _____    ______ ____
ROOT
ATOM      1  C   UNL     1      44.093   5.008  11.429  0.00  0.00    +0.000 C 
ATOM      2  C   UNL     1      44.169   3.853  12.410  0.00  0.00    +0.000 C 
ATOM      3  C   UNL     1      42.998   4.777  12.458  0.00  0.00    +0.000 C 
ENDROOT
BRANCH   1   4
ATOM      4  C   UNL     1      44.981   6.237  11.613  0.00  0.00    +0.000 A 
ATOM      5  C   UNL     1      44.488   7.533  11.413  0.00  0.00    +0.000 A 
ATOM      6  C   UNL     1      45.261   8.650  11.719  0.00  0.00    +0.000 A 
ATOM      7  C   UNL     1      46.542   8.486  12.242  0.00  0.00    +0.000 A 
ATOM      8  F   UNL     1      47.244   9.597  12.517  0.00  0.00    +0.000 F 
ATOM      9  C   UNL     1      47.105   7.216  12.451  0.00  0.00    +0.000 A 
ATOM     10  C   UNL     1      46.299   6.113  12.109  0.00  0.00    +0.000 A 
BRANCH   9  11
ATOM     11  N   UNL     1      48.357   7.014  13.004  0.00  0.00    +0.000 N 
ATOM     12  C   UNL     1      48.562   6.752  14.436  0.00  0.00    +0.000 C 
ATOM     13  C   UNL     1      49.438   7.843  15.067  0.00  0.00    +0.000 C 
ATOM     14  O   UNL     1      50.674   8.008  14.347  0.00  0.00    +0.000 OA
ATOM     15  C   UNL     1      50.404   8.380  12.985  0.00  0.00    +0.000 C 
ATOM     16  C   UNL     1      49.584   7.305  12.251  0.00  0.00    +0.000 C 
ENDBRANCH   9  11
ENDBRANCH   1   4
BRANCH   1  17
ATOM     17  N   UNL     1      43.814   4.730  10.001  0.00  0.00    +0.000 N 
ATOM     18  H   UNL     1      42.867   4.455   9.768  0.00  0.00    +0.000 HD
BRANCH  17  22
ATOM     19  C   UNL     1      46.471   2.522   7.751  0.00  0.00    +0.000 A 
ATOM     20  C   UNL     1      46.406   3.897   7.618  0.00  0.00    +0.000 A 
ATOM     21  N   UNL     1      45.556   4.659   8.351  0.00  0.00    +0.000 NA
ATOM     22  C   UNL     1      44.767   4.016   9.242  0.00  0.00    +0.000 A 
ATOM     23  C   UNL     1      44.850   2.622   9.362  0.00  0.00    +0.000 A 
ATOM     24  N   UNL     1      45.693   1.837   8.636  0.00  0.00    +0.000 NA
BRANCH  19  26
ATOM     25  N   UNL     1      48.514   2.415   6.454  0.00  0.00    +0.000 N 
ATOM     26  C   UNL     1      47.404   1.746   6.889  0.00  0.00    +0.000 C 
ATOM     27  O   UNL     1      47.201   0.576   6.594  0.00  0.00    +0.000 OA
ATOM     28  H   UNL     1      49.201   1.926   5.899  0.00  0.00    +0.000 HD
ATOM     29  H   UNL     1      48.674   3.375   6.740  0.00  0.00    +0.000 HD
ENDBRANCH  19  26
ENDBRANCH  17  22
ENDBRANCH   1  17
TORSDOF 5
ENDMDL
MODEL 3
REMARK VINA RESULT:    -6.948      5.031      7.941
REMARK INTER + INTRA:          -9.540
REMARK INTER:                  -9.385
REMARK INTRA:                  -0.154
REMARK UNBOUND:                -0.561
REMARK  Name = 
REMARK  5 active torsions:
REMARK  status: ('A' for Active; 'I' for Inactive)
REMARK    1  A    between atoms: C_2  and  C_4
REMARK    2  A    between atoms: C_7  and  N_8
REMARK    3  A    between atoms: N_8  and  C_9
REMARK    4  A    between atoms: C_9  and  C_10
REMARK    5  A    between atoms: C_15  and  N_16
REMARK                            x       y       z     vdW  Elec       q    Type
REMARK                         _______ _______ _______ _____ _____    ______ ____
ROOT
ATOM      1  C   UNL     1      48.624   6.279  15.795  0.00  0.00    +0.000 C 
ATOM      2  C   UNL     1      50.032   6.825  15.936  0.00  0.00    +0.000 C 
ATOM      3  C   UNL     1      48.888   7.608  16.487  0.00  0.00    +0.000 C 
ENDROOT
BRANCH   1   4
ATOM      4  C   UNL     1      47.910   6.320  14.446  0.00  0.00    +0.000 A 
ATOM      5  C   UNL     1      48.432   7.038  13.362  0.00  0.00    +0.000 A 
ATOM      6  C   UNL     1      47.852   6.954  12.099  0.00  0.00    +0.000 A 
ATOM      7  C   UNL     1      46.739   6.139  11.900  0.00  0.00    +0.000 A 
ATOM      8  F   UNL     1      46.218   6.097  10.662  0.00  0.00    +0.000 F 
ATOM      9  C   UNL     1      46.153   5.406  12.945  0.00  0.00    +0.000 A 
ATOM     10  C   UNL     1      46.758   5.534  14.210  0.00  0.00    +0.000 A 
BRANCH   9  11
ATOM     11  N   UNL     1      45.074   4.557  12.775  0.00  0.00    +0.000 N 
ATOM     12  C   UNL     1      45.198   3.222  12.172  0.00  0.00    +0.000 C 
ATOM     13  C   UNL     1      44.343   3.119  10.902  0.00  0.00    +0.000 C 
ATOM     14  O   UNL     1      42.976   3.492  11.157  0.00  0.00    +0.000 OA
ATOM     15  C   UNL     1      42.916   4.848  11.630  0.00  0.00    +0.000 C 
ATOM     16  C   UNL     1      43.694   5.029  12.946  0.00  0.00    +0.000 C 
ENDBRANCH   9  11
ENDBRANCH   1   4
BRANCH   1  17
ATOM     17  N   UNL     1      48.215   5.110  16.608  0.00  0.00    +0.000 N 
ATOM     18  H   UNL     1      47.596   5.293  17.389  0.00  0.00    +0.000 HD
BRANCH  17  22
ATOM     19  C   UNL     1      50.996   2.159  17.360  0.00  0.00    +0.000 A 
ATOM     20  C   UNL     1      51.231   3.466  17.747  0.00  0.00    +0.000 A 
ATOM     21  N   UNL     1      50.335   4.461  17.531  0.00  0.00    +0.000 NA
ATOM     22  C   UNL     1      49.175   4.123  16.922  0.00  0.00    +0.000 A 
ATOM     23  C   UNL     1      48.956   2.792  16.539  0.00  0.00    +0.000 A 
ATOM     24  N   UNL     1      49.841   1.778  16.744  0.00  0.00    +0.000 NA
BRANCH  19  26
ATOM     25  N   UNL     1      51.607  -0.040  18.166  0.00  0.00    +0.000 N 
ATOM     26  C   UNL     1      52.038   1.126  17.599  0.00  0.00    +0.000 C 
ATOM     27  O   UNL     1      53.211   1.298  17.297  0.00  0.00    +0.000 OA
ATOM     28  H   UNL     1      52.265  -0.792  18.315  0.00  0.00    +0.000 HD
ATOM     29  H   UNL     1      50.623  -0.170  18.377  0.00  0.00    +0.000 HD
ENDBRANCH  19  26
ENDBRANCH  17  22
ENDBRANCH   1  17
TORSDOF 5
ENDMDL
MODEL 4
REMARK VINA RESULT:    -6.716      3.479      7.530
REMARK INTER + INTRA:          -9.241
REMARK INTER:                  -9.318
REMARK INTRA:                   0.077
REMARK UNBOUND:                -0.561
REMARK  Name = 
REMARK  5 active torsions:
REMARK  status: ('A' for Active; 'I' for Inactive)
REMARK    1  A    between atoms: C_2  and  C_4
REMARK    2  A    between atoms: C_7  and  N_8
REMARK    3  A    between atoms: N_8  and  C_9
REMARK    4  A    between atoms: C_9  and  C_10
REMARK    5  A    between atoms: C_15  and  N_16
REMARK                            x       y       z     vdW  Elec       q    Type
REMARK                         _______ _______ _______ _____ _____    ______ ____
ROOT
ATOM      1  C   UNL     1      46.590   6.921  12.581  0.00  0.00    +0.000 C 
ATOM      2  C   UNL     1      46.555   8.197  11.762  0.00  0.00    +0.000 C 
ATOM      3  C   UNL     1      46.027   8.210  13.158  0.00  0.00    +0.000 C 
ENDROOT
BRANCH   1   4
ATOM      4  C   UNL     1      45.603   5.791  12.295  0.00  0.00    +0.000 A 
ATOM      5  C   UNL     1      44.559   5.488  13.178  0.00  0.00    +0.000 A 
ATOM      6  C   UNL     1      43.582   4.554  12.843  0.00  0.00    +0.000 A 
ATOM      7  C   UNL     1      43.632   3.912  11.607  0.00  0.00    +0.000 A 
ATOM      8  F   UNL     1      42.666   3.019  11.336  0.00  0.00    +0.000 F 
ATOM      9  C   UNL     1      44.659   4.154  10.681  0.00  0.00    +0.000 A 
ATOM     10  C   UNL     1      45.638   5.090  11.067  0.00  0.00    +0.000 A 
BRANCH   9  11
ATOM     11  N   UNL     1      44.719   3.566   9.429  0.00  0.00    +0.000 N 
ATOM     12  C   UNL     1      44.651   2.111   9.229  0.00  0.00    +0.000 C 
ATOM     13  C   UNL     1      45.928   1.597   8.551  0.00  0.00    +0.000 C 
ATOM     14  O   UNL     1      46.205   2.317   7.335  0.00  0.00    +0.000 OA
ATOM     15  C   UNL     1      46.379   3.715   7.619  0.00  0.00    +0.000 C 
ATOM     16  C   UNL     1      45.113   4.333   8.241  0.00  0.00    +0.000 C 
ENDBRANCH   9  11
ENDBRANCH   1   4
BRANCH   1  17
ATOM     17  N   UNL     1      47.890   6.414  13.078  0.00  0.00    +0.000 N 
ATOM     18  H   UNL     1      48.455   5.889  12.421  0.00  0.00    +0.000 HD
BRANCH  17  22
ATOM     19  C   UNL     1      48.052   4.990  16.944  0.00  0.00    +0.000 A 
ATOM     20  C   UNL     1      47.492   4.228  15.935  0.00  0.00    +0.000 A 
ATOM     21  N   UNL     1      47.434   4.655  14.649  0.00  0.00    +0.000 NA
ATOM     22  C   UNL     1      47.963   5.871  14.380  0.00  0.00    +0.000 A 
ATOM     23  C   UNL     1      48.526   6.626  15.418  0.00  0.00    +0.000 A 
ATOM     24  N   UNL     1      48.594   6.219  16.716  0.00  0.00    +0.000 NA
BRANCH  19  26
ATOM     25  N   UNL     1      47.376   5.226  19.257  0.00  0.00    +0.000 N 
ATOM     26  C   UNL     1      48.050   4.471  18.339  0.00  0.00    +0.000 C 
ATOM     27  O   UNL     1      48.607   3.427  18.649  0.00  0.00    +0.000 OA
ATOM     28  H   UNL     1      47.309   4.902  20.212  0.00  0.00    +0.000 HD
ATOM     29  H   UNL     1      46.896   6.071  18.968  0.00  0.00    +0.000 HD
ENDBRANCH  19  26
ENDBRANCH  17  22
ENDBRANCH   1  17
TORSDOF 5
ENDMDL
MODEL 5
REMARK VINA RESULT:    -6.609      3.695      7.473
REMARK INTER + INTRA:          -9.101
REMARK INTER:                  -8.844
REMARK INTRA:                  -0.257
REMARK UNBOUND:                -0.561
REMARK  Name = 
REMARK  5 active torsions:
REMARK  status: ('A' for Active; 'I' for Inactive)
REMARK    1  A    between atoms: C_2  and  C_4
REMARK    2  A    between atoms: C_7  and  N_8
REMARK    3  A    between atoms: N_8  and  C_9
REMARK    4  A    between atoms: C_9  and  C_10
REMARK    5  A    between atoms: C_15  and  N_16
REMARK                            x       y       z     vdW  Elec       q    Type
REMARK                         _______ _______ _______ _____ _____    ______ ____
ROOT
ATOM      1  C   UNL     1      48.605   7.792  12.806  0.00  0.00    +0.000 C 
ATOM      2  C   UNL     1      49.501   6.883  11.986  0.00  0.00    +0.000 C 
ATOM      3  C   UNL     1      49.661   8.363  11.872  0.00  0.00    +0.000 C 
ENDROOT
BRANCH   1   4
ATOM      4  C   UNL     1      47.142   7.991  12.416  0.00  0.00    +0.000 A 
ATOM      5  C   UNL     1      46.557   9.264  12.390  0.00  0.00    +0.000 A 
ATOM      6  C   UNL     1      45.268   9.452  11.898  0.00  0.00    +0.000 A 
ATOM      7  C   UNL     1      44.545   8.364  11.415  0.00  0.00    +0.000 A 
ATOM      8  F   UNL     1      43.305   8.601  10.954  0.00  0.00    +0.000 F 
ATOM      9  C   UNL     1      45.062   7.058  11.428  0.00  0.00    +0.000 A 
ATOM     10  C   UNL     1      46.360   6.908  11.952  0.00  0.00    +0.000 A 
BRANCH   9  11
ATOM     11  N   UNL     1      44.389   5.961  10.920  0.00  0.00    +0.000 N 
ATOM     12  C   UNL     1      43.028   5.595  11.342  0.00  0.00    +0.000 C 
ATOM     13  C   UNL     1      43.013   4.195  11.971  0.00  0.00    +0.000 C 
ATOM     14  O   UNL     1      43.609   3.219  11.097  0.00  0.00    +0.000 OA
ATOM     15  C   UNL     1      44.975   3.573  10.821  0.00  0.00    +0.000 C 
ATOM     16  C   UNL     1      45.080   4.940  10.122  0.00  0.00    +0.000 C 
ENDBRANCH   9  11
ENDBRANCH   1   4
BRANCH   1  17
ATOM     17  N   UNL     1      48.810   7.883  14.270  0.00  0.00    +0.000 N 
ATOM     18  H   UNL     1      49.652   8.352  14.583  0.00  0.00    +0.000 HD
BRANCH  17  22
ATOM     19  C   UNL     1      47.857   4.733  16.754  0.00  0.00    +0.000 A 
ATOM     20  C   UNL     1      47.535   4.693  15.410  0.00  0.00    +0.000 A 
ATOM     21  N   UNL     1      47.845   5.703  14.558  0.00  0.00    +0.000 NA
ATOM     22  C   UNL     1      48.503   6.765  15.077  0.00  0.00    +0.000 A 
ATOM     23  C   UNL     1      48.820   6.784  16.442  0.00  0.00    +0.000 A 
ATOM     24  N   UNL     1      48.518   5.784  17.316  0.00  0.00    +0.000 NA
BRANCH  19  26
ATOM     25  N   UNL     1      48.235   3.400  18.740  0.00  0.00    +0.000 N 
ATOM     26  C   UNL     1      47.455   3.604  17.636  0.00  0.00    +0.000 C 
ATOM     27  O   UNL     1      46.479   2.905  17.400  0.00  0.00    +0.000 OA
ATOM     28  H   UNL     1      47.986   2.672  19.394  0.00  0.00    +0.000 HD
ATOM     29  H   UNL     1      49.020   4.014  18.929  0.00  0.00    +0.000 HD
ENDBRANCH  19  26
ENDBRANCH  17  22
ENDBRANCH   1  17
TORSDOF 5
ENDMDL
MODEL 6
REMARK VINA RESULT:    -6.452      3.810      5.856
REMARK INTER + INTRA:          -8.898
REMARK INTER:                  -8.630
REMARK INTRA:                  -0.269
REMARK UNBOUND:                -0.561
REMARK  Name = 
REMARK  5 active torsions:
REMARK  status: ('A' for Active; 'I' for Inactive)
REMARK    1  A    between atoms: C_2  and  C_4
REMARK    2  A    between atoms: C_7  and  N_8
REMARK    3  A    between atoms: N_8  and  C_9
REMARK    4  A    between atoms: C_9  and  C_10
REMARK    5  A    between atoms: C_15  and  N_16
REMARK                            x       y       z     vdW  Elec       q    Type
REMARK                         _______ _______ _______ _____ _____    ______ ____
ROOT
ATOM      1  C   UNL     1      47.866   7.662  13.265  0.00  0.00    +0.000 C 
ATOM      2  C   UNL     1      48.305   8.607  12.162  0.00  0.00    +0.000 C 
ATOM      3  C   UNL     1      48.568   7.146  12.018  0.00  0.00    +0.000 C 
ENDROOT
BRANCH   1   4
ATOM      4  C   UNL     1      48.637   7.600  14.581  0.00  0.00    +0.000 A 
ATOM      5  C   UNL     1      49.368   8.697  15.056  0.00  0.00    +0.000 A 
ATOM      6  C   UNL     1      49.949   8.680  16.321  0.00  0.00    +0.000 A 
ATOM      7  C   UNL     1      49.800   7.561  17.138  0.00  0.00    +0.000 A 
ATOM      8  F   UNL     1      50.383   7.597  18.348  0.00  0.00    +0.000 F 
ATOM      9  C   UNL     1      49.097   6.420  16.719  0.00  0.00    +0.000 A 
ATOM     10  C   UNL     1      48.542   6.469  15.426  0.00  0.00    +0.000 A 
BRANCH   9  11
ATOM     11  N   UNL     1      48.894   5.308  17.518  0.00  0.00    +0.000 N 
ATOM     12  C   UNL     1      49.943   4.311  17.778  0.00  0.00    +0.000 C 
ATOM     13  C   UNL     1      49.513   2.927  17.275  0.00  0.00    +0.000 C 
ATOM     14  O   UNL     1      48.234   2.545  17.815  0.00  0.00    +0.000 OA
ATOM     15  C   UNL     1      47.231   3.497  17.423  0.00  0.00    +0.000 C 
ATOM     16  C   UNL     1      47.548   4.909  17.947  0.00  0.00    +0.000 C 
ENDBRANCH   9  11
ENDBRANCH   1   4
BRANCH   1  17
ATOM     17  N   UNL     1      46.423   7.383  13.449  0.00  0.00    +0.000 N 
ATOM     18  H   UNL     1      46.047   7.525  14.379  0.00  0.00    +0.000 HD
BRANCH  17  22
ATOM     19  C   UNL     1      44.690   4.036  11.779  0.00  0.00    +0.000 A 
ATOM     20  C   UNL     1      44.734   5.229  11.082  0.00  0.00    +0.000 A 
ATOM     21  N   UNL     1      45.308   6.347  11.591  0.00  0.00    +0.000 NA
ATOM     22  C   UNL     1      45.858   6.250  12.824  0.00  0.00    +0.000 A 
ATOM     23  C   UNL     1      45.803   5.030  13.512  0.00  0.00    +0.000 A 
ATOM     24  N   UNL     1      45.230   3.896  13.022  0.00  0.00    +0.000 NA
BRANCH  19  26
ATOM     25  N   UNL     1      44.615   2.325  10.067  0.00  0.00    +0.000 N 
ATOM     26  C   UNL     1      44.013   2.858  11.172  0.00  0.00    +0.000 C 
ATOM     27  O   UNL     1      42.986   2.383  11.636  0.00  0.00    +0.000 OA
ATOM     28  H   UNL     1      44.221   1.501   9.636  0.00  0.00    +0.000 HD
ATOM     29  H   UNL     1      45.484   2.718   9.721  0.00  0.00    +0.000 HD
ENDBRANCH  19  26
ENDBRANCH  17  22
ENDBRANCH   1  17
TORSDOF 5
ENDMDL
MODEL 7
REMARK VINA RESULT:    -5.918      3.925      6.267
REMARK INTER + INTRA:          -8.209
REMARK INTER:                  -7.662
REMARK INTRA:                  -0.547
REMARK UNBOUND:                -0.561
REMARK  Name = 
REMARK  5 active torsions:
REMARK  status: ('A' for Active; 'I' for Inactive)
REMARK    1  A    between atoms: C_2  and  C_4
REMARK    2  A    between atoms: C_7  and  N_8
REMARK    3  A    between atoms: N_8  and  C_9
REMARK    4  A    between atoms: C_9  and  C_10
REMARK    5  A    between atoms: C_15  and  N_16
REMARK                            x       y       z     vdW  Elec       q    Type
REMARK                         _______ _______ _______ _____ _____    ______ ____
ROOT
ATOM      1  C   UNL     1      48.445   8.148  12.912  0.00  0.00    +0.000 C 
ATOM      2  C   UNL     1      47.777   9.312  12.204  0.00  0.00    +0.000 C 
ATOM      3  C   UNL     1      49.258   9.154  12.113  0.00  0.00    +0.000 C 
ENDROOT
BRANCH   1   4
ATOM      4  C   UNL     1      48.610   8.160  14.430  0.00  0.00    +0.000 A 
ATOM      5  C   UNL     1      48.270   9.283  15.196  0.00  0.00    +0.000 A 
ATOM      6  C   UNL     1      48.289   9.235  16.587  0.00  0.00    +0.000 A 
ATOM      7  C   UNL     1      48.644   8.055  17.236  0.00  0.00    +0.000 A 
ATOM      8  F   UNL     1      48.648   8.066  18.580  0.00  0.00    +0.000 F 
ATOM      9  C   UNL     1      49.014   6.898  16.532  0.00  0.00    +0.000 A 
ATOM     10  C   UNL     1      49.001   6.993  15.127  0.00  0.00    +0.000 A 
BRANCH   9  11
ATOM     11  N   UNL     1      49.333   5.697  17.142  0.00  0.00    +0.000 N 
ATOM     12  C   UNL     1      48.550   4.469  16.941  0.00  0.00    +0.000 C 
ATOM     13  C   UNL     1      47.971   3.970  18.272  0.00  0.00    +0.000 C 
ATOM     14  O   UNL     1      48.998   3.821  19.270  0.00  0.00    +0.000 OA
ATOM     15  C   UNL     1      49.643   5.085  19.505  0.00  0.00    +0.000 C 
ATOM     16  C   UNL     1      50.315   5.629  18.232  0.00  0.00    +0.000 C 
ENDBRANCH   9  11
ENDBRANCH   1   4
BRANCH   1  17
ATOM     17  N   UNL     1      48.266   6.777  12.381  0.00  0.00    +0.000 N 
ATOM     18  H   UNL     1      48.906   6.484  11.652  0.00  0.00    +0.000 HD
BRANCH  17  22
ATOM     19  C   UNL     1      44.390   5.473  11.849  0.00  0.00    +0.000 A 
ATOM     20  C   UNL     1      45.194   5.761  10.761  0.00  0.00    +0.000 A 
ATOM     21  N   UNL     1      46.477   6.177  10.895  0.00  0.00    +0.000 NA
ATOM     22  C   UNL     1      46.959   6.293  12.154  0.00  0.00    +0.000 A 
ATOM     23  C   UNL     1      46.128   5.995  13.243  0.00  0.00    +0.000 A 
ATOM     24  N   UNL     1      44.837   5.578  13.133  0.00  0.00    +0.000 NA
BRANCH  19  26
ATOM     25  N   UNL     1      42.035   6.029  11.777  0.00  0.00    +0.000 N 
ATOM     26  C   UNL     1      42.981   5.054  11.628  0.00  0.00    +0.000 C 
ATOM     27  O   UNL     1      42.680   3.909  11.319  0.00  0.00    +0.000 OA
ATOM     28  H   UNL     1      41.065   5.811  11.601  0.00  0.00    +0.000 HD
ATOM     29  H   UNL     1      42.314   6.979  12.003  0.00  0.00    +0.000 HD
ENDBRANCH  19  26
ENDBRANCH  17  22
ENDBRANCH   1  17
TORSDOF 5
ENDMDL
MODEL 8
REMARK VINA RESULT:    -5.860      3.157      5.340
REMARK INTER + INTRA:          -8.134
REMARK INTER:                  -7.366
REMARK INTRA:                  -0.768
REMARK UNBOUND:                -0.561
REMARK  Name = 
REMARK  5 active torsions:
REMARK  status: ('A' for Active; 'I' for Inactive)
REMARK    1  A    between atoms: C_2  and  C_4
REMARK    2  A    between atoms: C_7  and  N_8
REMARK    3  A    between atoms: N_8  and  C_9
REMARK    4  A    between atoms: C_9  and  C_10
REMARK    5  A    between atoms: C_15  and  N_16
REMARK                            x       y       z     vdW  Elec       q    Type
REMARK                         _______ _______ _______ _____ _____    ______ ____
ROOT
ATOM      1  C   UNL     1      47.681   7.573  13.566  0.00  0.00    +0.000 C 
ATOM      2  C   UNL     1      48.182   6.294  14.211  0.00  0.00    +0.000 C 
ATOM      3  C   UNL     1      48.126   7.546  15.020  0.00  0.00    +0.000 C 
ENDROOT
BRANCH   1   4
ATOM      4  C   UNL     1      48.560   8.335  12.577  0.00  0.00    +0.000 A 
ATOM      5  C   UNL     1      48.242   9.636  12.166  0.00  0.00    +0.000 A 
ATOM      6  C   UNL     1      49.121  10.375  11.378  0.00  0.00    +0.000 A 
ATOM      7  C   UNL     1      50.341   9.822  10.994  0.00  0.00    +0.000 A 
ATOM      8  F   UNL     1      51.149  10.578  10.232  0.00  0.00    +0.000 F 
ATOM      9  C   UNL     1      50.716   8.518  11.355  0.00  0.00    +0.000 A 
ATOM     10  C   UNL     1      49.791   7.797  12.135  0.00  0.00    +0.000 A 
BRANCH   9  11
ATOM     11  N   UNL     1      51.935   7.951  11.027  0.00  0.00    +0.000 N 
ATOM     12  C   UNL     1      53.195   8.338  11.678  0.00  0.00    +0.000 C 
ATOM     13  C   UNL     1      54.186   8.902  10.651  0.00  0.00    +0.000 C 
ATOM     14  O   UNL     1      54.381   7.992   9.553  0.00  0.00    +0.000 OA
ATOM     15  C   UNL     1      53.131   7.750   8.886  0.00  0.00    +0.000 C 
ATOM     16  C   UNL     1      52.093   7.116   9.829  0.00  0.00    +0.000 C 
ENDBRANCH   9  11
ENDBRANCH   1   4
BRANCH   1  17
ATOM     17  N   UNL     1      46.240   7.711  13.254  0.00  0.00    +0.000 N 
ATOM     18  H   UNL     1      45.663   8.158  13.957  0.00  0.00    +0.000 HD
BRANCH  17  22
ATOM     19  C   UNL     1      44.432   4.521  11.367  0.00  0.00    +0.000 A 
ATOM     20  C   UNL     1      44.086   4.864  12.662  0.00  0.00    +0.000 A 
ATOM     21  N   UNL     1      44.646   5.915  13.310  0.00  0.00    +0.000 NA
ATOM     22  C   UNL     1      45.566   6.638  12.630  0.00  0.00    +0.000 A 
ATOM     23  C   UNL     1      45.902   6.274  11.319  0.00  0.00    +0.000 A 
ATOM     24  N   UNL     1      45.354   5.223  10.649  0.00  0.00    +0.000 NA
BRANCH  19  26
ATOM     25  N   UNL     1      44.124   3.114   9.421  0.00  0.00    +0.000 N 
ATOM     26  C   UNL     1      43.800   3.335  10.730  0.00  0.00    +0.000 C 
ATOM     27  O   UNL     1      43.045   2.590  11.340  0.00  0.00    +0.000 OA
ATOM     28  H   UNL     1      43.755   2.302   8.949  0.00  0.00    +0.000 HD
ATOM     29  H   UNL     1      44.778   3.729   8.948  0.00  0.00    +0.000 HD
ENDBRANCH  19  26
ENDBRANCH  17  22
ENDBRANCH   1  17
TORSDOF 5
ENDMDL
