MODEL 1
REMARK VINA RESULT:    -8.205      0.000      0.000
REMARK INTER + INTRA:         -12.027
REMARK INTER:                 -11.083
REMARK INTRA:                  -0.944
REMARK UNBOUND:                -0.944
REMARK  Name = 
REMARK  6 active torsions:
REMARK  status: ('A' for Active; 'I' for Inactive)
REMARK    1  A    between atoms: C_2  and  C_25
REMARK    2  A    between atoms: N_3  and  C_4
REMARK    3  A    between atoms: C_4  and  C_5
REMARK    4  A    between atoms: C_8  and  C_9
REMARK    5  A    between atoms: C_9  and  N_10
REMARK    6  A    between atoms: C_11  and  C_13
REMARK                            x       y       z     vdW  Elec       q    Type
REMARK                         _______ _______ _______ _____ _____    ______ ____
ROOT
ATOM      1  C   UNL     1      44.753   5.933  11.195  0.00  0.00    +0.000 A 
ATOM      2  C   UNL     1      44.446   7.281  11.374  0.00  0.00    +0.000 A 
ATOM      3  C   UNL     1      45.273   8.074  12.175  0.00  0.00    +0.000 A 
ATOM      4  C   UNL     1      46.385   7.512  12.802  0.00  0.00    +0.000 A 
ATOM      5  C   UNL     1      46.613   6.158  12.569  0.00  0.00    +0.000 A 
ATOM      6  N   UNL     1      45.831   5.361  11.793  0.00  0.00    +0.000 NA
ENDROOT
BRANCH   1   7
ATOM      7  C   UNL     1      43.902   5.071  10.278  0.00  0.00    +0.000 C 
BRANCH   7  10
ATOM      8  O   UNL     1      44.864   2.451  10.086  0.00  0.00    +0.000 OA
ATOM      9  C   UNL     1      45.059   3.217   9.140  0.00  0.00    +0.000 C 
ATOM     10  N   UNL     1      44.615   4.520   9.138  0.00  0.00    +0.000 N 
ATOM     11  H   UNL     1      44.825   5.110   8.338  0.00  0.00    +0.000 HD
BRANCH   9  12
ATOM     12  C   UNL     1      45.825   2.746   7.954  0.00  0.00    +0.000 A 
ATOM     13  C   UNL     1      46.404   1.484   8.007  0.00  0.00    +0.000 A 
ATOM     14  N   UNL     1      47.250   1.024   7.052  0.00  0.00    +0.000 NA
ATOM     15  C   UNL     1      47.472   1.875   6.027  0.00  0.00    +0.000 A 
ATOM     16  C   UNL     1      46.837   3.108   5.935  0.00  0.00    +0.000 A 
ATOM     17  N   UNL     1      46.004   3.588   6.896  0.00  0.00    +0.000 NA
ENDBRANCH   9  12
ENDBRANCH   7  10
ENDBRANCH   1   7
BRANCH   4  18
ATOM     18  C   UNL     1      47.293   8.318  13.692  0.00  0.00    +0.000 C 
BRANCH  18  19
ATOM     19  N   UNL     1      47.716   7.590  14.866  0.00  0.00    +0.000 N 
ATOM     20  C   UNL     1      48.960   7.002  14.946  0.00  0.00    +0.000 C 
ATOM     21  O   UNL     1      49.762   7.041  14.017  0.00  0.00    +0.000 OA
ATOM     22  H   UNL     1      47.065   7.526  15.643  0.00  0.00    +0.000 HD
BRANCH  20  23
ATOM     23  C   UNL     1      49.277   6.332  16.202  0.00  0.00    +0.000 A 
ATOM     24  C   UNL     1      50.289   6.738  17.053  0.00  0.00    +0.000 A 
ATOM     25  O   UNL     1      50.389   5.925  18.139  0.00  0.00    +0.000 OA
ATOM     26  C   UNL     1      49.429   4.967  18.013  0.00  0.00    +0.000 A 
ATOM     27  N   UNL     1      49.248   3.962  18.903  0.00  0.00    +0.000 NA
ATOM     28  C   UNL     1      48.295   3.149  18.575  0.00  0.00    +0.000 A 
ATOM     29  N   UNL     1      47.515   3.259  17.448  0.00  0.00    +0.000 N 
ATOM     30  C   UNL     1      47.656   4.285  16.539  0.00  0.00    +0.000 A 
ATOM     31  O   UNL     1      46.923   4.390  15.557  0.00  0.00    +0.000 OA
ATOM     32  C   UNL     1      48.720   5.192  16.847  0.00  0.00    +0.000 A 
ATOM     33  H   UNL     1      46.784   2.594  17.255  0.00  0.00    +0.000 HD
ENDBRANCH  20  23
ENDBRANCH  18  19
ENDBRANCH   4  18
TORSDOF 6
ENDMDL
MODEL 2
REMARK VINA RESULT:    -7.823      1.839      9.011
REMARK INTER + INTRA:         -11.510
REMARK INTER:                 -10.618
REMARK INTRA:                  -0.892
REMARK UNBOUND:                -0.944
REMARK  Name = 
REMARK  6 active torsions:
REMARK  status: ('A' for Active; 'I' for Inactive)
REMARK    1  A    between atoms: C_2  and  C_25
REMARK    2  A    between atoms: N_3  and  C_4
REMARK    3  A    between atoms: C_4  and  C_5
REMARK    4  A    between atoms: C_8  and  C_9
REMARK    5  A    between atoms: C_9  and  N_10
REMARK    6  A    between atoms: C_11  and  C_13
REMARK                            x       y       z     vdW  Elec       q    Type
REMARK                         _______ _______ _______ _____ _____    ______ ____
ROOT
ATOM      1  C   UNL     1      48.042   7.232  14.332  0.00  0.00    +0.000 A 
ATOM      2  C   UNL     1      47.498   8.318  13.648  0.00  0.00    +0.000 A 
ATOM      3  C   UNL     1      46.599   8.093  12.602  0.00  0.00    +0.000 A 
ATOM      4  C   UNL     1      46.265   6.788  12.237  0.00  0.00    +0.000 A 
ATOM      5  C   UNL     1      46.857   5.766  12.973  0.00  0.00    +0.000 A 
ATOM      6  N   UNL     1      47.732   5.952  13.997  0.00  0.00    +0.000 NA
ENDROOT
BRANCH   1   7
ATOM      7  C   UNL     1      48.971   7.459  15.512  0.00  0.00    +0.000 C 
BRANCH   7  10
ATOM      8  O   UNL     1      48.370   5.795  17.680  0.00  0.00    +0.000 OA
ATOM      9  C   UNL     1      49.365   5.536  17.001  0.00  0.00    +0.000 C 
ATOM     10  N   UNL     1      49.735   6.289  15.910  0.00  0.00    +0.000 N 
ATOM     11  H   UNL     1      50.579   6.039  15.402  0.00  0.00    +0.000 HD
BRANCH   9  12
ATOM     12  C   UNL     1      50.232   4.384  17.372  0.00  0.00    +0.000 A 
ATOM     13  C   UNL     1      51.466   4.651  17.952  0.00  0.00    +0.000 A 
ATOM     14  N   UNL     1      52.393   3.689  18.182  0.00  0.00    +0.000 NA
ATOM     15  C   UNL     1      52.020   2.440  17.826  0.00  0.00    +0.000 A 
ATOM     16  C   UNL     1      50.760   2.159  17.313  0.00  0.00    +0.000 A 
ATOM     17  N   UNL     1      49.830   3.118  17.060  0.00  0.00    +0.000 NA
ENDBRANCH   9  12
ENDBRANCH   7  10
ENDBRANCH   1   7
BRANCH   4  18
ATOM     18  C   UNL     1      45.321   6.493  11.103  0.00  0.00    +0.000 C 
BRANCH  18  19
ATOM     19  N   UNL     1      45.617   5.247  10.438  0.00  0.00    +0.000 N 
ATOM     20  C   UNL     1      44.621   4.436   9.937  0.00  0.00    +0.000 C 
ATOM     21  O   UNL     1      43.431   4.715  10.054  0.00  0.00    +0.000 OA
ATOM     22  H   UNL     1      46.593   4.981  10.344  0.00  0.00    +0.000 HD
BRANCH  20  23
ATOM     23  C   UNL     1      45.059   3.224   9.253  0.00  0.00    +0.000 A 
ATOM     24  C   UNL     1      44.554   1.965   9.525  0.00  0.00    +0.000 A 
ATOM     25  O   UNL     1      45.152   1.009   8.765  0.00  0.00    +0.000 OA
ATOM     26  C   UNL     1      46.065   1.637   7.974  0.00  0.00    +0.000 A 
ATOM     27  N   UNL     1      46.873   0.992   7.099  0.00  0.00    +0.000 NA
ATOM     28  C   UNL     1      47.681   1.780   6.467  0.00  0.00    +0.000 A 
ATOM     29  N   UNL     1      47.744   3.144   6.630  0.00  0.00    +0.000 N 
ATOM     30  C   UNL     1      46.917   3.832   7.491  0.00  0.00    +0.000 A 
ATOM     31  O   UNL     1      46.960   5.057   7.594  0.00  0.00    +0.000 OA
ATOM     32  C   UNL     1      46.025   2.995   8.235  0.00  0.00    +0.000 A 
ATOM     33  H   UNL     1      48.395   3.701   6.100  0.00  0.00    +0.000 HD
ENDBRANCH  20  23
ENDBRANCH  18  19
ENDBRANCH   4  18
TORSDOF 6
ENDMDL
MODEL 3
REMARK VINA RESULT:    -7.819      1.747      9.566
REMARK INTER + INTRA:         -11.505
REMARK INTER:                 -10.554
REMARK INTRA:                  -0.951
REMARK UNBOUND:                -0.944
REMARK  Name = 
REMARK  6 active torsions:
REMARK  status: ('A' for Active; 'I' for Inactive)
REMARK    1  A    between atoms: C_2  and  C_25
REMARK    2  A    between atoms: N_3  and  C_4
REMARK    3  A    between atoms: C_4  and  C_5
REMARK    4  A    between atoms: C_8  and  C_9
REMARK    5  A    between atoms: C_9  and  N_10
REMARK    6  A    between atoms: C_11  and  C_13
REMARK                            x       y       z     vdW  Elec       q    Type
REMARK                         _______ _______ _______ _____ _____    ______ ____
ROOT
ATOM      1  C   UNL     1      48.172   7.287  14.236  0.00  0.00    +0.000 A 
ATOM      2  C   UNL     1      47.531   8.340  13.584  0.00  0.00    +0.000 A 
ATOM      3  C   UNL     1      46.572   8.062  12.605  0.00  0.00    +0.000 A 
ATOM      4  C   UNL     1      46.275   6.739  12.276  0.00  0.00    +0.000 A 
ATOM      5  C   UNL     1      46.965   5.753  12.976  0.00  0.00    +0.000 A 
ATOM      6  N   UNL     1      47.900   5.991  13.935  0.00  0.00    +0.000 NA
ENDROOT
BRANCH   1   7
ATOM      7  C   UNL     1      49.170   7.571  15.346  0.00  0.00    +0.000 C 
BRANCH   7  10
ATOM      8  O   UNL     1      50.255   5.442  16.802  0.00  0.00    +0.000 OA
ATOM      9  C   UNL     1      49.327   6.081  17.302  0.00  0.00    +0.000 C 
ATOM     10  N   UNL     1      48.736   7.150  16.667  0.00  0.00    +0.000 N 
ATOM     11  H   UNL     1      47.960   7.624  17.120  0.00  0.00    +0.000 HD
BRANCH   9  12
ATOM     12  C   UNL     1      48.789   5.683  18.632  0.00  0.00    +0.000 A 
ATOM     13  C   UNL     1      47.840   6.504  19.228  0.00  0.00    +0.000 A 
ATOM     14  N   UNL     1      47.404   6.319  20.498  0.00  0.00    +0.000 NA
ATOM     15  C   UNL     1      47.944   5.260  21.139  0.00  0.00    +0.000 A 
ATOM     16  C   UNL     1      48.838   4.394  20.521  0.00  0.00    +0.000 A 
ATOM     17  N   UNL     1      49.297   4.581  19.255  0.00  0.00    +0.000 NA
ENDBRANCH   9  12
ENDBRANCH   7  10
ENDBRANCH   1   7
BRANCH   4  18
ATOM     18  C   UNL     1      45.268   6.387  11.214  0.00  0.00    +0.000 C 
BRANCH  18  19
ATOM     19  N   UNL     1      45.585   5.157  10.528  0.00  0.00    +0.000 N 
ATOM     20  C   UNL     1      44.611   4.393   9.921  0.00  0.00    +0.000 C 
ATOM     21  O   UNL     1      43.423   4.700   9.955  0.00  0.00    +0.000 OA
ATOM     22  H   UNL     1      46.558   4.867  10.501  0.00  0.00    +0.000 HD
BRANCH  20  23
ATOM     23  C   UNL     1      45.070   3.193   9.229  0.00  0.00    +0.000 A 
ATOM     24  C   UNL     1      44.577   1.926   9.481  0.00  0.00    +0.000 A 
ATOM     25  O   UNL     1      45.194   0.985   8.718  0.00  0.00    +0.000 OA
ATOM     26  C   UNL     1      46.109   1.633   7.944  0.00  0.00    +0.000 A 
ATOM     27  N   UNL     1      46.935   1.006   7.072  0.00  0.00    +0.000 NA
ATOM     28  C   UNL     1      47.741   1.811   6.458  0.00  0.00    +0.000 A 
ATOM     29  N   UNL     1      47.787   3.173   6.637  0.00  0.00    +0.000 N 
ATOM     30  C   UNL     1      46.942   3.843   7.495  0.00  0.00    +0.000 A 
ATOM     31  O   UNL     1      46.970   5.066   7.613  0.00  0.00    +0.000 OA
ATOM     32  C   UNL     1      46.051   2.987   8.219  0.00  0.00    +0.000 A 
ATOM     33  H   UNL     1      48.437   3.744   6.121  0.00  0.00    +0.000 HD
ENDBRANCH  20  23
ENDBRANCH  18  19
ENDBRANCH   4  18
TORSDOF 6
ENDMDL
MODEL 4
REMARK VINA RESULT:    -7.450      1.608      2.090
REMARK INTER + INTRA:         -11.006
REMARK INTER:                  -9.991
REMARK INTRA:                  -1.015
REMARK UNBOUND:                -0.944
REMARK  Name = 
REMARK  6 active torsions:
REMARK  status: ('A' for Active; 'I' for Inactive)
REMARK    1  A    between atoms: C_2  and  C_25
REMARK    2  A    between atoms: N_3  and  C_4
REMARK    3  A    between atoms: C_4  and  C_5
REMARK    4  A    between atoms: C_8  and  C_9
REMARK    5  A    between atoms: C_9  and  N_10
REMARK    6  A    between atoms: C_11  and  C_13
REMARK                            x       y       z     vdW  Elec       q    Type
REMARK                         _______ _______ _______ _____ _____    ______ ____
ROOT
ATOM      1  C   UNL     1      45.537   5.912  11.446  0.00  0.00    +0.000 A 
ATOM      2  C   UNL     1      46.142   5.085  12.391  0.00  0.00    +0.000 A 
ATOM      3  C   UNL     1      46.995   5.643  13.349  0.00  0.00    +0.000 A 
ATOM      4  C   UNL     1      47.249   7.015  13.342  0.00  0.00    +0.000 A 
ATOM      5  C   UNL     1      46.605   7.763  12.361  0.00  0.00    +0.000 A 
ATOM      6  N   UNL     1      45.767   7.251  11.419  0.00  0.00    +0.000 NA
ENDROOT
BRANCH   1   7
ATOM      7  C   UNL     1      44.558   5.334  10.439  0.00  0.00    +0.000 C 
BRANCH   7  10
ATOM      8  O   UNL     1      44.770   2.590   9.936  0.00  0.00    +0.000 OA
ATOM      9  C   UNL     1      45.244   3.374   9.112  0.00  0.00    +0.000 C 
ATOM     10  N   UNL     1      45.180   4.740   9.267  0.00  0.00    +0.000 N 
ATOM     11  H   UNL     1      45.609   5.336   8.566  0.00  0.00    +0.000 HD
BRANCH   9  12
ATOM     12  C   UNL     1      45.943   2.846   7.909  0.00  0.00    +0.000 A 
ATOM     13  C   UNL     1      46.427   1.544   7.950  0.00  0.00    +0.000 A 
ATOM     14  N   UNL     1      47.211   1.022   6.974  0.00  0.00    +0.000 NA
ATOM     15  C   UNL     1      47.471   1.855   5.943  0.00  0.00    +0.000 A 
ATOM     16  C   UNL     1      46.929   3.132   5.864  0.00  0.00    +0.000 A 
ATOM     17  N   UNL     1      46.158   3.673   6.845  0.00  0.00    +0.000 NA
ENDBRANCH   9  12
ENDBRANCH   7  10
ENDBRANCH   1   7
BRANCH   4  18
ATOM     18  C   UNL     1      48.178   7.659  14.336  0.00  0.00    +0.000 C 
BRANCH  18  19
ATOM     19  N   UNL     1      48.267   6.924  15.576  0.00  0.00    +0.000 N 
ATOM     20  C   UNL     1      49.473   6.468  16.064  0.00  0.00    +0.000 C 
ATOM     21  O   UNL     1      50.529   6.636  15.460  0.00  0.00    +0.000 OA
ATOM     22  H   UNL     1      47.407   6.754  16.088  0.00  0.00    +0.000 HD
BRANCH  20  23
ATOM     23  C   UNL     1      49.429   5.775  17.347  0.00  0.00    +0.000 A 
ATOM     24  C   UNL     1      50.069   4.573  17.592  0.00  0.00    +0.000 A 
ATOM     25  O   UNL     1      49.844   4.132  18.858  0.00  0.00    +0.000 OA
ATOM     26  C   UNL     1      49.047   5.053  19.468  0.00  0.00    +0.000 A 
ATOM     27  N   UNL     1      48.593   4.931  20.739  0.00  0.00    +0.000 NA
ATOM     28  C   UNL     1      47.830   5.909  21.109  0.00  0.00    +0.000 A 
ATOM     29  N   UNL     1      47.492   6.987  20.326  0.00  0.00    +0.000 N 
ATOM     30  C   UNL     1      47.959   7.154  19.040  0.00  0.00    +0.000 A 
ATOM     31  O   UNL     1      47.678   8.145  18.369  0.00  0.00    +0.000 OA
ATOM     32  C   UNL     1      48.784   6.079  18.578  0.00  0.00    +0.000 A 
ATOM     33  H   UNL     1      46.896   7.719  20.679  0.00  0.00    +0.000 HD
ENDBRANCH  20  23
ENDBRANCH  18  19
ENDBRANCH   4  18
TORSDOF 6
ENDMDL
MODEL 5
REMARK VINA RESULT:    -7.308      3.000      8.896
REMARK INTER + INTRA:         -10.815
REMARK INTER:                 -10.090
REMARK INTRA:                  -0.725
REMARK UNBOUND:                -0.944
REMARK  Name = 
REMARK  6 active torsions:
REMARK  status: ('A' for Active; 'I' for Inactive)
REMARK    1  A    between atoms: C_2  and  C_25
REMARK    2  A    between atoms: N_3  and  C_4
REMARK    3  A    between atoms: C_4  and  C_5
REMARK    4  A    between atoms: C_8  and  C_9
REMARK    5  A    between atoms: C_9  and  N_10
REMARK    6  A    between atoms: C_11  and  C_13
REMARK                            x       y       z     vdW  Elec       q    Type
REMARK                         _______ _______ _______ _____ _____    ______ ____
ROOT
ATOM      1  C   UNL     1      48.279   4.197  16.917  0.00  0.00    +0.000 A 
ATOM      2  C   UNL     1      48.920   5.434  16.870  0.00  0.00    +0.000 A 
ATOM      3  C   UNL     1      48.653   6.308  15.812  0.00  0.00    +0.000 A 
ATOM      4  C   UNL     1      47.763   5.933  14.805  0.00  0.00    +0.000 A 
ATOM      5  C   UNL     1      47.171   4.680  14.932  0.00  0.00    +0.000 A 
ATOM      6  N   UNL     1      47.407   3.809  15.950  0.00  0.00    +0.000 NA
ENDROOT
BRANCH   1   7
ATOM      7  C   UNL     1      48.508   3.261  18.091  0.00  0.00    +0.000 C 
BRANCH   7  10
ATOM      8  O   UNL     1      50.118   1.713  16.406  0.00  0.00    +0.000 OA
ATOM      9  C   UNL     1      50.611   2.151  17.447  0.00  0.00    +0.000 C 
ATOM     10  N   UNL     1      49.902   2.930  18.333  0.00  0.00    +0.000 N 
ATOM     11  H   UNL     1      50.356   3.243  19.186  0.00  0.00    +0.000 HD
BRANCH   9  12
ATOM     12  C   UNL     1      52.019   1.815  17.795  0.00  0.00    +0.000 A 
ATOM     13  C   UNL     1      52.932   2.857  17.911  0.00  0.00    +0.000 A 
ATOM     14  N   UNL     1      54.263   2.652  18.068  0.00  0.00    +0.000 NA
ATOM     15  C   UNL     1      54.638   1.355  18.127  0.00  0.00    +0.000 A 
ATOM     16  C   UNL     1      53.720   0.313  18.084  0.00  0.00    +0.000 A 
ATOM     17  N   UNL     1      52.386   0.506  17.908  0.00  0.00    +0.000 NA
ENDBRANCH   9  12
ENDBRANCH   7  10
ENDBRANCH   1   7
BRANCH   4  18
ATOM     18  C   UNL     1      47.461   6.829  13.633  0.00  0.00    +0.000 C 
BRANCH  18  19
ATOM     19  N   UNL     1      47.131   6.092  12.436  0.00  0.00    +0.000 N 
ATOM     20  C   UNL     1      45.918   6.246  11.800  0.00  0.00    +0.000 C 
ATOM     21  O   UNL     1      45.045   6.994  12.229  0.00  0.00    +0.000 OA
ATOM     22  H   UNL     1      47.828   5.451  12.068  0.00  0.00    +0.000 HD
BRANCH  20  23
ATOM     23  C   UNL     1      45.728   5.472  10.578  0.00  0.00    +0.000 A 
ATOM     24  C   UNL     1      46.073   5.930   9.319  0.00  0.00    +0.000 A 
ATOM     25  O   UNL     1      45.767   5.024   8.352  0.00  0.00    +0.000 OA
ATOM     26  C   UNL     1      45.213   3.946   8.974  0.00  0.00    +0.000 A 
ATOM     27  N   UNL     1      44.758   2.851   8.319  0.00  0.00    +0.000 NA
ATOM     28  C   UNL     1      44.248   1.957   9.103  0.00  0.00    +0.000 A 
ATOM     29  N   UNL     1      44.161   2.062  10.470  0.00  0.00    +0.000 N 
ATOM     30  C   UNL     1      44.640   3.149  11.169  0.00  0.00    +0.000 A 
ATOM     31  O   UNL     1      44.590   3.208  12.396  0.00  0.00    +0.000 OA
ATOM     32  C   UNL     1      45.186   4.179  10.337  0.00  0.00    +0.000 A 
ATOM     33  H   UNL     1      43.757   1.323  11.024  0.00  0.00    +0.000 HD
ENDBRANCH  20  23
ENDBRANCH  18  19
ENDBRANCH   4  18
TORSDOF 6
ENDMDL
MODEL 6
REMARK VINA RESULT:    -7.277      4.616      9.739
REMARK INTER + INTRA:         -10.773
REMARK INTER:                 -10.094
REMARK INTRA:                  -0.678
REMARK UNBOUND:                -0.944
REMARK  Name = 
REMARK  6 active torsions:
REMARK  status: ('A' for Active; 'I' for Inactive)
REMARK    1  A    between atoms: C_2  and  C_25
REMARK    2  A    between atoms: N_3  and  C_4
REMARK    3  A    between atoms: C_4  and  C_5
REMARK    4  A    between atoms: C_8  and  C_9
REMARK    5  A    between atoms: C_9  and  N_10
REMARK    6  A    between atoms: C_11  and  C_13
REMARK                            x       y       z     vdW  Elec       q    Type
REMARK                         _______ _______ _______ _____ _____    ______ ____
ROOT
ATOM      1  C   UNL     1      51.318   2.734  17.520  0.00  0.00    +0.000 A 
ATOM      2  C   UNL     1      50.779   3.945  17.951  0.00  0.00    +0.000 A 
ATOM      3  C   UNL     1      49.417   4.197  17.767  0.00  0.00    +0.000 A 
ATOM      4  C   UNL     1      48.610   3.247  17.139  0.00  0.00    +0.000 A 
ATOM      5  C   UNL     1      49.233   2.068  16.740  0.00  0.00    +0.000 A 
ATOM      6  N   UNL     1      50.554   1.792  16.908  0.00  0.00    +0.000 NA
ENDROOT
BRANCH   1   7
ATOM      7  C   UNL     1      52.783   2.417  17.770  0.00  0.00    +0.000 C 
BRANCH   7  10
ATOM      8  O   UNL     1      55.033   0.905  17.081  0.00  0.00    +0.000 OA
ATOM      9  C   UNL     1      54.175   0.384  17.796  0.00  0.00    +0.000 C 
ATOM     10  N   UNL     1      53.039   1.052  18.196  0.00  0.00    +0.000 N 
ATOM     11  H   UNL     1      52.356   0.563  18.767  0.00  0.00    +0.000 HD
BRANCH   9  12
ATOM     12  C   UNL     1      54.337  -1.029  18.235  0.00  0.00    +0.000 A 
ATOM     13  C   UNL     1      55.037  -1.897  17.406  0.00  0.00    +0.000 A 
ATOM     14  N   UNL     1      55.107  -3.231  17.633  0.00  0.00    +0.000 NA
ATOM     15  C   UNL     1      54.464  -3.657  18.742  0.00  0.00    +0.000 A 
ATOM     16  C   UNL     1      53.824  -2.782  19.612  0.00  0.00    +0.000 A 
ATOM     17  N   UNL     1      53.731  -1.445  19.384  0.00  0.00    +0.000 NA
ENDBRANCH   9  12
ENDBRANCH   7  10
ENDBRANCH   1   7
BRANCH   4  18
ATOM     18  C   UNL     1      47.143   3.481  16.896  0.00  0.00    +0.000 C 
BRANCH  18  19
ATOM     19  N   UNL     1      46.896   4.451  15.856  0.00  0.00    +0.000 N 
ATOM     20  C   UNL     1      46.970   4.119  14.521  0.00  0.00    +0.000 C 
ATOM     21  O   UNL     1      47.276   2.992  14.143  0.00  0.00    +0.000 OA
ATOM     22  H   UNL     1      46.659   5.398  16.140  0.00  0.00    +0.000 HD
BRANCH  20  23
ATOM     23  C   UNL     1      46.658   5.184  13.573  0.00  0.00    +0.000 A 
ATOM     24  C   UNL     1      47.585   6.110  13.128  0.00  0.00    +0.000 A 
ATOM     25  O   UNL     1      47.028   7.007  12.272  0.00  0.00    +0.000 OA
ATOM     26  C   UNL     1      45.714   6.675  12.141  0.00  0.00    +0.000 A 
ATOM     27  N   UNL     1      44.834   7.370  11.381  0.00  0.00    +0.000 NA
ATOM     28  C   UNL     1      43.631   6.893  11.420  0.00  0.00    +0.000 A 
ATOM     29  N   UNL     1      43.241   5.791  12.141  0.00  0.00    +0.000 N 
ATOM     30  C   UNL     1      44.117   5.046  12.901  0.00  0.00    +0.000 A 
ATOM     31  O   UNL     1      43.758   4.039  13.509  0.00  0.00    +0.000 OA
ATOM     32  C   UNL     1      45.455   5.556  12.912  0.00  0.00    +0.000 A 
ATOM     33  H   UNL     1      42.287   5.468  12.123  0.00  0.00    +0.000 HD
ENDBRANCH  20  23
ENDBRANCH  18  19
ENDBRANCH   4  18
TORSDOF 6
ENDMDL
MODEL 7
REMARK VINA RESULT:    -7.020      3.389      8.352
REMARK INTER + INTRA:         -10.426
REMARK INTER:                  -9.468
REMARK INTRA:                  -0.958
REMARK UNBOUND:                -0.944
REMARK  Name = 
REMARK  6 active torsions:
REMARK  status: ('A' for Active; 'I' for Inactive)
REMARK    1  A    between atoms: C_2  and  C_25
REMARK    2  A    between atoms: N_3  and  C_4
REMARK    3  A    between atoms: C_4  and  C_5
REMARK    4  A    between atoms: C_8  and  C_9
REMARK    5  A    between atoms: C_9  and  N_10
REMARK    6  A    between atoms: C_11  and  C_13
REMARK                            x       y       z     vdW  Elec       q    Type
REMARK                         _______ _______ _______ _____ _____    ______ ____
ROOT
ATOM      1  C   UNL     1      49.864   7.340  15.895  0.00  0.00    +0.000 A 
ATOM      2  C   UNL     1      49.902   8.665  15.461  0.00  0.00    +0.000 A 
ATOM      3  C   UNL     1      49.233   9.024  14.287  0.00  0.00    +0.000 A 
ATOM      4  C   UNL     1      48.548   8.056  13.551  0.00  0.00    +0.000 A 
ATOM      5  C   UNL     1      48.564   6.760  14.058  0.00  0.00    +0.000 A 
ATOM      6  N   UNL     1      49.202   6.380  15.197  0.00  0.00    +0.000 NA
ENDROOT
BRANCH   1   7
ATOM      7  C   UNL     1      50.531   6.945  17.201  0.00  0.00    +0.000 C 
BRANCH   7  10
ATOM      8  O   UNL     1      49.589   4.595  18.390  0.00  0.00    +0.000 OA
ATOM      9  C   UNL     1      50.666   4.557  17.792  0.00  0.00    +0.000 C 
ATOM     10  N   UNL     1      51.205   5.658  17.167  0.00  0.00    +0.000 N 
ATOM     11  H   UNL     1      52.107   5.571  16.709  0.00  0.00    +0.000 HD
BRANCH   9  12
ATOM     12  C   UNL     1      51.444   3.289  17.754  0.00  0.00    +0.000 A 
ATOM     13  C   UNL     1      50.811   2.144  17.286  0.00  0.00    +0.000 A 
ATOM     14  N   UNL     1      51.374   0.913  17.356  0.00  0.00    +0.000 NA
ATOM     15  C   UNL     1      52.613   0.882  17.895  0.00  0.00    +0.000 A 
ATOM     16  C   UNL     1      53.278   2.034  18.296  0.00  0.00    +0.000 A 
ATOM     17  N   UNL     1      52.715   3.270  18.248  0.00  0.00    +0.000 NA
ENDBRANCH   9  12
ENDBRANCH   7  10
ENDBRANCH   1   7
BRANCH   4  18
ATOM     18  C   UNL     1      47.832   8.388  12.269  0.00  0.00    +0.000 C 
BRANCH  18  19
ATOM     19  N   UNL     1      46.804   7.430  11.938  0.00  0.00    +0.000 N 
ATOM     20  C   UNL     1      45.480   7.645  12.257  0.00  0.00    +0.000 C 
ATOM     21  O   UNL     1      45.108   8.647  12.861  0.00  0.00    +0.000 OA
ATOM     22  H   UNL     1      47.086   6.582  11.454  0.00  0.00    +0.000 HD
BRANCH  20  23
ATOM     23  C   UNL     1      44.538   6.617  11.830  0.00  0.00    +0.000 A 
ATOM     24  C   UNL     1      43.374   6.885  11.131  0.00  0.00    +0.000 A 
ATOM     25  O   UNL     1      42.665   5.751  10.881  0.00  0.00    +0.000 OA
ATOM     26  C   UNL     1      43.366   4.714  11.417  0.00  0.00    +0.000 A 
ATOM     27  N   UNL     1      42.946   3.426  11.383  0.00  0.00    +0.000 NA
ATOM     28  C   UNL     1      43.754   2.605  11.974  0.00  0.00    +0.000 A 
ATOM     29  N   UNL     1      44.935   2.960  12.583  0.00  0.00    +0.000 N 
ATOM     30  C   UNL     1      45.403   4.256  12.609  0.00  0.00    +0.000 A 
ATOM     31  O   UNL     1      46.480   4.548  13.124  0.00  0.00    +0.000 OA
ATOM     32  C   UNL     1      44.524   5.203  11.993  0.00  0.00    +0.000 A 
ATOM     33  H   UNL     1      45.522   2.268  13.020  0.00  0.00    +0.000 HD
ENDBRANCH  20  23
ENDBRANCH  18  19
ENDBRANCH   4  18
TORSDOF 6
ENDMDL
MODEL 8
REMARK VINA RESULT:    -6.981      3.244      5.187
REMARK INTER + INTRA:         -10.373
REMARK INTER:                  -9.429
REMARK INTRA:                  -0.944
REMARK UNBOUND:                -0.944
REMARK  Name = 
REMARK  6 active torsions:
REMARK  status: ('A' for Active; 'I' for Inactive)
REMARK    1  A    between atoms: C_2  and  C_25
REMARK    2  A    between atoms: N_3  and  C_4
REMARK    3  A    between atoms: C_4  and  C_5
REMARK    4  A    between atoms: C_8  and  C_9
REMARK    5  A    between atoms: C_9  and  N_10
REMARK    6  A    between atoms: C_11  and  C_13
REMARK                            x       y       z     vdW  Elec       q    Type
REMARK                         _______ _______ _______ _____ _____    ______ ____
ROOT
ATOM      1  C   UNL     1      47.492   5.681  14.538  0.00  0.00    +0.000 A 
ATOM      2  C   UNL     1      48.359   6.169  15.515  0.00  0.00    +0.000 A 
ATOM      3  C   UNL     1      48.656   5.379  16.629  0.00  0.00    +0.000 A 
ATOM      4  C   UNL     1      48.073   4.119  16.766  0.00  0.00    +0.000 A 
ATOM      5  C   UNL     1      47.219   3.714  15.744  0.00  0.00    +0.000 A 
ATOM      6  N   UNL     1      46.913   4.457  14.647  0.00  0.00    +0.000 NA
ENDROOT
BRANCH   1   7
ATOM      7  C   UNL     1      47.209   6.499  13.290  0.00  0.00    +0.000 C 
BRANCH   7  10
ATOM      8  O   UNL     1      44.625   6.476  12.217  0.00  0.00    +0.000 OA
ATOM      9  C   UNL     1      45.484   5.765  11.691  0.00  0.00    +0.000 C 
ATOM     10  N   UNL     1      46.784   5.718  12.141  0.00  0.00    +0.000 N 
ATOM     11  H   UNL     1      47.442   5.096  11.681  0.00  0.00    +0.000 HD
BRANCH   9  12
ATOM     12  C   UNL     1      45.118   4.895  10.541  0.00  0.00    +0.000 A 
ATOM     13  C   UNL     1      44.288   3.806  10.780  0.00  0.00    +0.000 A 
ATOM     14  N   UNL     1      44.023   2.865   9.840  0.00  0.00    +0.000 NA
ATOM     15  C   UNL     1      44.606   3.076   8.640  0.00  0.00    +0.000 A 
ATOM     16  C   UNL     1      45.377   4.202   8.376  0.00  0.00    +0.000 A 
ATOM     17  N   UNL     1      45.666   5.140   9.316  0.00  0.00    +0.000 NA
ENDBRANCH   9  12
ENDBRANCH   7  10
ENDBRANCH   1   7
BRANCH   4  18
ATOM     18  C   UNL     1      48.342   3.240  17.958  0.00  0.00    +0.000 C 
BRANCH  18  19
ATOM     19  N   UNL     1      49.746   2.964  18.144  0.00  0.00    +0.000 N 
ATOM     20  C   UNL     1      50.450   2.160  17.273  0.00  0.00    +0.000 C 
ATOM     21  O   UNL     1      49.916   1.615  16.311  0.00  0.00    +0.000 OA
ATOM     22  H   UNL     1      50.210   3.387  18.943  0.00  0.00    +0.000 HD
BRANCH  20  23
ATOM     23  C   UNL     1      51.872   1.995  17.553  0.00  0.00    +0.000 A 
ATOM     24  C   UNL     1      52.493   0.764  17.664  0.00  0.00    +0.000 A 
ATOM     25  O   UNL     1      53.816   0.892  17.955  0.00  0.00    +0.000 OA
ATOM     26  C   UNL     1      54.081   2.226  18.036  0.00  0.00    +0.000 A 
ATOM     27  N   UNL     1      55.300   2.733  18.338  0.00  0.00    +0.000 NA
ATOM     28  C   UNL     1      55.322   4.026  18.386  0.00  0.00    +0.000 A 
ATOM     29  N   UNL     1      54.242   4.844  18.153  0.00  0.00    +0.000 N 
ATOM     30  C   UNL     1      52.996   4.360  17.816  0.00  0.00    +0.000 A 
ATOM     31  O   UNL     1      52.051   5.108  17.573  0.00  0.00    +0.000 OA
ATOM     32  C   UNL     1      52.918   2.931  17.782  0.00  0.00    +0.000 A 
ATOM     33  H   UNL     1      54.329   5.847  18.200  0.00  0.00    +0.000 HD
ENDBRANCH  20  23
ENDBRANCH  18  19
ENDBRANCH   4  18
TORSDOF 6
ENDMDL
MODEL 9
REMARK VINA RESULT:    -6.883      4.491      7.451
REMARK INTER + INTRA:         -10.241
REMARK INTER:                  -9.377
REMARK INTRA:                  -0.865
REMARK UNBOUND:                -0.944
REMARK  Name = 
REMARK  6 active torsions:
REMARK  status: ('A' for Active; 'I' for Inactive)
REMARK    1  A    between atoms: C_2  and  C_25
REMARK    2  A    between atoms: N_3  and  C_4
REMARK    3  A    between atoms: C_4  and  C_5
REMARK    4  A    between atoms: C_8  and  C_9
REMARK    5  A    between atoms: C_9  and  N_10
REMARK    6  A    between atoms: C_11  and  C_13
REMARK                            x       y       z     vdW  Elec       q    Type
REMARK                         _______ _______ _______ _____ _____    ______ ____
ROOT
ATOM      1  C   UNL     1      50.491   8.481  11.922  0.00  0.00    +0.000 A 
ATOM      2  C   UNL     1      49.756   9.649  11.727  0.00  0.00    +0.000 A 
ATOM      3  C   UNL     1      48.386   9.655  12.004  0.00  0.00    +0.000 A 
ATOM      4  C   UNL     1      47.760   8.493  12.455  0.00  0.00    +0.000 A 
ATOM      5  C   UNL     1      48.570   7.373  12.619  0.00  0.00    +0.000 A 
ATOM      6  N   UNL     1      49.906   7.336  12.363  0.00  0.00    +0.000 NA
ENDROOT
BRANCH   1   7
ATOM      7  C   UNL     1      51.992   8.473  11.688  0.00  0.00    +0.000 C 
BRANCH   7  10
ATOM      8  O   UNL     1      52.803   8.946   9.053  0.00  0.00    +0.000 OA
ATOM      9  C   UNL     1      52.821   7.787   9.472  0.00  0.00    +0.000 C 
ATOM     10  N   UNL     1      52.450   7.458  10.756  0.00  0.00    +0.000 N 
ATOM     11  H   UNL     1      52.465   6.482  11.038  0.00  0.00    +0.000 HD
BRANCH   9  12
ATOM     12  C   UNL     1      53.230   6.680   8.565  0.00  0.00    +0.000 A 
ATOM     13  C   UNL     1      52.471   6.453   7.424  0.00  0.00    +0.000 A 
ATOM     14  N   UNL     1      52.661   5.379   6.618  0.00  0.00    +0.000 NA
ATOM     15  C   UNL     1      53.662   4.554   6.993  0.00  0.00    +0.000 A 
ATOM     16  C   UNL     1      54.471   4.817   8.092  0.00  0.00    +0.000 A 
ATOM     17  N   UNL     1      54.277   5.880   8.917  0.00  0.00    +0.000 NA
ENDBRANCH   9  12
ENDBRANCH   7  10
ENDBRANCH   1   7
BRANCH   4  18
ATOM     18  C   UNL     1      46.283   8.442  12.744  0.00  0.00    +0.000 C 
BRANCH  18  19
ATOM     19  N   UNL     1      45.713   7.136  12.512  0.00  0.00    +0.000 N 
ATOM     20  C   UNL     1      44.648   6.951  11.656  0.00  0.00    +0.000 C 
ATOM     21  O   UNL     1      44.111   7.886  11.069  0.00  0.00    +0.000 OA
ATOM     22  H   UNL     1      46.125   6.346  12.999  0.00  0.00    +0.000 HD
BRANCH  20  23
ATOM     23  C   UNL     1      44.193   5.576  11.479  0.00  0.00    +0.000 A 
ATOM     24  C   UNL     1      43.297   4.950  12.327  0.00  0.00    +0.000 A 
ATOM     25  O   UNL     1      43.064   3.664  11.952  0.00  0.00    +0.000 OA
ATOM     26  C   UNL     1      43.811   3.430  10.837  0.00  0.00    +0.000 A 
ATOM     27  N   UNL     1      43.851   2.238  10.196  0.00  0.00    +0.000 NA
ATOM     28  C   UNL     1      44.645   2.229   9.174  0.00  0.00    +0.000 A 
ATOM     29  N   UNL     1      45.388   3.302   8.742  0.00  0.00    +0.000 N 
ATOM     30  C   UNL     1      45.347   4.535   9.355  0.00  0.00    +0.000 A 
ATOM     31  O   UNL     1      45.989   5.495   8.931  0.00  0.00    +0.000 OA
ATOM     32  C   UNL     1      44.504   4.582  10.511  0.00  0.00    +0.000 A 
ATOM     33  H   UNL     1      45.983   3.229   7.932  0.00  0.00    +0.000 HD
ENDBRANCH  20  23
ENDBRANCH  18  19
ENDBRANCH   4  18
TORSDOF 6
ENDMDL
