MODEL 1
REMARK VINA RESULT:    -8.148      0.000      0.000
REMARK INTER + INTRA:         -11.079
REMARK INTER:                 -10.529
REMARK INTRA:                  -0.549
REMARK UNBOUND:                -0.549
REMARK  Name = 
REMARK  5 active torsions:
REMARK  status: ('A' for Active; 'I' for Inactive)
REMARK    1  A    between atoms: C_2  and  C_3
REMARK    2  A    between atoms: C_7  and  N_8
REMARK    3  A    between atoms: N_8  and  C_9
REMARK    4  A    between atoms: C_9  and  C_10
REMARK    5  A    between atoms: C_14  and  C_15
REMARK                            x       y       z     vdW  Elec       q    Type
REMARK                         _______ _______ _______ _____ _____    ______ ____
ROOT
ATOM      1  C   UNL     1      43.762   5.724  11.073  0.00  0.00    +0.000 A 
ATOM      2  C   UNL     1      42.961   4.871  11.841  0.00  0.00    +0.000 A 
ATOM      3  C   UNL     1      43.032   3.491  11.660  0.00  0.00    +0.000 A 
ATOM      4  C   UNL     1      43.894   2.952  10.701  0.00  0.00    +0.000 A 
ATOM      5  C   UNL     1      44.698   3.775   9.893  0.00  0.00    +0.000 A 
ATOM      6  C   UNL     1      44.638   5.163  10.127  0.00  0.00    +0.000 A 
ENDROOT
BRANCH   5   7
ATOM      7  C   UNL     1      45.528   3.214   8.799  0.00  0.00    +0.000 A 
ATOM      8  C   UNL     1      46.091   4.034   7.801  0.00  0.00    +0.000 A 
ATOM      9  C   UNL     1      46.837   3.494   6.747  0.00  0.00    +0.000 A 
ATOM     10  C   UNL     1      47.046   2.123   6.684  0.00  0.00    +0.000 A 
ATOM     11  F   UNL     1      47.773   1.628   5.671  0.00  0.00    +0.000 F 
ATOM     12  C   UNL     1      46.511   1.286   7.654  0.00  0.00    +0.000 A 
ATOM     13 CL   UNL     1      46.768  -0.415   7.589  0.00  0.00    +0.000 Cl
ATOM     14  C   UNL     1      45.749   1.825   8.695  0.00  0.00    +0.000 A 
ENDBRANCH   5   7
BRANCH   1  15
ATOM     15  C   UNL     1      43.659   7.227  11.212  0.00  0.00    +0.000 C 
BRANCH  15  16
ATOM     16  N   UNL     1      44.408   7.693  12.367  0.00  0.00    +0.000 N 
ATOM     17  H   UNL     1      43.834   7.921  13.176  0.00  0.00    +0.000 HD
BRANCH  16  22
ATOM     18  C   UNL     1      47.141   5.418  13.514  0.00  0.00    +0.000 A 
ATOM     19  C   UNL     1      48.213   6.128  13.003  0.00  0.00    +0.000 A 
ATOM     20  N   UNL     1      48.086   7.302  12.352  0.00  0.00    +0.000 NA
ATOM     21  C   UNL     1      46.823   7.776  12.200  0.00  0.00    +0.000 A 
ATOM     22  C   UNL     1      45.659   7.163  12.681  0.00  0.00    +0.000 A 
ATOM     23  C   UNL     1      45.851   5.944  13.338  0.00  0.00    +0.000 A 
BRANCH  18  25
ATOM     24  N   UNL     1      47.517   3.174  14.747  0.00  0.00    +0.000 NA
ATOM     25  C   UNL     1      47.349   4.177  14.193  0.00  0.00    +0.000 C 
ENDBRANCH  18  25
ENDBRANCH  16  22
ENDBRANCH  15  16
ENDBRANCH   1  15
TORSDOF 5
ENDMDL
MODEL 2
REMARK VINA RESULT:    -8.131      1.132      2.297
REMARK INTER + INTRA:         -11.057
REMARK INTER:                 -10.295
REMARK INTRA:                  -0.762
REMARK UNBOUND:                -0.549
REMARK  Name = 
REMARK  5 active torsions:
REMARK  status: ('A' for Active; 'I' for Inactive)
REMARK    1  A    between atoms: C_2  and  C_3
REMARK    2  A    between atoms: C_7  and  N_8
REMARK    3  A    between atoms: N_8  and  C_9
REMARK    4  A    between atoms: C_9  and  C_10
REMARK    5  A    between atoms: C_14  and  C_15
REMARK                            x       y       z     vdW  Elec       q    Type
REMARK                         _______ _______ _______ _____ _____    ______ ____
ROOT
ATOM      1  C   UNL     1      44.039   5.638  11.327  0.00  0.00    +0.000 A 
ATOM      2  C   UNL     1      43.179   4.789  12.034  0.00  0.00    +0.000 A 
ATOM      3  C   UNL     1      43.137   3.429  11.737  0.00  0.00    +0.000 A 
ATOM      4  C   UNL     1      43.943   2.906  10.722  0.00  0.00    +0.000 A 
ATOM      5  C   UNL     1      44.803   3.727   9.973  0.00  0.00    +0.000 A 
ATOM      6  C   UNL     1      44.857   5.091  10.322  0.00  0.00    +0.000 A 
ENDROOT
BRANCH   5   7
ATOM      7  C   UNL     1      45.574   3.197   8.822  0.00  0.00    +0.000 A 
ATOM      8  C   UNL     1      46.076   4.043   7.813  0.00  0.00    +0.000 A 
ATOM      9  C   UNL     1      46.765   3.532   6.708  0.00  0.00    +0.000 A 
ATOM     10  C   UNL     1      46.979   2.164   6.602  0.00  0.00    +0.000 A 
ATOM     11  F   UNL     1      47.652   1.696   5.540  0.00  0.00    +0.000 F 
ATOM     12  C   UNL     1      46.504   1.302   7.582  0.00  0.00    +0.000 A 
ATOM     13 CL   UNL     1      46.768  -0.395   7.465  0.00  0.00    +0.000 Cl
ATOM     14  C   UNL     1      45.798   1.812   8.675  0.00  0.00    +0.000 A 
ENDBRANCH   5   7
BRANCH   1  15
ATOM     15  C   UNL     1      44.058   7.127  11.592  0.00  0.00    +0.000 C 
BRANCH  15  16
ATOM     16  N   UNL     1      44.911   7.440  12.727  0.00  0.00    +0.000 N 
ATOM     17  H   UNL     1      44.506   7.211  13.631  0.00  0.00    +0.000 HD
BRANCH  16  22
ATOM     18  C   UNL     1      48.559   8.065  12.215  0.00  0.00    +0.000 A 
ATOM     19  C   UNL     1      49.040   6.919  12.825  0.00  0.00    +0.000 A 
ATOM     20  N   UNL     1      48.245   5.964  13.348  0.00  0.00    +0.000 NA
ATOM     21  C   UNL     1      46.906   6.176  13.260  0.00  0.00    +0.000 A 
ATOM     22  C   UNL     1      46.294   7.282  12.657  0.00  0.00    +0.000 A 
ATOM     23  C   UNL     1      47.168   8.245  12.142  0.00  0.00    +0.000 A 
BRANCH  18  25
ATOM     24  N   UNL     1      50.193   9.823  11.248  0.00  0.00    +0.000 NA
ATOM     25  C   UNL     1      49.461   9.038  11.683  0.00  0.00    +0.000 C 
ENDBRANCH  18  25
ENDBRANCH  16  22
ENDBRANCH  15  16
ENDBRANCH   1  15
TORSDOF 5
ENDMDL
MODEL 3
REMARK VINA RESULT:    -8.030      4.216      6.878
REMARK INTER + INTRA:         -10.927
REMARK INTER:                 -10.171
REMARK INTRA:                  -0.755
REMARK UNBOUND:                -0.549
REMARK  Name = 
REMARK  5 active torsions:
REMARK  status: ('A' for Active; 'I' for Inactive)
REMARK    1  A    between atoms: C_2  and  C_3
REMARK    2  A    between atoms: C_7  and  N_8
REMARK    3  A    between atoms: N_8  and  C_9
REMARK    4  A    between atoms: C_9  and  C_10
REMARK    5  A    between atoms: C_14  and  C_15
REMARK                            x       y       z     vdW  Elec       q    Type
REMARK                         _______ _______ _______ _____ _____    ______ ____
ROOT
ATOM      1  C   UNL     1      44.782   4.971  11.323  0.00  0.00    +0.000 A 
ATOM      2  C   UNL     1      44.999   4.097  12.395  0.00  0.00    +0.000 A 
ATOM      3  C   UNL     1      45.949   4.401  13.367  0.00  0.00    +0.000 A 
ATOM      4  C   UNL     1      46.701   5.576  13.270  0.00  0.00    +0.000 A 
ATOM      5  C   UNL     1      46.531   6.469  12.198  0.00  0.00    +0.000 A 
ATOM      6  C   UNL     1      45.533   6.158  11.253  0.00  0.00    +0.000 A 
ENDROOT
BRANCH   5   7
ATOM      7  C   UNL     1      47.404   7.657  12.032  0.00  0.00    +0.000 A 
ATOM      8  C   UNL     1      46.900   8.969  12.142  0.00  0.00    +0.000 A 
ATOM      9  C   UNL     1      47.720  10.084  11.942  0.00  0.00    +0.000 A 
ATOM     10  C   UNL     1      49.064   9.907  11.645  0.00  0.00    +0.000 A 
ATOM     11  F   UNL     1      49.834  10.990  11.467  0.00  0.00    +0.000 F 
ATOM     12  C   UNL     1      49.595   8.628  11.536  0.00  0.00    +0.000 A 
ATOM     13 CL   UNL     1      51.262   8.395  11.174  0.00  0.00    +0.000 Cl
ATOM     14  C   UNL     1      48.771   7.514  11.716  0.00  0.00    +0.000 A 
ENDBRANCH   5   7
BRANCH   1  15
ATOM     15  C   UNL     1      43.798   4.632  10.226  0.00  0.00    +0.000 C 
BRANCH  15  16
ATOM     16  N   UNL     1      44.459   4.592   8.932  0.00  0.00    +0.000 N 
ATOM     17  H   UNL     1      44.941   5.452   8.681  0.00  0.00    +0.000 HD
BRANCH  16  22
ATOM     18  C   UNL     1      46.716   2.213   7.142  0.00  0.00    +0.000 A 
ATOM     19  C   UNL     1      46.380   1.065   7.839  0.00  0.00    +0.000 A 
ATOM     20  N   UNL     1      45.449   1.031   8.814  0.00  0.00    +0.000 NA
ATOM     21  C   UNL     1      44.836   2.207   9.106  0.00  0.00    +0.000 A 
ATOM     22  C   UNL     1      45.074   3.430   8.468  0.00  0.00    +0.000 A 
ATOM     23  C   UNL     1      46.057   3.407   7.473  0.00  0.00    +0.000 A 
BRANCH  18  25
ATOM     24  N   UNL     1      48.528   2.147   5.296  0.00  0.00    +0.000 NA
ATOM     25  C   UNL     1      47.715   2.176   6.120  0.00  0.00    +0.000 C 
ENDBRANCH  18  25
ENDBRANCH  16  22
ENDBRANCH  15  16
ENDBRANCH   1  15
TORSDOF 5
ENDMDL
MODEL 4
REMARK VINA RESULT:    -7.717      4.742      7.721
REMARK INTER + INTRA:         -10.522
REMARK INTER:                  -9.753
REMARK INTRA:                  -0.769
REMARK UNBOUND:                -0.549
REMARK  Name = 
REMARK  5 active torsions:
REMARK  status: ('A' for Active; 'I' for Inactive)
REMARK    1  A    between atoms: C_2  and  C_3
REMARK    2  A    between atoms: C_7  and  N_8
REMARK    3  A    between atoms: N_8  and  C_9
REMARK    4  A    between atoms: C_9  and  C_10
REMARK    5  A    between atoms: C_14  and  C_15
REMARK                            x       y       z     vdW  Elec       q    Type
REMARK                         _______ _______ _______ _____ _____    ______ ____
ROOT
ATOM      1  C   UNL     1      46.154   6.056  11.808  0.00  0.00    +0.000 A 
ATOM      2  C   UNL     1      47.041   7.013  11.302  0.00  0.00    +0.000 A 
ATOM      3  C   UNL     1      48.182   7.362  12.023  0.00  0.00    +0.000 A 
ATOM      4  C   UNL     1      48.439   6.767  13.262  0.00  0.00    +0.000 A 
ATOM      5  C   UNL     1      47.561   5.819  13.816  0.00  0.00    +0.000 A 
ATOM      6  C   UNL     1      46.438   5.454  13.047  0.00  0.00    +0.000 A 
ENDROOT
BRANCH   5   7
ATOM      7  C   UNL     1      47.771   5.272  15.179  0.00  0.00    +0.000 A 
ATOM      8  C   UNL     1      47.134   4.091  15.609  0.00  0.00    +0.000 A 
ATOM      9  C   UNL     1      47.302   3.604  16.910  0.00  0.00    +0.000 A 
ATOM     10  C   UNL     1      48.126   4.282  17.799  0.00  0.00    +0.000 A 
ATOM     11  F   UNL     1      48.281   3.791  19.037  0.00  0.00    +0.000 F 
ATOM     12  C   UNL     1      48.774   5.446  17.405  0.00  0.00    +0.000 A 
ATOM     13 CL   UNL     1      49.802   6.292  18.496  0.00  0.00    +0.000 Cl
ATOM     14  C   UNL     1      48.589   5.942  16.112  0.00  0.00    +0.000 A 
ENDBRANCH   5   7
BRANCH   1  15
ATOM     15  C   UNL     1      44.880   5.706  11.071  0.00  0.00    +0.000 C 
BRANCH  15  16
ATOM     16  N   UNL     1      45.144   5.482   9.659  0.00  0.00    +0.000 N 
ATOM     17  H   UNL     1      45.767   6.166   9.235  0.00  0.00    +0.000 HD
BRANCH  16  22
ATOM     18  C   UNL     1      46.370   2.471   7.818  0.00  0.00    +0.000 A 
ATOM     19  C   UNL     1      45.537   1.533   8.403  0.00  0.00    +0.000 A 
ATOM     20  N   UNL     1      44.597   1.840   9.318  0.00  0.00    +0.000 NA
ATOM     21  C   UNL     1      44.497   3.148   9.667  0.00  0.00    +0.000 A 
ATOM     22  C   UNL     1      45.266   4.193   9.141  0.00  0.00    +0.000 A 
ATOM     23  C   UNL     1      46.232   3.814   8.204  0.00  0.00    +0.000 A 
BRANCH  18  25
ATOM     24  N   UNL     1      48.143   1.749   6.076  0.00  0.00    +0.000 NA
ATOM     25  C   UNL     1      47.348   2.073   6.854  0.00  0.00    +0.000 C 
ENDBRANCH  18  25
ENDBRANCH  16  22
ENDBRANCH  15  16
ENDBRANCH   1  15
TORSDOF 5
ENDMDL
MODEL 5
REMARK VINA RESULT:    -7.414      4.486      7.563
REMARK INTER + INTRA:         -10.130
REMARK INTER:                  -9.349
REMARK INTRA:                  -0.781
REMARK UNBOUND:                -0.549
REMARK  Name = 
REMARK  5 active torsions:
REMARK  status: ('A' for Active; 'I' for Inactive)
REMARK    1  A    between atoms: C_2  and  C_3
REMARK    2  A    between atoms: C_7  and  N_8
REMARK    3  A    between atoms: N_8  and  C_9
REMARK    4  A    between atoms: C_9  and  C_10
REMARK    5  A    between atoms: C_14  and  C_15
REMARK                            x       y       z     vdW  Elec       q    Type
REMARK                         _______ _______ _______ _____ _____    ______ ____
ROOT
ATOM      1  C   UNL     1      45.852   5.865  11.978  0.00  0.00    +0.000 A 
ATOM      2  C   UNL     1      46.641   6.773  11.261  0.00  0.00    +0.000 A 
ATOM      3  C   UNL     1      47.846   7.227  11.794  0.00  0.00    +0.000 A 
ATOM      4  C   UNL     1      48.267   6.787  13.052  0.00  0.00    +0.000 A 
ATOM      5  C   UNL     1      47.494   5.895  13.814  0.00  0.00    +0.000 A 
ATOM      6  C   UNL     1      46.301   5.419  13.234  0.00  0.00    +0.000 A 
ENDROOT
BRANCH   5   7
ATOM      7  C   UNL     1      47.882   5.516  15.195  0.00  0.00    +0.000 A 
ATOM      8  C   UNL     1      48.803   6.278  15.941  0.00  0.00    +0.000 A 
ATOM      9  C   UNL     1      49.197   5.891  17.227  0.00  0.00    +0.000 A 
ATOM     10  C   UNL     1      48.662   4.743  17.795  0.00  0.00    +0.000 A 
ATOM     11  F   UNL     1      49.046   4.397  19.033  0.00  0.00    +0.000 F 
ATOM     12  C   UNL     1      47.747   3.972  17.090  0.00  0.00    +0.000 A 
ATOM     13 CL   UNL     1      47.072   2.550  17.786  0.00  0.00    +0.000 Cl
ATOM     14  C   UNL     1      47.369   4.349  15.798  0.00  0.00    +0.000 A 
ENDBRANCH   5   7
BRANCH   1  15
ATOM     15  C   UNL     1      44.513   5.405  11.445  0.00  0.00    +0.000 C 
BRANCH  15  16
ATOM     16  N   UNL     1      44.524   5.351   9.993  0.00  0.00    +0.000 N 
ATOM     17  H   UNL     1      44.848   6.205   9.543  0.00  0.00    +0.000 HD
BRANCH  16  22
ATOM     18  C   UNL     1      46.031   2.919   7.590  0.00  0.00    +0.000 A 
ATOM     19  C   UNL     1      45.653   1.752   8.231  0.00  0.00    +0.000 A 
ATOM     20  N   UNL     1      44.917   1.728   9.361  0.00  0.00    +0.000 NA
ATOM     21  C   UNL     1      44.555   2.932   9.873  0.00  0.00    +0.000 A 
ATOM     22  C   UNL     1      44.860   4.180   9.315  0.00  0.00    +0.000 A 
ATOM     23  C   UNL     1      45.634   4.144   8.150  0.00  0.00    +0.000 A 
BRANCH  18  25
ATOM     24  N   UNL     1      47.451   2.825   5.428  0.00  0.00    +0.000 NA
ATOM     25  C   UNL     1      46.814   2.870   6.395  0.00  0.00    +0.000 C 
ENDBRANCH  18  25
ENDBRANCH  16  22
ENDBRANCH  15  16
ENDBRANCH   1  15
TORSDOF 5
ENDMDL
MODEL 6
REMARK VINA RESULT:    -7.207      2.576      4.379
REMARK INTER + INTRA:          -9.863
REMARK INTER:                  -8.996
REMARK INTRA:                  -0.867
REMARK UNBOUND:                -0.549
REMARK  Name = 
REMARK  5 active torsions:
REMARK  status: ('A' for Active; 'I' for Inactive)
REMARK    1  A    between atoms: C_2  and  C_3
REMARK    2  A    between atoms: C_7  and  N_8
REMARK    3  A    between atoms: N_8  and  C_9
REMARK    4  A    between atoms: C_9  and  C_10
REMARK    5  A    between atoms: C_14  and  C_15
REMARK                            x       y       z     vdW  Elec       q    Type
REMARK                         _______ _______ _______ _____ _____    ______ ____
ROOT
ATOM      1  C   UNL     1      47.497   7.540  12.858  0.00  0.00    +0.000 A 
ATOM      2  C   UNL     1      46.656   8.655  12.951  0.00  0.00    +0.000 A 
ATOM      3  C   UNL     1      45.359   8.600  12.443  0.00  0.00    +0.000 A 
ATOM      4  C   UNL     1      44.896   7.435  11.826  0.00  0.00    +0.000 A 
ATOM      5  C   UNL     1      45.716   6.301  11.691  0.00  0.00    +0.000 A 
ATOM      6  C   UNL     1      47.007   6.369  12.251  0.00  0.00    +0.000 A 
ENDROOT
BRANCH   5   7
ATOM      7  C   UNL     1      45.267   5.104  10.937  0.00  0.00    +0.000 A 
ATOM      8  C   UNL     1      44.483   4.100  11.539  0.00  0.00    +0.000 A 
ATOM      9  C   UNL     1      44.100   2.954  10.834  0.00  0.00    +0.000 A 
ATOM     10  C   UNL     1      44.480   2.801   9.508  0.00  0.00    +0.000 A 
ATOM     11  F   UNL     1      44.093   1.699   8.848  0.00  0.00    +0.000 F 
ATOM     12  C   UNL     1      45.248   3.775   8.882  0.00  0.00    +0.000 A 
ATOM     13 CL   UNL     1      45.721   3.599   7.236  0.00  0.00    +0.000 Cl
ATOM     14  C   UNL     1      45.647   4.910   9.592  0.00  0.00    +0.000 A 
ENDBRANCH   5   7
BRANCH   1  15
ATOM     15  C   UNL     1      48.926   7.597  13.350  0.00  0.00    +0.000 C 
BRANCH  15  16
ATOM     16  N   UNL     1      48.971   7.827  14.785  0.00  0.00    +0.000 N 
ATOM     17  H   UNL     1      48.337   8.551  15.113  0.00  0.00    +0.000 HD
BRANCH  16  22
ATOM     18  C   UNL     1      48.476   4.733  16.819  0.00  0.00    +0.000 A 
ATOM     19  C   UNL     1      49.772   4.598  17.287  0.00  0.00    +0.000 A 
ATOM     20  N   UNL     1      50.760   5.470  17.003  0.00  0.00    +0.000 NA
ATOM     21  C   UNL     1      50.432   6.519  16.206  0.00  0.00    +0.000 A 
ATOM     22  C   UNL     1      49.159   6.776  15.681  0.00  0.00    +0.000 A 
ATOM     23  C   UNL     1      48.177   5.832  15.999  0.00  0.00    +0.000 A 
BRANCH  18  25
ATOM     24  N   UNL     1      46.672   2.982  17.432  0.00  0.00    +0.000 NA
ATOM     25  C   UNL     1      47.478   3.768  17.159  0.00  0.00    +0.000 C 
ENDBRANCH  18  25
ENDBRANCH  16  22
ENDBRANCH  15  16
ENDBRANCH   1  15
TORSDOF 5
ENDMDL
MODEL 7
REMARK VINA RESULT:    -6.807      2.882      4.652
REMARK INTER + INTRA:          -9.346
REMARK INTER:                  -8.795
REMARK INTRA:                  -0.551
REMARK UNBOUND:                -0.549
REMARK  Name = 
REMARK  5 active torsions:
REMARK  status: ('A' for Active; 'I' for Inactive)
REMARK    1  A    between atoms: C_2  and  C_3
REMARK    2  A    between atoms: C_7  and  N_8
REMARK    3  A    between atoms: N_8  and  C_9
REMARK    4  A    between atoms: C_9  and  C_10
REMARK    5  A    between atoms: C_14  and  C_15
REMARK                            x       y       z     vdW  Elec       q    Type
REMARK                         _______ _______ _______ _____ _____    ______ ____
ROOT
ATOM      1  C   UNL     1      47.255   7.134  13.234  0.00  0.00    +0.000 A 
ATOM      2  C   UNL     1      46.621   8.370  13.064  0.00  0.00    +0.000 A 
ATOM      3  C   UNL     1      45.510   8.480  12.230  0.00  0.00    +0.000 A 
ATOM      4  C   UNL     1      45.030   7.358  11.549  0.00  0.00    +0.000 A 
ATOM      5  C   UNL     1      45.651   6.103  11.674  0.00  0.00    +0.000 A 
ATOM      6  C   UNL     1      46.746   6.011  12.556  0.00  0.00    +0.000 A 
ENDROOT
BRANCH   5   7
ATOM      7  C   UNL     1      45.215   4.938  10.866  0.00  0.00    +0.000 A 
ATOM      8  C   UNL     1      44.405   3.920  11.409  0.00  0.00    +0.000 A 
ATOM      9  C   UNL     1      44.033   2.803  10.654  0.00  0.00    +0.000 A 
ATOM     10  C   UNL     1      44.451   2.692   9.335  0.00  0.00    +0.000 A 
ATOM     11  F   UNL     1      44.074   1.618   8.626  0.00  0.00    +0.000 F 
ATOM     12  C   UNL     1      45.245   3.680   8.766  0.00  0.00    +0.000 A 
ATOM     13 CL   UNL     1      45.765   3.558   7.130  0.00  0.00    +0.000 Cl
ATOM     14  C   UNL     1      45.632   4.786   9.527  0.00  0.00    +0.000 A 
ENDBRANCH   5   7
BRANCH   1  15
ATOM     15  C   UNL     1      48.497   7.004  14.087  0.00  0.00    +0.000 C 
BRANCH  15  16
ATOM     16  N   UNL     1      48.158   7.022  15.501  0.00  0.00    +0.000 N 
ATOM     17  H   UNL     1      47.448   7.705  15.754  0.00  0.00    +0.000 HD
BRANCH  16  22
ATOM     18  C   UNL     1      48.290   4.578  18.324  0.00  0.00    +0.000 A 
ATOM     19  C   UNL     1      47.748   3.489  17.664  0.00  0.00    +0.000 A 
ATOM     20  N   UNL     1      47.388   3.509  16.365  0.00  0.00    +0.000 NA
ATOM     21  C   UNL     1      47.571   4.681  15.704  0.00  0.00    +0.000 A 
ATOM     22  C   UNL     1      48.121   5.848  16.251  0.00  0.00    +0.000 A 
ATOM     23  C   UNL     1      48.466   5.771  17.604  0.00  0.00    +0.000 A 
BRANCH  18  25
ATOM     24  N   UNL     1      48.938   4.416  20.824  0.00  0.00    +0.000 NA
ATOM     25  C   UNL     1      48.649   4.486  19.705  0.00  0.00    +0.000 C 
ENDBRANCH  18  25
ENDBRANCH  16  22
ENDBRANCH  15  16
ENDBRANCH   1  15
TORSDOF 5
ENDMDL
MODEL 8
REMARK VINA RESULT:    -6.637      3.684      6.120
REMARK INTER + INTRA:          -9.126
REMARK INTER:                  -8.367
REMARK INTRA:                  -0.759
REMARK UNBOUND:                -0.549
REMARK  Name = 
REMARK  5 active torsions:
REMARK  status: ('A' for Active; 'I' for Inactive)
REMARK    1  A    between atoms: C_2  and  C_3
REMARK    2  A    between atoms: C_7  and  N_8
REMARK    3  A    between atoms: N_8  and  C_9
REMARK    4  A    between atoms: C_9  and  C_10
REMARK    5  A    between atoms: C_14  and  C_15
REMARK                            x       y       z     vdW  Elec       q    Type
REMARK                         _______ _______ _______ _____ _____    ______ ____
ROOT
ATOM      1  C   UNL     1      49.176   7.380  14.561  0.00  0.00    +0.000 A 
ATOM      2  C   UNL     1      50.047   8.092  13.727  0.00  0.00    +0.000 A 
ATOM      3  C   UNL     1      49.742   8.263  12.379  0.00  0.00    +0.000 A 
ATOM      4  C   UNL     1      48.572   7.714  11.848  0.00  0.00    +0.000 A 
ATOM      5  C   UNL     1      47.682   6.973  12.645  0.00  0.00    +0.000 A 
ATOM      6  C   UNL     1      47.993   6.852  14.014  0.00  0.00    +0.000 A 
ENDROOT
BRANCH   5   7
ATOM      7  C   UNL     1      46.499   6.294  12.061  0.00  0.00    +0.000 A 
ATOM      8  C   UNL     1      46.381   6.073  10.674  0.00  0.00    +0.000 A 
ATOM      9  C   UNL     1      45.244   5.470  10.126  0.00  0.00    +0.000 A 
ATOM     10  C   UNL     1      44.210   5.063  10.959  0.00  0.00    +0.000 A 
ATOM     11  F   UNL     1      43.134   4.478  10.414  0.00  0.00    +0.000 F 
ATOM     12  C   UNL     1      44.297   5.260  12.332  0.00  0.00    +0.000 A 
ATOM     13 CL   UNL     1      43.026   4.754  13.376  0.00  0.00    +0.000 Cl
ATOM     14  C   UNL     1      45.425   5.879  12.876  0.00  0.00    +0.000 A 
ENDBRANCH   5   7
BRANCH   1  15
ATOM     15  C   UNL     1      49.515   7.132  16.014  0.00  0.00    +0.000 C 
BRANCH  15  16
ATOM     16  N   UNL     1      48.386   6.542  16.715  0.00  0.00    +0.000 N 
ATOM     17  H   UNL     1      47.502   7.022  16.566  0.00  0.00    +0.000 HD
BRANCH  16  22
ATOM     18  C   UNL     1      49.179   2.923  17.199  0.00  0.00    +0.000 A 
ATOM     19  C   UNL     1      47.893   2.472  17.442  0.00  0.00    +0.000 A 
ATOM     20  N   UNL     1      46.808   3.272  17.419  0.00  0.00    +0.000 NA
ATOM     21  C   UNL     1      47.028   4.584  17.149  0.00  0.00    +0.000 A 
ATOM     22  C   UNL     1      48.274   5.161  16.872  0.00  0.00    +0.000 A 
ATOM     23  C   UNL     1      49.364   4.286  16.920  0.00  0.00    +0.000 A 
BRANCH  18  25
ATOM     24  N   UNL     1      51.180   1.283  17.280  0.00  0.00    +0.000 NA
ATOM     25  C   UNL     1      50.285   2.018  17.241  0.00  0.00    +0.000 C 
ENDBRANCH  18  25
ENDBRANCH  16  22
ENDBRANCH  15  16
ENDBRANCH   1  15
TORSDOF 5
ENDMDL
MODEL 9
REMARK VINA RESULT:    -6.176      4.033      5.845
REMARK INTER + INTRA:          -8.531
REMARK INTER:                  -7.847
REMARK INTRA:                  -0.684
REMARK UNBOUND:                -0.549
REMARK  Name = 
REMARK  5 active torsions:
REMARK  status: ('A' for Active; 'I' for Inactive)
REMARK    1  A    between atoms: C_2  and  C_3
REMARK    2  A    between atoms: C_7  and  N_8
REMARK    3  A    between atoms: N_8  and  C_9
REMARK    4  A    between atoms: C_9  and  C_10
REMARK    5  A    between atoms: C_14  and  C_15
REMARK                            x       y       z     vdW  Elec       q    Type
REMARK                         _______ _______ _______ _____ _____    ______ ____
ROOT
ATOM      1  C   UNL     1      48.090   8.269  12.318  0.00  0.00    +0.000 A 
ATOM      2  C   UNL     1      47.198   9.243  12.781  0.00  0.00    +0.000 A 
ATOM      3  C   UNL     1      45.823   9.044  12.671  0.00  0.00    +0.000 A 
ATOM      4  C   UNL     1      45.328   7.875  12.085  0.00  0.00    +0.000 A 
ATOM      5  C   UNL     1      46.190   6.883  11.586  0.00  0.00    +0.000 A 
ATOM      6  C   UNL     1      47.574   7.091  11.749  0.00  0.00    +0.000 A 
ENDROOT
BRANCH   5   7
ATOM      7  C   UNL     1      45.670   5.697  10.862  0.00  0.00    +0.000 A 
ATOM      8  C   UNL     1      45.949   5.480   9.498  0.00  0.00    +0.000 A 
ATOM      9  C   UNL     1      45.420   4.382   8.811  0.00  0.00    +0.000 A 
ATOM     10  C   UNL     1      44.616   3.471   9.483  0.00  0.00    +0.000 A 
ATOM     11  F   UNL     1      44.129   2.420   8.808  0.00  0.00    +0.000 F 
ATOM     12  C   UNL     1      44.327   3.651  10.830  0.00  0.00    +0.000 A 
ATOM     13 CL   UNL     1      43.336   2.525  11.675  0.00  0.00    +0.000 Cl
ATOM     14  C   UNL     1      44.839   4.759  11.510  0.00  0.00    +0.000 A 
ENDBRANCH   5   7
BRANCH   1  15
ATOM     15  C   UNL     1      49.585   8.491  12.374  0.00  0.00    +0.000 C 
BRANCH  15  16
ATOM     16  N   UNL     1      50.296   7.394  11.737  0.00  0.00    +0.000 N 
ATOM     17  H   UNL     1      49.695   6.648  11.394  0.00  0.00    +0.000 HD
BRANCH  16  22
ATOM     18  C   UNL     1      52.735   7.474   8.908  0.00  0.00    +0.000 A 
ATOM     19  C   UNL     1      53.635   8.374   9.453  0.00  0.00    +0.000 A 
ATOM     20  N   UNL     1      53.501   8.909  10.683  0.00  0.00    +0.000 NA
ATOM     21  C   UNL     1      52.406   8.530  11.391  0.00  0.00    +0.000 A 
ATOM     22  C   UNL     1      51.432   7.621  10.962  0.00  0.00    +0.000 A 
ATOM     23  C   UNL     1      51.618   7.106   9.675  0.00  0.00    +0.000 A 
BRANCH  18  25
ATOM     24  N   UNL     1      53.111   6.522   6.531  0.00  0.00    +0.000 NA
ATOM     25  C   UNL     1      52.940   6.947   7.595  0.00  0.00    +0.000 C 
ENDBRANCH  18  25
ENDBRANCH  16  22
ENDBRANCH  15  16
ENDBRANCH   1  15
TORSDOF 5
ENDMDL
