MODEL 1
REMARK VINA RESULT:    -7.716      0.000      0.000
REMARK INTER + INTRA:         -10.797
REMARK INTER:                 -10.197
REMARK INTRA:                  -0.600
REMARK UNBOUND:                -0.600
REMARK  Name = 
REMARK  6 active torsions:
REMARK  status: ('A' for Active; 'I' for Inactive)
REMARK    1  A    between atoms: N_1  and  C_2
REMARK    2  A    between atoms: C_2  and  C_3
REMARK    3  A    between atoms: C_3  and  C_4
REMARK    4  A    between atoms: C_7  and  C_8
REMARK    5  A    between atoms: C_8  and  N_9
REMARK    6  A    between atoms: C_14  and  C_15
REMARK                            x       y       z     vdW  Elec       q    Type
REMARK                         _______ _______ _______ _____ _____    ______ ____
ROOT
ATOM      1  N   UNL     1      44.377   4.906  11.606  0.00  0.00    +0.000 N 
ATOM      2  N   UNL     1      43.788   4.253  12.638  0.00  0.00    +0.000 NA
ATOM      3  C   UNL     1      44.647   4.422  13.645  0.00  0.00    +0.000 A 
ATOM      4  C   UNL     1      45.761   5.211  13.289  0.00  0.00    +0.000 A 
ATOM      5  C   UNL     1      46.928   5.650  13.945  0.00  0.00    +0.000 A 
ATOM      6  C   UNL     1      47.857   6.431  13.238  0.00  0.00    +0.000 A 
ATOM      7  C   UNL     1      47.594   6.785  11.907  0.00  0.00    +0.000 A 
ATOM      8  C   UNL     1      46.434   6.364  11.242  0.00  0.00    +0.000 A 
ATOM      9  C   UNL     1      45.542   5.556  11.958  0.00  0.00    +0.000 A 
ENDROOT
BRANCH   6  10
ATOM     10  C   UNL     1      49.142   6.894  13.841  0.00  0.00    +0.000 C 
ATOM     11  N   UNL     1      49.999   7.636  13.079  0.00  0.00    +0.000 N 
ATOM     12  O   UNL     1      49.438   6.627  15.003  0.00  0.00    +0.000 OA
ATOM     13  H   UNL     1      49.849   7.908  12.121  0.00  0.00    +0.000 HD
ATOM     14  H   UNL     1      50.854   7.942  13.525  0.00  0.00    +0.000 HD
ENDBRANCH   6  10
BRANCH   1  15
ATOM     15  C   UNL     1      43.786   4.806  10.278  0.00  0.00    +0.000 C 
BRANCH  15  19
ATOM     16  C   UNL     1      46.154   2.281   7.772  0.00  0.00    +0.000 A 
ATOM     17  C   UNL     1      45.379   1.699   8.773  0.00  0.00    +0.000 A 
ATOM     18  C   UNL     1      44.575   2.501   9.581  0.00  0.00    +0.000 A 
ATOM     19  C   UNL     1      44.587   3.883   9.392  0.00  0.00    +0.000 A 
ATOM     20  N   UNL     1      45.315   4.463   8.404  0.00  0.00    +0.000 NA
ATOM     21  C   UNL     1      46.067   3.659   7.618  0.00  0.00    +0.000 A 
BRANCH  16  22
ATOM     22  C   UNL     1      47.018   1.439   6.870  0.00  0.00    +0.000 C 
BRANCH  22  23
ATOM     23  C   UNL     1      48.283   2.189   6.444  0.00  0.00    +0.000 C 
BRANCH  23  24
ATOM     24  N   UNL     1      48.268   2.478   5.011  0.00  0.00    +0.000 NA
ATOM     25  H   UNL     1      47.348   2.251   4.633  0.00  0.00    +0.000 HD
ATOM     26  H   UNL     1      48.928   1.867   4.530  0.00  0.00    +0.000 HD
ENDBRANCH  23  24
ENDBRANCH  22  23
ENDBRANCH  16  22
ENDBRANCH  15  19
ENDBRANCH   1  15
TORSDOF 6
ENDMDL
MODEL 2
REMARK VINA RESULT:    -7.691      1.640      2.111
REMARK INTER + INTRA:         -10.764
REMARK INTER:                 -10.271
REMARK INTRA:                  -0.494
REMARK UNBOUND:                -0.600
REMARK  Name = 
REMARK  6 active torsions:
REMARK  status: ('A' for Active; 'I' for Inactive)
REMARK    1  A    between atoms: N_1  and  C_2
REMARK    2  A    between atoms: C_2  and  C_3
REMARK    3  A    between atoms: C_3  and  C_4
REMARK    4  A    between atoms: C_7  and  C_8
REMARK    5  A    between atoms: C_8  and  N_9
REMARK    6  A    between atoms: C_14  and  C_15
REMARK                            x       y       z     vdW  Elec       q    Type
REMARK                         _______ _______ _______ _____ _____    ______ ____
ROOT
ATOM      1  N   UNL     1      44.656   5.576  11.179  0.00  0.00    +0.000 N 
ATOM      2  N   UNL     1      44.683   6.929  11.089  0.00  0.00    +0.000 NA
ATOM      3  C   UNL     1      45.436   7.296  12.128  0.00  0.00    +0.000 A 
ATOM      4  C   UNL     1      45.930   6.197  12.861  0.00  0.00    +0.000 A 
ATOM      5  C   UNL     1      46.717   6.039  14.019  0.00  0.00    +0.000 A 
ATOM      6  C   UNL     1      46.997   4.743  14.484  0.00  0.00    +0.000 A 
ATOM      7  C   UNL     1      46.514   3.633  13.775  0.00  0.00    +0.000 A 
ATOM      8  C   UNL     1      45.736   3.773  12.618  0.00  0.00    +0.000 A 
ATOM      9  C   UNL     1      45.443   5.076  12.195  0.00  0.00    +0.000 A 
ENDROOT
BRANCH   6  10
ATOM     10  C   UNL     1      47.779   4.487  15.730  0.00  0.00    +0.000 C 
ATOM     11  N   UNL     1      47.963   5.513  16.615  0.00  0.00    +0.000 N 
ATOM     12  O   UNL     1      48.249   3.380  15.977  0.00  0.00    +0.000 OA
ATOM     13  H   UNL     1      47.619   6.453  16.506  0.00  0.00    +0.000 HD
ATOM     14  H   UNL     1      48.487   5.300  17.453  0.00  0.00    +0.000 HD
ENDBRANCH   6  10
BRANCH   1  15
ATOM     15  C   UNL     1      43.787   4.827  10.281  0.00  0.00    +0.000 C 
BRANCH  15  19
ATOM     16  C   UNL     1      46.150   2.295   7.777  0.00  0.00    +0.000 A 
ATOM     17  C   UNL     1      45.339   1.712   8.749  0.00  0.00    +0.000 A 
ATOM     18  C   UNL     1      44.537   2.518   9.555  0.00  0.00    +0.000 A 
ATOM     19  C   UNL     1      44.586   3.903   9.394  0.00  0.00    +0.000 A 
ATOM     20  N   UNL     1      45.349   4.484   8.434  0.00  0.00    +0.000 NA
ATOM     21  C   UNL     1      46.100   3.677   7.649  0.00  0.00    +0.000 A 
BRANCH  16  22
ATOM     22  C   UNL     1      47.014   1.450   6.878  0.00  0.00    +0.000 C 
BRANCH  22  23
ATOM     23  C   UNL     1      48.279   2.198   6.450  0.00  0.00    +0.000 C 
BRANCH  23  24
ATOM     24  N   UNL     1      48.272   2.469   5.013  0.00  0.00    +0.000 NA
ATOM     25  H   UNL     1      47.942   1.640   4.518  0.00  0.00    +0.000 HD
ATOM     26  H   UNL     1      49.225   2.629   4.688  0.00  0.00    +0.000 HD
ENDBRANCH  23  24
ENDBRANCH  22  23
ENDBRANCH  16  22
ENDBRANCH  15  19
ENDBRANCH   1  15
TORSDOF 6
ENDMDL
MODEL 3
REMARK VINA RESULT:    -7.596      2.511      6.513
REMARK INTER + INTRA:         -10.639
REMARK INTER:                 -10.069
REMARK INTRA:                  -0.570
REMARK UNBOUND:                -0.600
REMARK  Name = 
REMARK  6 active torsions:
REMARK  status: ('A' for Active; 'I' for Inactive)
REMARK    1  A    between atoms: N_1  and  C_2
REMARK    2  A    between atoms: C_2  and  C_3
REMARK    3  A    between atoms: C_3  and  C_4
REMARK    4  A    between atoms: C_7  and  C_8
REMARK    5  A    between atoms: C_8  and  N_9
REMARK    6  A    between atoms: C_14  and  C_15
REMARK                            x       y       z     vdW  Elec       q    Type
REMARK                         _______ _______ _______ _____ _____    ______ ____
ROOT
ATOM      1  N   UNL     1      43.950   4.119  10.490  0.00  0.00    +0.000 N 
ATOM      2  N   UNL     1      43.433   2.970  10.990  0.00  0.00    +0.000 NA
ATOM      3  C   UNL     1      44.005   2.021  10.247  0.00  0.00    +0.000 A 
ATOM      4  C   UNL     1      44.916   2.538   9.303  0.00  0.00    +0.000 A 
ATOM      5  C   UNL     1      45.732   1.990   8.294  0.00  0.00    +0.000 A 
ATOM      6  C   UNL     1      46.519   2.849   7.509  0.00  0.00    +0.000 A 
ATOM      7  C   UNL     1      46.501   4.229   7.760  0.00  0.00    +0.000 A 
ATOM      8  C   UNL     1      45.700   4.790   8.765  0.00  0.00    +0.000 A 
ATOM      9  C   UNL     1      44.899   3.915   9.510  0.00  0.00    +0.000 A 
ENDROOT
BRANCH   6  10
ATOM     10  C   UNL     1      47.371   2.356   6.386  0.00  0.00    +0.000 C 
ATOM     11  N   UNL     1      47.302   2.991   5.178  0.00  0.00    +0.000 N 
ATOM     12  O   UNL     1      48.132   1.404   6.529  0.00  0.00    +0.000 OA
ATOM     13  H   UNL     1      46.713   3.778   4.959  0.00  0.00    +0.000 HD
ATOM     14  H   UNL     1      47.903   2.637   4.445  0.00  0.00    +0.000 HD
ENDBRANCH   6  10
BRANCH   1  15
ATOM     15  C   UNL     1      43.430   5.394  10.967  0.00  0.00    +0.000 C 
BRANCH  15  19
ATOM     16  C   UNL     1      46.516   7.510  13.031  0.00  0.00    +0.000 A 
ATOM     17  C   UNL     1      45.769   8.183  12.066  0.00  0.00    +0.000 A 
ATOM     18  C   UNL     1      44.736   7.520  11.404  0.00  0.00    +0.000 A 
ATOM     19  C   UNL     1      44.492   6.179  11.697  0.00  0.00    +0.000 A 
ATOM     20  N   UNL     1      45.193   5.517  12.653  0.00  0.00    +0.000 NA
ATOM     21  C   UNL     1      46.173   6.191  13.298  0.00  0.00    +0.000 A 
BRANCH  16  22
ATOM     22  C   UNL     1      47.625   8.204  13.777  0.00  0.00    +0.000 C 
BRANCH  22  23
ATOM     23  C   UNL     1      48.677   7.208  14.274  0.00  0.00    +0.000 C 
BRANCH  23  24
ATOM     24  N   UNL     1      49.690   6.955  13.250  0.00  0.00    +0.000 NA
ATOM     25  H   UNL     1      50.116   6.043  13.419  0.00  0.00    +0.000 HD
ATOM     26  H   UNL     1      50.443   7.637  13.335  0.00  0.00    +0.000 HD
ENDBRANCH  23  24
ENDBRANCH  22  23
ENDBRANCH  16  22
ENDBRANCH  15  19
ENDBRANCH   1  15
TORSDOF 6
ENDMDL
MODEL 4
REMARK VINA RESULT:    -7.311      1.537      2.143
REMARK INTER + INTRA:         -10.262
REMARK INTER:                  -9.734
REMARK INTRA:                  -0.528
REMARK UNBOUND:                -0.600
REMARK  Name = 
REMARK  6 active torsions:
REMARK  status: ('A' for Active; 'I' for Inactive)
REMARK    1  A    between atoms: N_1  and  C_2
REMARK    2  A    between atoms: C_2  and  C_3
REMARK    3  A    between atoms: C_3  and  C_4
REMARK    4  A    between atoms: C_7  and  C_8
REMARK    5  A    between atoms: C_8  and  N_9
REMARK    6  A    between atoms: C_14  and  C_15
REMARK                            x       y       z     vdW  Elec       q    Type
REMARK                         _______ _______ _______ _____ _____    ______ ____
ROOT
ATOM      1  N   UNL     1      44.692   6.113  11.352  0.00  0.00    +0.000 N 
ATOM      2  N   UNL     1      44.496   7.421  11.050  0.00  0.00    +0.000 NA
ATOM      3  C   UNL     1      45.329   8.059  11.874  0.00  0.00    +0.000 A 
ATOM      4  C   UNL     1      46.091   7.180  12.672  0.00  0.00    +0.000 A 
ATOM      5  C   UNL     1      47.056   7.332  13.687  0.00  0.00    +0.000 A 
ATOM      6  C   UNL     1      47.599   6.185  14.291  0.00  0.00    +0.000 A 
ATOM      7  C   UNL     1      47.194   4.915  13.856  0.00  0.00    +0.000 A 
ATOM      8  C   UNL     1      46.240   4.747  12.843  0.00  0.00    +0.000 A 
ATOM      9  C   UNL     1      45.689   5.905  12.281  0.00  0.00    +0.000 A 
ENDROOT
BRANCH   6  10
ATOM     10  C   UNL     1      48.588   6.258  15.408  0.00  0.00    +0.000 C 
ATOM     11  N   UNL     1      48.195   5.881  16.662  0.00  0.00    +0.000 N 
ATOM     12  O   UNL     1      49.740   6.638  15.221  0.00  0.00    +0.000 OA
ATOM     13  H   UNL     1      47.277   5.555  16.917  0.00  0.00    +0.000 HD
ATOM     14  H   UNL     1      48.895   5.932  17.390  0.00  0.00    +0.000 HD
ENDBRANCH   6  10
BRANCH   1  15
ATOM     15  C   UNL     1      43.827   5.111  10.743  0.00  0.00    +0.000 C 
BRANCH  15  19
ATOM     16  C   UNL     1      45.912   2.506   8.074  0.00  0.00    +0.000 A 
ATOM     17  C   UNL     1      46.124   3.880   7.975  0.00  0.00    +0.000 A 
ATOM     18  C   UNL     1      45.478   4.744   8.857  0.00  0.00    +0.000 A 
ATOM     19  C   UNL     1      44.601   4.218   9.805  0.00  0.00    +0.000 A 
ATOM     20  N   UNL     1      44.405   2.881   9.932  0.00  0.00    +0.000 NA
ATOM     21  C   UNL     1      45.063   2.062   9.080  0.00  0.00    +0.000 A 
BRANCH  16  22
ATOM     22  C   UNL     1      46.610   1.544   7.149  0.00  0.00    +0.000 C 
BRANCH  22  23
ATOM     23  C   UNL     1      48.060   1.964   6.891  0.00  0.00    +0.000 C 
BRANCH  23  24
ATOM     24  N   UNL     1      48.381   1.904   5.466  0.00  0.00    +0.000 NA
ATOM     25  H   UNL     1      49.374   1.694   5.356  0.00  0.00    +0.000 HD
ATOM     26  H   UNL     1      48.240   2.820   5.042  0.00  0.00    +0.000 HD
ENDBRANCH  23  24
ENDBRANCH  22  23
ENDBRANCH  16  22
ENDBRANCH  15  19
ENDBRANCH   1  15
TORSDOF 6
ENDMDL
MODEL 5
REMARK VINA RESULT:    -5.937      4.123      8.502
REMARK INTER + INTRA:          -8.446
REMARK INTER:                  -7.883
REMARK INTRA:                  -0.563
REMARK UNBOUND:                -0.600
REMARK  Name = 
REMARK  6 active torsions:
REMARK  status: ('A' for Active; 'I' for Inactive)
REMARK    1  A    between atoms: N_1  and  C_2
REMARK    2  A    between atoms: C_2  and  C_3
REMARK    3  A    between atoms: C_3  and  C_4
REMARK    4  A    between atoms: C_7  and  C_8
REMARK    5  A    between atoms: C_8  and  N_9
REMARK    6  A    between atoms: C_14  and  C_15
REMARK                            x       y       z     vdW  Elec       q    Type
REMARK                         _______ _______ _______ _____ _____    ______ ____
ROOT
ATOM      1  N   UNL     1      47.506   7.318  13.676  0.00  0.00    +0.000 N 
ATOM      2  N   UNL     1      46.904   8.508  13.432  0.00  0.00    +0.000 NA
ATOM      3  C   UNL     1      45.731   8.161  12.900  0.00  0.00    +0.000 A 
ATOM      4  C   UNL     1      45.550   6.764  12.836  0.00  0.00    +0.000 A 
ATOM      5  C   UNL     1      44.542   5.906  12.353  0.00  0.00    +0.000 A 
ATOM      6  C   UNL     1      44.727   4.516  12.442  0.00  0.00    +0.000 A 
ATOM      7  C   UNL     1      45.893   4.008  13.032  0.00  0.00    +0.000 A 
ATOM      8  C   UNL     1      46.902   4.848  13.524  0.00  0.00    +0.000 A 
ATOM      9  C   UNL     1      46.709   6.229  13.392  0.00  0.00    +0.000 A 
ENDROOT
BRANCH   6  10
ATOM     10  C   UNL     1      43.733   3.537  11.908  0.00  0.00    +0.000 C 
ATOM     11  N   UNL     1      43.684   2.284  12.452  0.00  0.00    +0.000 N 
ATOM     12  O   UNL     1      42.960   3.837  11.003  0.00  0.00    +0.000 OA
ATOM     13  H   UNL     1      44.271   1.942  13.195  0.00  0.00    +0.000 HD
ATOM     14  H   UNL     1      42.990   1.653  12.074  0.00  0.00    +0.000 HD
ENDBRANCH   6  10
BRANCH   1  15
ATOM     15  C   UNL     1      48.891   7.307  14.128  0.00  0.00    +0.000 C 
BRANCH  15  19
ATOM     16  C   UNL     1      49.259   6.378  18.283  0.00  0.00    +0.000 A 
ATOM     17  C   UNL     1      48.837   7.654  17.914  0.00  0.00    +0.000 A 
ATOM     18  C   UNL     1      48.680   7.967  16.565  0.00  0.00    +0.000 A 
ATOM     19  C   UNL     1      48.982   7.003  15.603  0.00  0.00    +0.000 A 
ATOM     20  N   UNL     1      49.367   5.748  15.947  0.00  0.00    +0.000 NA
ATOM     21  C   UNL     1      49.488   5.462  17.264  0.00  0.00    +0.000 A 
BRANCH  16  22
ATOM     22  C   UNL     1      49.419   6.002  19.732  0.00  0.00    +0.000 C 
BRANCH  22  23
ATOM     23  C   UNL     1      48.180   5.279  20.266  0.00  0.00    +0.000 C 
BRANCH  23  24
ATOM     24  N   UNL     1      48.482   3.887  20.596  0.00  0.00    +0.000 NA
ATOM     25  H   UNL     1      48.253   3.718  21.576  0.00  0.00    +0.000 HD
ATOM     26  H   UNL     1      49.485   3.723  20.511  0.00  0.00    +0.000 HD
ENDBRANCH  23  24
ENDBRANCH  22  23
ENDBRANCH  16  22
ENDBRANCH  15  19
ENDBRANCH   1  15
TORSDOF 6
ENDMDL
MODEL 6
REMARK VINA RESULT:    -5.915      4.585      7.989
REMARK INTER + INTRA:          -8.417
REMARK INTER:                  -8.105
REMARK INTRA:                  -0.312
REMARK UNBOUND:                -0.600
REMARK  Name = 
REMARK  6 active torsions:
REMARK  status: ('A' for Active; 'I' for Inactive)
REMARK    1  A    between atoms: N_1  and  C_2
REMARK    2  A    between atoms: C_2  and  C_3
REMARK    3  A    between atoms: C_3  and  C_4
REMARK    4  A    between atoms: C_7  and  C_8
REMARK    5  A    between atoms: C_8  and  N_9
REMARK    6  A    between atoms: C_14  and  C_15
REMARK                            x       y       z     vdW  Elec       q    Type
REMARK                         _______ _______ _______ _____ _____    ______ ____
ROOT
ATOM      1  N   UNL     1      47.307   5.052  15.149  0.00  0.00    +0.000 N 
ATOM      2  N   UNL     1      48.307   5.967  15.117  0.00  0.00    +0.000 NA
ATOM      3  C   UNL     1      48.272   6.426  13.865  0.00  0.00    +0.000 A 
ATOM      4  C   UNL     1      47.236   5.850  13.100  0.00  0.00    +0.000 A 
ATOM      5  C   UNL     1      46.797   5.959  11.765  0.00  0.00    +0.000 A 
ATOM      6  C   UNL     1      45.705   5.185  11.339  0.00  0.00    +0.000 A 
ATOM      7  C   UNL     1      45.054   4.343  12.252  0.00  0.00    +0.000 A 
ATOM      8  C   UNL     1      45.473   4.228  13.585  0.00  0.00    +0.000 A 
ATOM      9  C   UNL     1      46.586   4.984  13.975  0.00  0.00    +0.000 A 
ENDROOT
BRANCH   6  10
ATOM     10  C   UNL     1      45.209   5.202   9.931  0.00  0.00    +0.000 C 
ATOM     11  N   UNL     1      43.892   4.925   9.692  0.00  0.00    +0.000 N 
ATOM     12  O   UNL     1      45.954   5.466   8.992  0.00  0.00    +0.000 OA
ATOM     13  H   UNL     1      43.203   4.699  10.390  0.00  0.00    +0.000 HD
ATOM     14  H   UNL     1      43.589   4.958   8.727  0.00  0.00    +0.000 HD
ENDBRANCH   6  10
BRANCH   1  15
ATOM     15  C   UNL     1      47.144   4.225  16.338  0.00  0.00    +0.000 C 
BRANCH  15  19
ATOM     16  C   UNL     1      50.846   2.328  17.318  0.00  0.00    +0.000 A 
ATOM     17  C   UNL     1      50.535   3.547  17.918  0.00  0.00    +0.000 A 
ATOM     18  C   UNL     1      49.319   4.167  17.636  0.00  0.00    +0.000 A 
ATOM     19  C   UNL     1      48.446   3.568  16.728  0.00  0.00    +0.000 A 
ATOM     20  N   UNL     1      48.721   2.368  16.157  0.00  0.00    +0.000 NA
ATOM     21  C   UNL     1      49.897   1.776  16.467  0.00  0.00    +0.000 A 
BRANCH  16  22
ATOM     22  C   UNL     1      52.143   1.624  17.617  0.00  0.00    +0.000 C 
BRANCH  22  23
ATOM     23  C   UNL     1      53.120   2.538  18.362  0.00  0.00    +0.000 C 
BRANCH  23  24
ATOM     24  N   UNL     1      53.964   1.772  19.278  0.00  0.00    +0.000 NA
ATOM     25  H   UNL     1      54.930   1.805  18.949  0.00  0.00    +0.000 HD
ATOM     26  H   UNL     1      53.694   0.790  19.256  0.00  0.00    +0.000 HD
ENDBRANCH  23  24
ENDBRANCH  22  23
ENDBRANCH  16  22
ENDBRANCH  15  19
ENDBRANCH   1  15
TORSDOF 6
ENDMDL
MODEL 7
REMARK VINA RESULT:    -5.829      2.178      3.208
REMARK INTER + INTRA:          -8.303
REMARK INTER:                  -7.732
REMARK INTRA:                  -0.570
REMARK UNBOUND:                -0.600
REMARK  Name = 
REMARK  6 active torsions:
REMARK  status: ('A' for Active; 'I' for Inactive)
REMARK    1  A    between atoms: N_1  and  C_2
REMARK    2  A    between atoms: C_2  and  C_3
REMARK    3  A    between atoms: C_3  and  C_4
REMARK    4  A    between atoms: C_7  and  C_8
REMARK    5  A    between atoms: C_8  and  N_9
REMARK    6  A    between atoms: C_14  and  C_15
REMARK                            x       y       z     vdW  Elec       q    Type
REMARK                         _______ _______ _______ _____ _____    ______ ____
ROOT
ATOM      1  N   UNL     1      45.336   7.285  12.487  0.00  0.00    +0.000 N 
ATOM      2  N   UNL     1      44.750   8.429  12.055  0.00  0.00    +0.000 NA
ATOM      3  C   UNL     1      45.777   9.265  11.893  0.00  0.00    +0.000 A 
ATOM      4  C   UNL     1      47.022   8.663  12.174  0.00  0.00    +0.000 A 
ATOM      5  C   UNL     1      48.363   9.096  12.189  0.00  0.00    +0.000 A 
ATOM      6  C   UNL     1      49.370   8.188  12.555  0.00  0.00    +0.000 A 
ATOM      7  C   UNL     1      49.030   6.865  12.871  0.00  0.00    +0.000 A 
ATOM      8  C   UNL     1      47.702   6.417  12.854  0.00  0.00    +0.000 A 
ATOM      9  C   UNL     1      46.713   7.350  12.519  0.00  0.00    +0.000 A 
ENDROOT
BRANCH   6  10
ATOM     10  C   UNL     1      50.809   8.579  12.646  0.00  0.00    +0.000 C 
ATOM     11  N   UNL     1      51.624   7.895  13.504  0.00  0.00    +0.000 N 
ATOM     12  O   UNL     1      51.271   9.489  11.965  0.00  0.00    +0.000 OA
ATOM     13  H   UNL     1      51.344   7.136  14.103  0.00  0.00    +0.000 HD
ATOM     14  H   UNL     1      52.595   8.179  13.531  0.00  0.00    +0.000 HD
ENDBRANCH   6  10
BRANCH   1  15
ATOM     15  C   UNL     1      44.491   6.179  12.918  0.00  0.00    +0.000 C 
BRANCH  15  19
ATOM     16  C   UNL     1      44.609   3.066   9.993  0.00  0.00    +0.000 A 
ATOM     17  C   UNL     1      45.032   2.786  11.291  0.00  0.00    +0.000 A 
ATOM     18  C   UNL     1      44.971   3.778  12.268  0.00  0.00    +0.000 A 
ATOM     19  C   UNL     1      44.518   5.050  11.917  0.00  0.00    +0.000 A 
ATOM     20  N   UNL     1      44.077   5.331  10.665  0.00  0.00    +0.000 NA
ATOM     21  C   UNL     1      44.123   4.343   9.742  0.00  0.00    +0.000 A 
BRANCH  16  22
ATOM     22  C   UNL     1      44.644   2.010   8.920  0.00  0.00    +0.000 C 
BRANCH  22  23
ATOM     23  C   UNL     1      45.996   1.982   8.203  0.00  0.00    +0.000 C 
BRANCH  23  24
ATOM     24  N   UNL     1      46.472   0.611   8.027  0.00  0.00    +0.000 NA
ATOM     25  H   UNL     1      46.307   0.086   8.886  0.00  0.00    +0.000 HD
ATOM     26  H   UNL     1      47.482   0.612   7.888  0.00  0.00    +0.000 HD
ENDBRANCH  23  24
ENDBRANCH  22  23
ENDBRANCH  16  22
ENDBRANCH  15  19
ENDBRANCH   1  15
TORSDOF 6
ENDMDL
MODEL 8
REMARK VINA RESULT:    -5.602      2.343      3.373
REMARK INTER + INTRA:          -8.004
REMARK INTER:                  -7.706
REMARK INTRA:                  -0.298
REMARK UNBOUND:                -0.600
REMARK  Name = 
REMARK  6 active torsions:
REMARK  status: ('A' for Active; 'I' for Inactive)
REMARK    1  A    between atoms: N_1  and  C_2
REMARK    2  A    between atoms: C_2  and  C_3
REMARK    3  A    between atoms: C_3  and  C_4
REMARK    4  A    between atoms: C_7  and  C_8
REMARK    5  A    between atoms: C_8  and  N_9
REMARK    6  A    between atoms: C_14  and  C_15
REMARK                            x       y       z     vdW  Elec       q    Type
REMARK                         _______ _______ _______ _____ _____    ______ ____
ROOT
ATOM      1  N   UNL     1      46.075   6.419  13.106  0.00  0.00    +0.000 N 
ATOM      2  N   UNL     1      46.608   7.602  12.713  0.00  0.00    +0.000 NA
ATOM      3  C   UNL     1      47.658   7.755  13.522  0.00  0.00    +0.000 A 
ATOM      4  C   UNL     1      47.835   6.667  14.403  0.00  0.00    +0.000 A 
ATOM      5  C   UNL     1      48.736   6.354  15.439  0.00  0.00    +0.000 A 
ATOM      6  C   UNL     1      48.583   5.144  16.136  0.00  0.00    +0.000 A 
ATOM      7  C   UNL     1      47.559   4.258  15.771  0.00  0.00    +0.000 A 
ATOM      8  C   UNL     1      46.658   4.551  14.737  0.00  0.00    +0.000 A 
ATOM      9  C   UNL     1      46.811   5.780  14.082  0.00  0.00    +0.000 A 
ENDROOT
BRANCH   6  10
ATOM     10  C   UNL     1      49.462   4.758  17.280  0.00  0.00    +0.000 C 
ATOM     11  N   UNL     1      49.073   5.083  18.549  0.00  0.00    +0.000 N 
ATOM     12  O   UNL     1      50.516   4.154  17.104  0.00  0.00    +0.000 OA
ATOM     13  H   UNL     1      48.230   5.576  18.798  0.00  0.00    +0.000 HD
ATOM     14  H   UNL     1      49.687   4.796  19.299  0.00  0.00    +0.000 HD
ENDBRANCH   6  10
BRANCH   1  15
ATOM     15  C   UNL     1      44.805   5.992  12.533  0.00  0.00    +0.000 C 
BRANCH  15  19
ATOM     16  C   UNL     1      45.259   3.927   8.820  0.00  0.00    +0.000 A 
ATOM     17  C   UNL     1      45.884   5.162   8.983  0.00  0.00    +0.000 A 
ATOM     18  C   UNL     1      45.774   5.838  10.198  0.00  0.00    +0.000 A 
ATOM     19  C   UNL     1      45.010   5.276  11.221  0.00  0.00    +0.000 A 
ATOM     20  N   UNL     1      44.419   4.062  11.087  0.00  0.00    +0.000 NA
ATOM     21  C   UNL     1      44.561   3.417   9.907  0.00  0.00    +0.000 A 
BRANCH  16  22
ATOM     22  C   UNL     1      45.375   3.164   7.527  0.00  0.00    +0.000 C 
BRANCH  22  23
ATOM     23  C   UNL     1      46.838   2.927   7.143  0.00  0.00    +0.000 C 
BRANCH  23  24
ATOM     24  N   UNL     1      47.140   3.504   5.834  0.00  0.00    +0.000 NA
ATOM     25  H   UNL     1      47.184   2.758   5.141  0.00  0.00    +0.000 HD
ATOM     26  H   UNL     1      48.068   3.927   5.851  0.00  0.00    +0.000 HD
ENDBRANCH  23  24
ENDBRANCH  22  23
ENDBRANCH  16  22
ENDBRANCH  15  19
ENDBRANCH   1  15
TORSDOF 6
ENDMDL
MODEL 9
REMARK VINA RESULT:    -5.455      3.835      6.297
REMARK INTER + INTRA:          -7.809
REMARK INTER:                  -7.287
REMARK INTRA:                  -0.522
REMARK UNBOUND:                -0.600
REMARK  Name = 
REMARK  6 active torsions:
REMARK  status: ('A' for Active; 'I' for Inactive)
REMARK    1  A    between atoms: N_1  and  C_2
REMARK    2  A    between atoms: C_2  and  C_3
REMARK    3  A    between atoms: C_3  and  C_4
REMARK    4  A    between atoms: C_7  and  C_8
REMARK    5  A    between atoms: C_8  and  N_9
REMARK    6  A    between atoms: C_14  and  C_15
REMARK                            x       y       z     vdW  Elec       q    Type
REMARK                         _______ _______ _______ _____ _____    ______ ____
ROOT
ATOM      1  N   UNL     1      48.729   7.235  14.889  0.00  0.00    +0.000 N 
ATOM      2  N   UNL     1      48.702   8.583  15.034  0.00  0.00    +0.000 NA
ATOM      3  C   UNL     1      48.635   8.754  16.355  0.00  0.00    +0.000 A 
ATOM      4  C   UNL     1      48.661   7.537  17.067  0.00  0.00    +0.000 A 
ATOM      5  C   UNL     1      48.587   7.170  18.425  0.00  0.00    +0.000 A 
ATOM      6  C   UNL     1      48.623   5.808  18.768  0.00  0.00    +0.000 A 
ATOM      7  C   UNL     1      48.760   4.842  17.760  0.00  0.00    +0.000 A 
ATOM      8  C   UNL     1      48.842   5.192  16.405  0.00  0.00    +0.000 A 
ATOM      9  C   UNL     1      48.768   6.553  16.087  0.00  0.00    +0.000 A 
ENDROOT
BRANCH   6  10
ATOM     10  C   UNL     1      48.499   5.331  20.178  0.00  0.00    +0.000 C 
ATOM     11  N   UNL     1      48.575   3.989  20.429  0.00  0.00    +0.000 N 
ATOM     12  O   UNL     1      48.338   6.115  21.108  0.00  0.00    +0.000 OA
ATOM     13  H   UNL     1      48.706   3.268  19.739  0.00  0.00    +0.000 HD
ATOM     14  H   UNL     1      48.499   3.704  21.397  0.00  0.00    +0.000 HD
ENDBRANCH   6  10
BRANCH   1  15
ATOM     15  C   UNL     1      48.650   6.667  13.549  0.00  0.00    +0.000 C 
BRANCH  15  19
ATOM     16  C   UNL     1      44.770   5.011  12.871  0.00  0.00    +0.000 A 
ATOM     17  C   UNL     1      44.962   6.377  12.673  0.00  0.00    +0.000 A 
ATOM     18  C   UNL     1      46.228   6.932  12.858  0.00  0.00    +0.000 A 
ATOM     19  C   UNL     1      47.275   6.110  13.273  0.00  0.00    +0.000 A 
ATOM     20  N   UNL     1      47.111   4.774  13.443  0.00  0.00    +0.000 NA
ATOM     21  C   UNL     1      45.879   4.257  13.233  0.00  0.00    +0.000 A 
BRANCH  16  22
ATOM     22  C   UNL     1      43.420   4.379  12.661  0.00  0.00    +0.000 C 
BRANCH  22  23
ATOM     23  C   UNL     1      43.394   3.516  11.396  0.00  0.00    +0.000 C 
BRANCH  23  24
ATOM     24  N   UNL     1      43.049   2.130  11.708  0.00  0.00    +0.000 NA
ATOM     25  H   UNL     1      42.101   1.939  11.381  0.00  0.00    +0.000 HD
ATOM     26  H   UNL     1      43.028   2.000  12.719  0.00  0.00    +0.000 HD
ENDBRANCH  23  24
ENDBRANCH  22  23
ENDBRANCH  16  22
ENDBRANCH  15  19
ENDBRANCH   1  15
TORSDOF 6
ENDMDL
