MODEL 1
REMARK VINA RESULT:    -8.042      0.000      0.000
REMARK INTER + INTRA:         -12.046
REMARK INTER:                 -10.863
REMARK INTRA:                  -1.183
REMARK UNBOUND:                -1.183
REMARK  Name = 
REMARK  7 active torsions:
REMARK  status: ('A' for Active; 'I' for Inactive)
REMARK    1  A    between atoms: C_1  and  C_2
REMARK    2  A    between atoms: C_5  and  C_6
REMARK    3  A    between atoms: N_8  and  C_9
REMARK    4  A    between atoms: C_9  and  C_10
REMARK    5  A    between atoms: C_13  and  C_14
REMARK    6  A    between atoms: C_14  and  N_15
REMARK    7  A    between atoms: C_16  and  C_18
REMARK                            x       y       z     vdW  Elec       q    Type
REMARK                         _______ _______ _______ _____ _____    ______ ____
ROOT
ATOM      1  C   UNL     1      44.745   5.735  10.840  0.00  0.00    +0.000 A 
ATOM      2  C   UNL     1      44.178   6.301  11.991  0.00  0.00    +0.000 A 
ATOM      3  C   UNL     1      44.951   7.080  12.868  0.00  0.00    +0.000 A 
ATOM      4  C   UNL     1      46.303   7.334  12.602  0.00  0.00    +0.000 A 
ATOM      5  C   UNL     1      46.870   6.766  11.454  0.00  0.00    +0.000 A 
ATOM      6  C   UNL     1      46.099   5.985  10.579  0.00  0.00    +0.000 A 
ENDROOT
BRANCH   1   7
ATOM      7  C   UNL     1      43.921   4.876   9.907  0.00  0.00    +0.000 C 
BRANCH   7  10
ATOM      8  C   UNL     1      44.932   2.723   9.228  0.00  0.00    +0.000 C 
ATOM      9  O   UNL     1      44.419   2.111  10.166  0.00  0.00    +0.000 OA
ATOM     10  N   UNL     1      44.737   4.074   9.033  0.00  0.00    +0.000 N 
ATOM     11  H   UNL     1      45.154   4.486   8.206  0.00  0.00    +0.000 HD
BRANCH   8  16
ATOM     12  C   UNL     1      47.594   2.687   5.195  0.00  0.00    +0.000 C 
ATOM     13  C   UNL     1      47.007   2.054   6.395  0.00  0.00    +0.000 A 
ATOM     14  C   UNL     1      47.068   0.786   6.925  0.00  0.00    +0.000 A 
ATOM     15  C   UNL     1      46.281   0.812   8.106  0.00  0.00    +0.000 A 
ATOM     16  C   UNL     1      45.784   2.098   8.229  0.00  0.00    +0.000 A 
ATOM     17  O   UNL     1      46.231   2.855   7.176  0.00  0.00    +0.000 OA
ENDBRANCH   8  16
ENDBRANCH   7  10
ENDBRANCH   1   7
BRANCH   4  18
ATOM     18  C   UNL     1      47.138   8.188  13.531  0.00  0.00    +0.000 C 
BRANCH  18  19
ATOM     19  N   UNL     1      47.571   7.461  14.698  0.00  0.00    +0.000 N 
ATOM     20  C   UNL     1      48.805   6.866  14.768  0.00  0.00    +0.000 C 
ATOM     21  O   UNL     1      49.620   6.941  13.851  0.00  0.00    +0.000 OA
ATOM     22  H   UNL     1      46.844   7.159  15.342  0.00  0.00    +0.000 HD
BRANCH  20  23
ATOM     23  C   UNL     1      49.132   6.183  16.028  0.00  0.00    +0.000 A 
ATOM     24  C   UNL     1      50.188   6.632  16.812  0.00  0.00    +0.000 A 
ATOM     25  S   UNL     1      50.396   5.744  18.255  0.00  0.00    +0.000 S 
ATOM     26  C   UNL     1      49.116   4.695  17.859  0.00  0.00    +0.000 A 
ATOM     27  N   UNL     1      48.777   3.661  18.675  0.00  0.00    +0.000 NA
ATOM     28  C   UNL     1      47.804   2.931  18.238  0.00  0.00    +0.000 A 
ATOM     29  N   UNL     1      47.136   3.150  17.062  0.00  0.00    +0.000 N 
ATOM     30  C   UNL     1      47.417   4.201  16.226  0.00  0.00    +0.000 A 
ATOM     31  O   UNL     1      46.756   4.403  15.212  0.00  0.00    +0.000 OA
ATOM     32  C   UNL     1      48.519   5.037  16.658  0.00  0.00    +0.000 A 
ATOM     33  H   UNL     1      46.369   2.553  16.785  0.00  0.00    +0.000 HD
ENDBRANCH  20  23
ENDBRANCH  18  19
ENDBRANCH   4  18
TORSDOF 6
ENDMDL
MODEL 2
REMARK VINA RESULT:    -7.468      1.851      2.192
REMARK INTER + INTRA:         -11.270
REMARK INTER:                 -10.367
REMARK INTRA:                  -0.903
REMARK UNBOUND:                -1.183
REMARK  Name = 
REMARK  7 active torsions:
REMARK  status: ('A' for Active; 'I' for Inactive)
REMARK    1  A    between atoms: C_1  and  C_2
REMARK    2  A    between atoms: C_5  and  C_6
REMARK    3  A    between atoms: N_8  and  C_9
REMARK    4  A    between atoms: C_9  and  C_10
REMARK    5  A    between atoms: C_13  and  C_14
REMARK    6  A    between atoms: C_14  and  N_15
REMARK    7  A    between atoms: C_16  and  C_18
REMARK                            x       y       z     vdW  Elec       q    Type
REMARK                         _______ _______ _______ _____ _____    ______ ____
ROOT
ATOM      1  C   UNL     1      44.674   5.133  11.753  0.00  0.00    +0.000 A 
ATOM      2  C   UNL     1      45.851   5.113  12.515  0.00  0.00    +0.000 A 
ATOM      3  C   UNL     1      46.469   6.307  12.921  0.00  0.00    +0.000 A 
ATOM      4  C   UNL     1      45.911   7.551  12.597  0.00  0.00    +0.000 A 
ATOM      5  C   UNL     1      44.737   7.571  11.834  0.00  0.00    +0.000 A 
ATOM      6  C   UNL     1      44.121   6.378  11.426  0.00  0.00    +0.000 A 
ENDROOT
BRANCH   1   7
ATOM      7  C   UNL     1      44.020   3.848  11.296  0.00  0.00    +0.000 C 
BRANCH   7  10
ATOM      8  C   UNL     1      44.798   3.412   8.988  0.00  0.00    +0.000 C 
ATOM      9  O   UNL     1      44.083   4.292   8.510  0.00  0.00    +0.000 OA
ATOM     10  N   UNL     1      44.824   3.133  10.338  0.00  0.00    +0.000 N 
ATOM     11  H   UNL     1      45.481   2.428  10.652  0.00  0.00    +0.000 HD
BRANCH   8  16
ATOM     12  C   UNL     1      47.786   2.537   5.292  0.00  0.00    +0.000 C 
ATOM     13  C   UNL     1      47.059   2.154   6.520  0.00  0.00    +0.000 A 
ATOM     14  C   UNL     1      46.990   0.996   7.261  0.00  0.00    +0.000 A 
ATOM     15  C   UNL     1      46.109   1.268   8.341  0.00  0.00    +0.000 A 
ATOM     16  C   UNL     1      45.690   2.580   8.196  0.00  0.00    +0.000 A 
ATOM     17  O   UNL     1      46.274   3.117   7.077  0.00  0.00    +0.000 OA
ENDBRANCH   8  16
ENDBRANCH   7  10
ENDBRANCH   1   7
BRANCH   4  18
ATOM     18  C   UNL     1      46.560   8.842  13.046  0.00  0.00    +0.000 C 
BRANCH  18  19
ATOM     19  N   UNL     1      46.967   8.796  14.428  0.00  0.00    +0.000 N 
ATOM     20  C   UNL     1      48.277   8.620  14.795  0.00  0.00    +0.000 C 
ATOM     21  O   UNL     1      49.179   8.518  13.968  0.00  0.00    +0.000 OA
ATOM     22  H   UNL     1      46.237   8.610  15.111  0.00  0.00    +0.000 HD
BRANCH  20  23
ATOM     23  C   UNL     1      48.558   8.623  16.238  0.00  0.00    +0.000 A 
ATOM     24  C   UNL     1      48.613   9.824  16.935  0.00  0.00    +0.000 A 
ATOM     25  S   UNL     1      48.911   9.634  18.605  0.00  0.00    +0.000 S 
ATOM     26  C   UNL     1      49.030   7.944  18.448  0.00  0.00    +0.000 A 
ATOM     27  N   UNL     1      49.311   7.156  19.520  0.00  0.00    +0.000 NA
ATOM     28  C   UNL     1      49.396   5.895  19.250  0.00  0.00    +0.000 A 
ATOM     29  N   UNL     1      49.219   5.353  18.004  0.00  0.00    +0.000 N 
ATOM     30  C   UNL     1      48.898   6.103  16.901  0.00  0.00    +0.000 A 
ATOM     31  O   UNL     1      48.684   5.577  15.814  0.00  0.00    +0.000 OA
ATOM     32  C   UNL     1      48.815   7.529  17.145  0.00  0.00    +0.000 A 
ATOM     33  H   UNL     1      49.279   4.354  17.862  0.00  0.00    +0.000 HD
ENDBRANCH  20  23
ENDBRANCH  18  19
ENDBRANCH   4  18
TORSDOF 6
ENDMDL
MODEL 3
REMARK VINA RESULT:    -7.366      4.991      9.722
REMARK INTER + INTRA:         -11.133
REMARK INTER:                 -10.312
REMARK INTRA:                  -0.821
REMARK UNBOUND:                -1.183
REMARK  Name = 
REMARK  7 active torsions:
REMARK  status: ('A' for Active; 'I' for Inactive)
REMARK    1  A    between atoms: C_1  and  C_2
REMARK    2  A    between atoms: C_5  and  C_6
REMARK    3  A    between atoms: N_8  and  C_9
REMARK    4  A    between atoms: C_9  and  C_10
REMARK    5  A    between atoms: C_13  and  C_14
REMARK    6  A    between atoms: C_14  and  N_15
REMARK    7  A    between atoms: C_16  and  C_18
REMARK                            x       y       z     vdW  Elec       q    Type
REMARK                         _______ _______ _______ _____ _____    ______ ____
ROOT
ATOM      1  C   UNL     1      51.502   2.917  17.808  0.00  0.00    +0.000 A 
ATOM      2  C   UNL     1      50.736   1.948  17.142  0.00  0.00    +0.000 A 
ATOM      3  C   UNL     1      49.369   2.154  16.893  0.00  0.00    +0.000 A 
ATOM      4  C   UNL     1      48.739   3.345  17.279  0.00  0.00    +0.000 A 
ATOM      5  C   UNL     1      49.503   4.312  17.946  0.00  0.00    +0.000 A 
ATOM      6  C   UNL     1      50.868   4.105  18.198  0.00  0.00    +0.000 A 
ENDROOT
BRANCH   1   7
ATOM      7  C   UNL     1      52.968   2.687  18.098  0.00  0.00    +0.000 C 
BRANCH   7  10
ATOM      8  C   UNL     1      54.133   0.552  17.647  0.00  0.00    +0.000 C 
ATOM      9  O   UNL     1      54.724   1.005  16.667  0.00  0.00    +0.000 OA
ATOM     10  N   UNL     1      53.259   1.309  18.398  0.00  0.00    +0.000 N 
ATOM     11  H   UNL     1      52.856   0.872  19.220  0.00  0.00    +0.000 HD
BRANCH   8  16
ATOM     12  C   UNL     1      53.055  -3.219  20.470  0.00  0.00    +0.000 C 
ATOM     13  C   UNL     1      53.819  -2.551  19.395  0.00  0.00    +0.000 A 
ATOM     14  C   UNL     1      54.833  -2.955  18.558  0.00  0.00    +0.000 A 
ATOM     15  C   UNL     1      55.138  -1.838  17.738  0.00  0.00    +0.000 A 
ATOM     16  C   UNL     1      54.291  -0.813  18.123  0.00  0.00    +0.000 A 
ATOM     17  O   UNL     1      53.485  -1.255  19.141  0.00  0.00    +0.000 OA
ENDBRANCH   8  16
ENDBRANCH   7  10
ENDBRANCH   1   7
BRANCH   4  18
ATOM     18  C   UNL     1      47.272   3.583  16.997  0.00  0.00    +0.000 C 
BRANCH  18  19
ATOM     19  N   UNL     1      47.067   4.575  15.973  0.00  0.00    +0.000 N 
ATOM     20  C   UNL     1      47.110   4.263  14.638  0.00  0.00    +0.000 C 
ATOM     21  O   UNL     1      47.299   3.117  14.240  0.00  0.00    +0.000 OA
ATOM     22  H   UNL     1      47.177   5.547  16.253  0.00  0.00    +0.000 HD
BRANCH  20  23
ATOM     23  C   UNL     1      46.853   5.366  13.699  0.00  0.00    +0.000 A 
ATOM     24  C   UNL     1      47.855   6.286  13.414  0.00  0.00    +0.000 A 
ATOM     25  S   UNL     1      47.391   7.472  12.276  0.00  0.00    +0.000 S 
ATOM     26  C   UNL     1      45.819   6.830  12.165  0.00  0.00    +0.000 A 
ATOM     27  N   UNL     1      44.880   7.407  11.369  0.00  0.00    +0.000 NA
ATOM     28  C   UNL     1      43.724   6.830  11.401  0.00  0.00    +0.000 A 
ATOM     29  N   UNL     1      43.428   5.723  12.153  0.00  0.00    +0.000 N 
ATOM     30  C   UNL     1      44.353   5.085  12.942  0.00  0.00    +0.000 A 
ATOM     31  O   UNL     1      44.069   4.060  13.553  0.00  0.00    +0.000 OA
ATOM     32  C   UNL     1      45.661   5.709  12.961  0.00  0.00    +0.000 A 
ATOM     33  H   UNL     1      42.508   5.306  12.120  0.00  0.00    +0.000 HD
ENDBRANCH  20  23
ENDBRANCH  18  19
ENDBRANCH   4  18
TORSDOF 6
ENDMDL
MODEL 4
REMARK VINA RESULT:    -7.289      1.838      2.339
REMARK INTER + INTRA:         -11.029
REMARK INTER:                 -10.025
REMARK INTRA:                  -1.004
REMARK UNBOUND:                -1.183
REMARK  Name = 
REMARK  7 active torsions:
REMARK  status: ('A' for Active; 'I' for Inactive)
REMARK    1  A    between atoms: C_1  and  C_2
REMARK    2  A    between atoms: C_5  and  C_6
REMARK    3  A    between atoms: N_8  and  C_9
REMARK    4  A    between atoms: C_9  and  C_10
REMARK    5  A    between atoms: C_13  and  C_14
REMARK    6  A    between atoms: C_14  and  N_15
REMARK    7  A    between atoms: C_16  and  C_18
REMARK                            x       y       z     vdW  Elec       q    Type
REMARK                         _______ _______ _______ _____ _____    ______ ____
ROOT
ATOM      1  C   UNL     1      45.829   6.778  12.009  0.00  0.00    +0.000 A 
ATOM      2  C   UNL     1      45.708   8.067  12.549  0.00  0.00    +0.000 A 
ATOM      3  C   UNL     1      46.625   8.539  13.503  0.00  0.00    +0.000 A 
ATOM      4  C   UNL     1      47.700   7.744  13.922  0.00  0.00    +0.000 A 
ATOM      5  C   UNL     1      47.819   6.455  13.385  0.00  0.00    +0.000 A 
ATOM      6  C   UNL     1      46.901   5.982  12.434  0.00  0.00    +0.000 A 
ENDROOT
BRANCH   1   7
ATOM      7  C   UNL     1      44.829   6.260  11.000  0.00  0.00    +0.000 C 
BRANCH   7  10
ATOM      8  C   UNL     1      44.867   4.203   9.625  0.00  0.00    +0.000 C 
ATOM      9  O   UNL     1      43.801   3.796  10.087  0.00  0.00    +0.000 OA
ATOM     10  N   UNL     1      45.435   5.396  10.020  0.00  0.00    +0.000 N 
ATOM     11  H   UNL     1      46.288   5.680   9.550  0.00  0.00    +0.000 HD
BRANCH   8  16
ATOM     12  C   UNL     1      46.811   0.245   7.649  0.00  0.00    +0.000 C 
ATOM     13  C   UNL     1      46.532   1.696   7.696  0.00  0.00    +0.000 A 
ATOM     14  C   UNL     1      46.867   2.754   6.883  0.00  0.00    +0.000 A 
ATOM     15  C   UNL     1      46.291   3.907   7.477  0.00  0.00    +0.000 A 
ATOM     16  C   UNL     1      45.636   3.486   8.621  0.00  0.00    +0.000 A 
ATOM     17  O   UNL     1      45.789   2.128   8.752  0.00  0.00    +0.000 OA
ENDBRANCH   8  16
ENDBRANCH   7  10
ENDBRANCH   1   7
BRANCH   4  18
ATOM     18  C   UNL     1      48.702   8.251  14.935  0.00  0.00    +0.000 C 
BRANCH  18  19
ATOM     19  N   UNL     1      49.562   7.204  15.424  0.00  0.00    +0.000 N 
ATOM     20  C   UNL     1      49.969   7.148  16.733  0.00  0.00    +0.000 C 
ATOM     21  O   UNL     1      49.602   7.971  17.567  0.00  0.00    +0.000 OA
ATOM     22  H   UNL     1      50.085   6.681  14.725  0.00  0.00    +0.000 HD
BRANCH  20  23
ATOM     23  C   UNL     1      50.821   6.008  17.105  0.00  0.00    +0.000 A 
ATOM     24  C   UNL     1      52.144   6.218  17.474  0.00  0.00    +0.000 A 
ATOM     25  S   UNL     1      52.968   4.787  17.910  0.00  0.00    +0.000 S 
ATOM     26  C   UNL     1      51.602   3.831  17.570  0.00  0.00    +0.000 A 
ATOM     27  N   UNL     1      51.640   2.478  17.705  0.00  0.00    +0.000 NA
ATOM     28  C   UNL     1      50.541   1.878  17.388  0.00  0.00    +0.000 A 
ATOM     29  N   UNL     1      49.405   2.511  16.956  0.00  0.00    +0.000 N 
ATOM     30  C   UNL     1      49.308   3.876  16.840  0.00  0.00    +0.000 A 
ATOM     31  O   UNL     1      48.256   4.413  16.511  0.00  0.00    +0.000 OA
ATOM     32  C   UNL     1      50.524   4.596  17.160  0.00  0.00    +0.000 A 
ATOM     33  H   UNL     1      48.569   1.986  16.742  0.00  0.00    +0.000 HD
ENDBRANCH  20  23
ENDBRANCH  18  19
ENDBRANCH   4  18
TORSDOF 6
ENDMDL
MODEL 5
REMARK VINA RESULT:    -7.119      2.008      2.315
REMARK INTER + INTRA:         -10.800
REMARK INTER:                  -9.835
REMARK INTRA:                  -0.965
REMARK UNBOUND:                -1.183
REMARK  Name = 
REMARK  7 active torsions:
REMARK  status: ('A' for Active; 'I' for Inactive)
REMARK    1  A    between atoms: C_1  and  C_2
REMARK    2  A    between atoms: C_5  and  C_6
REMARK    3  A    between atoms: N_8  and  C_9
REMARK    4  A    between atoms: C_9  and  C_10
REMARK    5  A    between atoms: C_13  and  C_14
REMARK    6  A    between atoms: C_14  and  N_15
REMARK    7  A    between atoms: C_16  and  C_18
REMARK                            x       y       z     vdW  Elec       q    Type
REMARK                         _______ _______ _______ _____ _____    ______ ____
ROOT
ATOM      1  C   UNL     1      45.187   6.260  11.460  0.00  0.00    +0.000 A 
ATOM      2  C   UNL     1      44.995   7.616  11.765  0.00  0.00    +0.000 A 
ATOM      3  C   UNL     1      45.839   8.279  12.670  0.00  0.00    +0.000 A 
ATOM      4  C   UNL     1      46.913   7.612  13.273  0.00  0.00    +0.000 A 
ATOM      5  C   UNL     1      47.104   6.257  12.971  0.00  0.00    +0.000 A 
ATOM      6  C   UNL     1      46.259   5.592  12.070  0.00  0.00    +0.000 A 
ENDROOT
BRANCH   1   7
ATOM      7  C   UNL     1      44.264   5.537  10.505  0.00  0.00    +0.000 C 
BRANCH   7  10
ATOM      8  C   UNL     1      44.703   3.332   9.473  0.00  0.00    +0.000 C 
ATOM      9  O   UNL     1      43.827   2.774  10.134  0.00  0.00    +0.000 OA
ATOM     10  N   UNL     1      44.978   4.678   9.596  0.00  0.00    +0.000 N 
ATOM     11  H   UNL     1      45.680   5.065   8.975  0.00  0.00    +0.000 HD
BRANCH   8  16
ATOM     12  C   UNL     1      47.243   3.035   5.372  0.00  0.00    +0.000 C 
ATOM     13  C   UNL     1      46.700   2.483   6.632  0.00  0.00    +0.000 A 
ATOM     14  C   UNL     1      46.793   1.257   7.248  0.00  0.00    +0.000 A 
ATOM     15  C   UNL     1      46.042   1.360   8.449  0.00  0.00    +0.000 A 
ATOM     16  C   UNL     1      45.533   2.646   8.495  0.00  0.00    +0.000 A 
ATOM     17  O   UNL     1      45.938   3.330   7.377  0.00  0.00    +0.000 OA
ENDBRANCH   8  16
ENDBRANCH   7  10
ENDBRANCH   1   7
BRANCH   4  18
ATOM     18  C   UNL     1      47.839   8.324  14.234  0.00  0.00    +0.000 C 
BRANCH  18  19
ATOM     19  N   UNL     1      48.013   7.595  15.465  0.00  0.00    +0.000 N 
ATOM     20  C   UNL     1      49.256   7.274  15.951  0.00  0.00    +0.000 C 
ATOM     21  O   UNL     1      50.288   7.612  15.379  0.00  0.00    +0.000 OA
ATOM     22  H   UNL     1      47.205   7.082  15.809  0.00  0.00    +0.000 HD
BRANCH  20  23
ATOM     23  C   UNL     1      49.291   6.556  17.233  0.00  0.00    +0.000 A 
ATOM     24  C   UNL     1      49.958   5.340  17.334  0.00  0.00    +0.000 A 
ATOM     25  S   UNL     1      49.927   4.670  18.904  0.00  0.00    +0.000 S 
ATOM     26  C   UNL     1      48.977   5.953  19.493  0.00  0.00    +0.000 A 
ATOM     27  N   UNL     1      48.560   5.982  20.787  0.00  0.00    +0.000 NA
ATOM     28  C   UNL     1      47.825   7.001  21.090  0.00  0.00    +0.000 A 
ATOM     29  N   UNL     1      47.478   7.996  20.215  0.00  0.00    +0.000 N 
ATOM     30  C   UNL     1      47.906   8.030  18.911  0.00  0.00    +0.000 A 
ATOM     31  O   UNL     1      47.628   8.970  18.174  0.00  0.00    +0.000 OA
ATOM     32  C   UNL     1      48.714   6.895  18.513  0.00  0.00    +0.000 A 
ATOM     33  H   UNL     1      46.916   8.779  20.519  0.00  0.00    +0.000 HD
ENDBRANCH  20  23
ENDBRANCH  18  19
ENDBRANCH   4  18
TORSDOF 6
ENDMDL
MODEL 6
REMARK VINA RESULT:    -6.925      2.190      2.729
REMARK INTER + INTRA:         -10.537
REMARK INTER:                  -9.931
REMARK INTRA:                  -0.606
REMARK UNBOUND:                -1.183
REMARK  Name = 
REMARK  7 active torsions:
REMARK  status: ('A' for Active; 'I' for Inactive)
REMARK    1  A    between atoms: C_1  and  C_2
REMARK    2  A    between atoms: C_5  and  C_6
REMARK    3  A    between atoms: N_8  and  C_9
REMARK    4  A    between atoms: C_9  and  C_10
REMARK    5  A    between atoms: C_13  and  C_14
REMARK    6  A    between atoms: C_14  and  N_15
REMARK    7  A    between atoms: C_16  and  C_18
REMARK                            x       y       z     vdW  Elec       q    Type
REMARK                         _______ _______ _______ _____ _____    ______ ____
ROOT
ATOM      1  C   UNL     1      44.696   4.783  11.935  0.00  0.00    +0.000 A 
ATOM      2  C   UNL     1      44.198   6.001  11.449  0.00  0.00    +0.000 A 
ATOM      3  C   UNL     1      44.745   7.224  11.870  0.00  0.00    +0.000 A 
ATOM      4  C   UNL     1      45.820   7.259  12.768  0.00  0.00    +0.000 A 
ATOM      5  C   UNL     1      46.315   6.043  13.256  0.00  0.00    +0.000 A 
ATOM      6  C   UNL     1      45.767   4.820  12.838  0.00  0.00    +0.000 A 
ENDROOT
BRANCH   1   7
ATOM      7  C   UNL     1      44.092   3.466  11.501  0.00  0.00    +0.000 C 
BRANCH   7  10
ATOM      8  C   UNL     1      44.834   3.173   9.160  0.00  0.00    +0.000 C 
ATOM      9  O   UNL     1      44.118   4.086   8.748  0.00  0.00    +0.000 OA
ATOM     10  N   UNL     1      44.877   2.808  10.488  0.00  0.00    +0.000 N 
ATOM     11  H   UNL     1      45.534   2.080  10.747  0.00  0.00    +0.000 HD
BRANCH   8  16
ATOM     12  C   UNL     1      47.809   2.533   5.406  0.00  0.00    +0.000 C 
ATOM     13  C   UNL     1      47.070   2.068   6.598  0.00  0.00    +0.000 A 
ATOM     14  C   UNL     1      46.973   0.856   7.242  0.00  0.00    +0.000 A 
ATOM     15  C   UNL     1      46.097   1.059   8.340  0.00  0.00    +0.000 A 
ATOM     16  C   UNL     1      45.708   2.387   8.302  0.00  0.00    +0.000 A 
ATOM     17  O   UNL     1      46.306   3.001   7.231  0.00  0.00    +0.000 OA
ENDBRANCH   8  16
ENDBRANCH   7  10
ENDBRANCH   1   7
BRANCH   4  18
ATOM     18  C   UNL     1      46.428   8.571  13.212  0.00  0.00    +0.000 C 
BRANCH  18  19
ATOM     19  N   UNL     1      47.733   8.398  13.797  0.00  0.00    +0.000 N 
ATOM     20  C   UNL     1      48.858   8.229  13.029  0.00  0.00    +0.000 C 
ATOM     21  O   UNL     1      48.819   8.242  11.802  0.00  0.00    +0.000 OA
ATOM     22  H   UNL     1      47.761   8.119  14.775  0.00  0.00    +0.000 HD
BRANCH  20  23
ATOM     23  C   UNL     1      50.130   8.093  13.754  0.00  0.00    +0.000 A 
ATOM     24  C   UNL     1      51.277   8.711  13.270  0.00  0.00    +0.000 A 
ATOM     25  S   UNL     1      52.649   8.478  14.259  0.00  0.00    +0.000 S 
ATOM     26  C   UNL     1      51.772   7.501  15.341  0.00  0.00    +0.000 A 
ATOM     27  N   UNL     1      52.374   6.935  16.422  0.00  0.00    +0.000 NA
ATOM     28  C   UNL     1      51.595   6.197  17.142  0.00  0.00    +0.000 A 
ATOM     29  N   UNL     1      50.267   5.982  16.880  0.00  0.00    +0.000 N 
ATOM     30  C   UNL     1      49.609   6.561  15.824  0.00  0.00    +0.000 A 
ATOM     31  O   UNL     1      48.405   6.397  15.657  0.00  0.00    +0.000 OA
ATOM     32  C   UNL     1      50.445   7.379  14.969  0.00  0.00    +0.000 A 
ATOM     33  H   UNL     1      49.705   5.409  17.494  0.00  0.00    +0.000 HD
ENDBRANCH  20  23
ENDBRANCH  18  19
ENDBRANCH   4  18
TORSDOF 6
ENDMDL
MODEL 7
REMARK VINA RESULT:    -6.825      5.136      9.778
REMARK INTER + INTRA:         -10.403
REMARK INTER:                  -9.327
REMARK INTRA:                  -1.076
REMARK UNBOUND:                -1.183
REMARK  Name = 
REMARK  7 active torsions:
REMARK  status: ('A' for Active; 'I' for Inactive)
REMARK    1  A    between atoms: C_1  and  C_2
REMARK    2  A    between atoms: C_5  and  C_6
REMARK    3  A    between atoms: N_8  and  C_9
REMARK    4  A    between atoms: C_9  and  C_10
REMARK    5  A    between atoms: C_13  and  C_14
REMARK    6  A    between atoms: C_14  and  N_15
REMARK    7  A    between atoms: C_16  and  C_18
REMARK                            x       y       z     vdW  Elec       q    Type
REMARK                         _______ _______ _______ _____ _____    ______ ____
ROOT
ATOM      1  C   UNL     1      51.544   2.932  17.662  0.00  0.00    +0.000 A 
ATOM      2  C   UNL     1      50.700   1.911  17.201  0.00  0.00    +0.000 A 
ATOM      3  C   UNL     1      49.331   2.145  16.991  0.00  0.00    +0.000 A 
ATOM      4  C   UNL     1      48.776   3.412  17.213  0.00  0.00    +0.000 A 
ATOM      5  C   UNL     1      49.618   4.432  17.676  0.00  0.00    +0.000 A 
ATOM      6  C   UNL     1      50.985   4.198  17.888  0.00  0.00    +0.000 A 
ENDROOT
BRANCH   1   7
ATOM      7  C   UNL     1      53.013   2.676  17.911  0.00  0.00    +0.000 C 
BRANCH   7  10
ATOM      8  C   UNL     1      54.136   0.653  18.784  0.00  0.00    +0.000 C 
ATOM      9  O   UNL     1      54.611   1.252  19.749  0.00  0.00    +0.000 OA
ATOM     10  N   UNL     1      53.346   1.277  17.842  0.00  0.00    +0.000 N 
ATOM     11  H   UNL     1      52.954   0.696  17.109  0.00  0.00    +0.000 HD
BRANCH   8  16
ATOM     12  C   UNL     1      53.521  -4.057  19.679  0.00  0.00    +0.000 C 
ATOM     13  C   UNL     1      54.081  -2.920  18.918  0.00  0.00    +0.000 A 
ATOM     14  C   UNL     1      54.904  -2.826  17.820  0.00  0.00    +0.000 A 
ATOM     15  C   UNL     1      55.076  -1.439  17.570  0.00  0.00    +0.000 A 
ATOM     16  C   UNL     1      54.346  -0.765  18.534  0.00  0.00    +0.000 A 
ATOM     17  O   UNL     1      53.740  -1.678  19.359  0.00  0.00    +0.000 OA
ENDBRANCH   8  16
ENDBRANCH   7  10
ENDBRANCH   1   7
BRANCH   4  18
ATOM     18  C   UNL     1      47.306   3.677  16.972  0.00  0.00    +0.000 C 
BRANCH  18  19
ATOM     19  N   UNL     1      47.091   4.667  15.947  0.00  0.00    +0.000 N 
ATOM     20  C   UNL     1      47.083   4.345  14.614  0.00  0.00    +0.000 C 
ATOM     21  O   UNL     1      47.232   3.191  14.219  0.00  0.00    +0.000 OA
ATOM     22  H   UNL     1      47.233   5.638  16.215  0.00  0.00    +0.000 HD
BRANCH  20  23
ATOM     23  C   UNL     1      46.822   5.447  13.676  0.00  0.00    +0.000 A 
ATOM     24  C   UNL     1      45.685   5.428  12.877  0.00  0.00    +0.000 A 
ATOM     25  S   UNL     1      45.526   6.805  11.880  0.00  0.00    +0.000 S 
ATOM     26  C   UNL     1      46.997   7.450  12.441  0.00  0.00    +0.000 A 
ATOM     27  N   UNL     1      47.479   8.626  11.957  0.00  0.00    +0.000 NA
ATOM     28  C   UNL     1      48.618   8.982  12.453  0.00  0.00    +0.000 A 
ATOM     29  N   UNL     1      49.313   8.270  13.395  0.00  0.00    +0.000 N 
ATOM     30  C   UNL     1      48.849   7.099  13.939  0.00  0.00    +0.000 A 
ATOM     31  O   UNL     1      49.468   6.521  14.827  0.00  0.00    +0.000 OA
ATOM     32  C   UNL     1      47.585   6.641  13.398  0.00  0.00    +0.000 A 
ATOM     33  H   UNL     1      50.191   8.613  13.758  0.00  0.00    +0.000 HD
ENDBRANCH  20  23
ENDBRANCH  18  19
ENDBRANCH   4  18
TORSDOF 6
ENDMDL
MODEL 8
REMARK VINA RESULT:    -6.811      3.781      4.636
REMARK INTER + INTRA:         -10.383
REMARK INTER:                  -9.547
REMARK INTRA:                  -0.836
REMARK UNBOUND:                -1.183
REMARK  Name = 
REMARK  7 active torsions:
REMARK  status: ('A' for Active; 'I' for Inactive)
REMARK    1  A    between atoms: C_1  and  C_2
REMARK    2  A    between atoms: C_5  and  C_6
REMARK    3  A    between atoms: N_8  and  C_9
REMARK    4  A    between atoms: C_9  and  C_10
REMARK    5  A    between atoms: C_13  and  C_14
REMARK    6  A    between atoms: C_14  and  N_15
REMARK    7  A    between atoms: C_16  and  C_18
REMARK                            x       y       z     vdW  Elec       q    Type
REMARK                         _______ _______ _______ _____ _____    ______ ____
ROOT
ATOM      1  C   UNL     1      44.504   4.707  11.836  0.00  0.00    +0.000 A 
ATOM      2  C   UNL     1      43.680   5.779  11.463  0.00  0.00    +0.000 A 
ATOM      3  C   UNL     1      44.031   7.102  11.776  0.00  0.00    +0.000 A 
ATOM      4  C   UNL     1      45.228   7.390  12.445  0.00  0.00    +0.000 A 
ATOM      5  C   UNL     1      46.050   6.319  12.820  0.00  0.00    +0.000 A 
ATOM      6  C   UNL     1      45.698   4.996  12.511  0.00  0.00    +0.000 A 
ENDROOT
BRANCH   1   7
ATOM      7  C   UNL     1      44.116   3.279  11.522  0.00  0.00    +0.000 C 
BRANCH   7  10
ATOM      8  C   UNL     1      44.811   3.110   9.154  0.00  0.00    +0.000 C 
ATOM      9  O   UNL     1      44.021   3.981   8.790  0.00  0.00    +0.000 OA
ATOM     10  N   UNL     1      44.918   2.711  10.469  0.00  0.00    +0.000 N 
ATOM     11  H   UNL     1      45.632   2.025  10.687  0.00  0.00    +0.000 HD
BRANCH   8  16
ATOM     12  C   UNL     1      47.610   2.757   5.230  0.00  0.00    +0.000 C 
ATOM     13  C   UNL     1      47.001   2.228   6.468  0.00  0.00    +0.000 A 
ATOM     14  C   UNL     1      47.079   1.021   7.125  0.00  0.00    +0.000 A 
ATOM     15  C   UNL     1      46.252   1.140   8.273  0.00  0.00    +0.000 A 
ATOM     16  C   UNL     1      45.715   2.416   8.250  0.00  0.00    +0.000 A 
ATOM     17  O   UNL     1      46.176   3.078   7.140  0.00  0.00    +0.000 OA
ENDBRANCH   8  16
ENDBRANCH   7  10
ENDBRANCH   1   7
BRANCH   4  18
ATOM     18  C   UNL     1      45.622   8.814  12.769  0.00  0.00    +0.000 C 
BRANCH  18  19
ATOM     19  N   UNL     1      47.051   9.001  12.753  0.00  0.00    +0.000 N 
ATOM     20  C   UNL     1      47.628  10.159  12.296  0.00  0.00    +0.000 C 
ATOM     21  O   UNL     1      46.960  11.110  11.901  0.00  0.00    +0.000 OA
ATOM     22  H   UNL     1      47.621   8.161  12.814  0.00  0.00    +0.000 HD
BRANCH  20  23
ATOM     23  C   UNL     1      49.095  10.229  12.364  0.00  0.00    +0.000 A 
ATOM     24  C   UNL     1      49.716  11.361  12.878  0.00  0.00    +0.000 A 
ATOM     25  S   UNL     1      51.420  11.251  12.915  0.00  0.00    +0.000 S 
ATOM     26  C   UNL     1      51.391   9.709  12.197  0.00  0.00    +0.000 A 
ATOM     27  N   UNL     1      52.543   9.044  11.913  0.00  0.00    +0.000 NA
ATOM     28  C   UNL     1      52.372   7.896  11.346  0.00  0.00    +0.000 A 
ATOM     29  N   UNL     1      51.151   7.351  11.045  0.00  0.00    +0.000 N 
ATOM     30  C   UNL     1      49.962   7.967  11.346  0.00  0.00    +0.000 A 
ATOM     31  O   UNL     1      48.887   7.422  11.119  0.00  0.00    +0.000 OA
ATOM     32  C   UNL     1      50.099   9.272  11.961  0.00  0.00    +0.000 A 
ATOM     33  H   UNL     1      51.084   6.437  10.618  0.00  0.00    +0.000 HD
ENDBRANCH  20  23
ENDBRANCH  18  19
ENDBRANCH   4  18
TORSDOF 6
ENDMDL
MODEL 9
REMARK VINA RESULT:    -6.680      3.977      8.653
REMARK INTER + INTRA:         -10.206
REMARK INTER:                  -9.294
REMARK INTRA:                  -0.912
REMARK UNBOUND:                -1.183
REMARK  Name = 
REMARK  7 active torsions:
REMARK  status: ('A' for Active; 'I' for Inactive)
REMARK    1  A    between atoms: C_1  and  C_2
REMARK    2  A    between atoms: C_5  and  C_6
REMARK    3  A    between atoms: N_8  and  C_9
REMARK    4  A    between atoms: C_9  and  C_10
REMARK    5  A    between atoms: C_13  and  C_14
REMARK    6  A    between atoms: C_14  and  N_15
REMARK    7  A    between atoms: C_16  and  C_18
REMARK                            x       y       z     vdW  Elec       q    Type
REMARK                         _______ _______ _______ _____ _____    ______ ____
ROOT
ATOM      1  C   UNL     1      49.096   4.840  17.366  0.00  0.00    +0.000 A 
ATOM      2  C   UNL     1      49.790   5.960  16.884  0.00  0.00    +0.000 A 
ATOM      3  C   UNL     1      49.382   6.612  15.709  0.00  0.00    +0.000 A 
ATOM      4  C   UNL     1      48.254   6.178  15.000  0.00  0.00    +0.000 A 
ATOM      5  C   UNL     1      47.562   5.057  15.479  0.00  0.00    +0.000 A 
ATOM      6  C   UNL     1      47.971   4.404  16.652  0.00  0.00    +0.000 A 
ENDROOT
BRANCH   1   7
ATOM      7  C   UNL     1      49.548   4.122  18.618  0.00  0.00    +0.000 C 
BRANCH   7  10
ATOM      8  C   UNL     1      51.073   2.414  17.683  0.00  0.00    +0.000 C 
ATOM      9  O   UNL     1      50.172   1.857  17.055  0.00  0.00    +0.000 OA
ATOM     10  N   UNL     1      50.850   3.525  18.468  0.00  0.00    +0.000 N 
ATOM     11  H   UNL     1      51.658   3.951  18.908  0.00  0.00    +0.000 HD
BRANCH   8  16
ATOM     12  C   UNL     1      54.626  -0.713  16.705  0.00  0.00    +0.000 C 
ATOM     13  C   UNL     1      54.100   0.566  17.226  0.00  0.00    +0.000 A 
ATOM     14  C   UNL     1      54.686   1.668  17.805  0.00  0.00    +0.000 A 
ATOM     15  C   UNL     1      53.631   2.576  18.087  0.00  0.00    +0.000 A 
ATOM     16  C   UNL     1      52.459   1.973  17.663  0.00  0.00    +0.000 A 
ATOM     17  O   UNL     1      52.752   0.740  17.137  0.00  0.00    +0.000 OA
ENDBRANCH   8  16
ENDBRANCH   7  10
ENDBRANCH   1   7
BRANCH   4  18
ATOM     18  C   UNL     1      47.796   6.886  13.744  0.00  0.00    +0.000 C 
BRANCH  18  19
ATOM     19  N   UNL     1      47.132   5.995  12.827  0.00  0.00    +0.000 N 
ATOM     20  C   UNL     1      46.235   6.448  11.893  0.00  0.00    +0.000 C 
ATOM     21  O   UNL     1      45.968   7.640  11.769  0.00  0.00    +0.000 OA
ATOM     22  H   UNL     1      47.124   5.008  13.075  0.00  0.00    +0.000 HD
BRANCH  20  23
ATOM     23  C   UNL     1      45.653   5.436  10.999  0.00  0.00    +0.000 A 
ATOM     24  C   UNL     1      45.784   5.564   9.622  0.00  0.00    +0.000 A 
ATOM     25  S   UNL     1      45.081   4.279   8.744  0.00  0.00    +0.000 S 
ATOM     26  C   UNL     1      44.532   3.532  10.172  0.00  0.00    +0.000 A 
ATOM     27  N   UNL     1      43.811   2.379  10.129  0.00  0.00    +0.000 NA
ATOM     28  C   UNL     1      43.438   1.939  11.285  0.00  0.00    +0.000 A 
ATOM     29  N   UNL     1      43.728   2.545  12.479  0.00  0.00    +0.000 N 
ATOM     30  C   UNL     1      44.483   3.687  12.574  0.00  0.00    +0.000 A 
ATOM     31  O   UNL     1      44.777   4.167  13.664  0.00  0.00    +0.000 OA
ATOM     32  C   UNL     1      44.906   4.238  11.302  0.00  0.00    +0.000 A 
ATOM     33  H   UNL     1      43.424   2.139  13.352  0.00  0.00    +0.000 HD
ENDBRANCH  20  23
ENDBRANCH  18  19
ENDBRANCH   4  18
TORSDOF 6
ENDMDL
