MODEL 1
REMARK VINA RESULT:    -7.840      0.000      0.000
REMARK INTER + INTRA:         -11.719
REMARK INTER:                 -10.590
REMARK INTRA:                  -1.129
REMARK UNBOUND:                -1.129
REMARK  Name = 
REMARK  7 active torsions:
REMARK  status: ('A' for Active; 'I' for Inactive)
REMARK    1  A    between atoms: C_1  and  C_2
REMARK    2  A    between atoms: C_2  and  N_3
REMARK    3  A    between atoms: C_2  and  C_16
REMARK    4  A    between atoms: C_4  and  C_6
REMARK    5  A    between atoms: C_19  and  C_20
REMARK    6  A    between atoms: C_20  and  N_21
REMARK    7  A    between atoms: C_22  and  C_24
REMARK                            x       y       z     vdW  Elec       q    Type
REMARK                         _______ _______ _______ _____ _____    ______ ____
ROOT
ATOM      1  C   UNL     1      47.573   8.862  13.904  0.00  0.00    +0.000 C 
ATOM      2  C   UNL     1      47.875   7.361  13.868  0.00  0.00    +0.000 C 
ENDROOT
BRANCH   2   3
ATOM      3  C   UNL     1      46.848   6.629  13.008  0.00  0.00    +0.000 A 
ATOM      4  C   UNL     1      46.175   7.288  11.971  0.00  0.00    +0.000 A 
ATOM      5  C   UNL     1      45.284   6.592  11.141  0.00  0.00    +0.000 A 
ATOM      6  C   UNL     1      45.043   5.224  11.332  0.00  0.00    +0.000 A 
ATOM      7  C   UNL     1      45.708   4.567  12.374  0.00  0.00    +0.000 A 
ATOM      8  C   UNL     1      46.592   5.262  13.204  0.00  0.00    +0.000 A 
BRANCH   6   9
ATOM      9  C   UNL     1      44.104   4.463  10.434  0.00  0.00    +0.000 C 
BRANCH   9  10
ATOM     10  N   UNL     1      44.768   3.418   9.696  0.00  0.00    +0.000 N 
ATOM     11  C   UNL     1      45.549   3.695   8.601  0.00  0.00    +0.000 C 
ATOM     12  O   UNL     1      45.708   4.832   8.161  0.00  0.00    +0.000 OA
ATOM     13  H   UNL     1      44.690   2.446   9.978  0.00  0.00    +0.000 HD
BRANCH  11  14
ATOM     14  C   UNL     1      46.186   2.531   8.011  0.00  0.00    +0.000 A 
ATOM     15  N   UNL     1      45.983   1.279   8.388  0.00  0.00    +0.000 NA
ATOM     16  C   UNL     1      46.800   0.520   7.583  0.00  0.00    +0.000 A 
ATOM     17  C   UNL     1      47.500   1.313   6.707  0.00  0.00    +0.000 A 
ATOM     18  N   UNL     1      47.097   2.589   6.986  0.00  0.00    +0.000 N 
ATOM     19  H   UNL     1      47.404   3.444   6.541  0.00  0.00    +0.000 HD
ENDBRANCH  11  14
ENDBRANCH   9  10
ENDBRANCH   6   9
ENDBRANCH   2   3
BRANCH   2  20
ATOM     20  N   UNL     1      47.876   6.763  15.194  0.00  0.00    +0.000 N 
ATOM     21  C   UNL     1      49.006   6.404  15.882  0.00  0.00    +0.000 C 
ATOM     22  O   UNL     1      50.140   6.592  15.456  0.00  0.00    +0.000 OA
ATOM     23  H   UNL     1      47.013   6.293  15.445  0.00  0.00    +0.000 HD
BRANCH  21  24
ATOM     24  C   UNL     1      48.776   5.847  17.220  0.00  0.00    +0.000 A 
ATOM     25  C   UNL     1      49.002   4.500  17.464  0.00  0.00    +0.000 A 
ATOM     26  S   UNL     1      48.745   4.050  19.092  0.00  0.00    +0.000 S 
ATOM     27  C   UNL     1      48.271   5.630  19.511  0.00  0.00    +0.000 A 
ATOM     28  N   UNL     1      47.890   5.939  20.781  0.00  0.00    +0.000 NA
ATOM     29  C   UNL     1      47.524   7.166  20.944  0.00  0.00    +0.000 A 
ATOM     30  N   UNL     1      47.509   8.118  19.957  0.00  0.00    +0.000 N 
ATOM     31  C   UNL     1      47.916   7.860  18.671  0.00  0.00    +0.000 A 
ATOM     32  O   UNL     1      47.943   8.742  17.822  0.00  0.00    +0.000 OA
ATOM     33  C   UNL     1      48.324   6.491  18.429  0.00  0.00    +0.000 A 
ATOM     34  H   UNL     1      47.224   9.066  20.150  0.00  0.00    +0.000 HD
ENDBRANCH  21  24
ENDBRANCH   2  20
TORSDOF 6
ENDMDL
MODEL 2
REMARK VINA RESULT:    -7.737      1.288      1.913
REMARK INTER + INTRA:         -11.580
REMARK INTER:                 -10.605
REMARK INTRA:                  -0.974
REMARK UNBOUND:                -1.129
REMARK  Name = 
REMARK  7 active torsions:
REMARK  status: ('A' for Active; 'I' for Inactive)
REMARK    1  A    between atoms: C_1  and  C_2
REMARK    2  A    between atoms: C_2  and  N_3
REMARK    3  A    between atoms: C_2  and  C_16
REMARK    4  A    between atoms: C_4  and  C_6
REMARK    5  A    between atoms: C_19  and  C_20
REMARK    6  A    between atoms: C_20  and  N_21
REMARK    7  A    between atoms: C_22  and  C_24
REMARK                            x       y       z     vdW  Elec       q    Type
REMARK                         _______ _______ _______ _____ _____    ______ ____
ROOT
ATOM      1  C   UNL     1      47.820   9.143  13.254  0.00  0.00    +0.000 C 
ATOM      2  C   UNL     1      48.036   7.682  13.659  0.00  0.00    +0.000 C 
ENDROOT
BRANCH   2   3
ATOM      3  C   UNL     1      46.991   6.784  13.000  0.00  0.00    +0.000 A 
ATOM      4  C   UNL     1      46.118   7.288  12.028  0.00  0.00    +0.000 A 
ATOM      5  C   UNL     1      45.207   6.442  11.378  0.00  0.00    +0.000 A 
ATOM      6  C   UNL     1      45.148   5.076  11.687  0.00  0.00    +0.000 A 
ATOM      7  C   UNL     1      46.015   4.573  12.665  0.00  0.00    +0.000 A 
ATOM      8  C   UNL     1      46.918   5.417  13.316  0.00  0.00    +0.000 A 
BRANCH   6   9
ATOM      9  C   UNL     1      44.188   4.155  10.980  0.00  0.00    +0.000 C 
BRANCH   9  10
ATOM     10  N   UNL     1      44.860   3.180  10.157  0.00  0.00    +0.000 N 
ATOM     11  C   UNL     1      45.282   3.481   8.885  0.00  0.00    +0.000 C 
ATOM     12  O   UNL     1      45.090   4.574   8.355  0.00  0.00    +0.000 OA
ATOM     13  H   UNL     1      45.056   2.247  10.504  0.00  0.00    +0.000 HD
BRANCH  11  14
ATOM     14  C   UNL     1      45.988   2.402   8.218  0.00  0.00    +0.000 A 
ATOM     15  N   UNL     1      45.858   1.116   8.504  0.00  0.00    +0.000 NA
ATOM     16  C   UNL     1      46.720   0.465   7.653  0.00  0.00    +0.000 A 
ATOM     17  C   UNL     1      47.375   1.359   6.840  0.00  0.00    +0.000 A 
ATOM     18  N   UNL     1      46.896   2.586   7.206  0.00  0.00    +0.000 N 
ATOM     19  H   UNL     1      47.153   3.487   6.824  0.00  0.00    +0.000 HD
ENDBRANCH  11  14
ENDBRANCH   9  10
ENDBRANCH   6   9
ENDBRANCH   2   3
BRANCH   2  20
ATOM     20  N   UNL     1      47.967   7.489  15.100  0.00  0.00    +0.000 N 
ATOM     21  C   UNL     1      48.994   7.007  15.867  0.00  0.00    +0.000 C 
ATOM     22  O   UNL     1      50.098   6.727  15.413  0.00  0.00    +0.000 OA
ATOM     23  H   UNL     1      47.026   7.383  15.466  0.00  0.00    +0.000 HD
BRANCH  21  24
ATOM     24  C   UNL     1      48.718   6.925  17.306  0.00  0.00    +0.000 A 
ATOM     25  C   UNL     1      48.338   8.060  18.009  0.00  0.00    +0.000 A 
ATOM     26  S   UNL     1      47.995   7.758  19.655  0.00  0.00    +0.000 S 
ATOM     27  C   UNL     1      48.393   6.112  19.494  0.00  0.00    +0.000 A 
ATOM     28  N   UNL     1      48.334   5.264  20.557  0.00  0.00    +0.000 NA
ATOM     29  C   UNL     1      48.697   4.053  20.293  0.00  0.00    +0.000 A 
ATOM     30  N   UNL     1      49.108   3.608  19.064  0.00  0.00    +0.000 N 
ATOM     31  C   UNL     1      49.151   4.418  17.957  0.00  0.00    +0.000 A 
ATOM     32  O   UNL     1      49.471   3.981  16.858  0.00  0.00    +0.000 OA
ATOM     33  C   UNL     1      48.766   5.794  18.199  0.00  0.00    +0.000 A 
ATOM     34  H   UNL     1      49.367   2.644  18.918  0.00  0.00    +0.000 HD
ENDBRANCH  21  24
ENDBRANCH   2  20
TORSDOF 6
ENDMDL
MODEL 3
REMARK VINA RESULT:    -7.479      3.982      8.653
REMARK INTER + INTRA:         -11.232
REMARK INTER:                 -10.269
REMARK INTRA:                  -0.963
REMARK UNBOUND:                -1.129
REMARK  Name = 
REMARK  7 active torsions:
REMARK  status: ('A' for Active; 'I' for Inactive)
REMARK    1  A    between atoms: C_1  and  C_2
REMARK    2  A    between atoms: C_2  and  N_3
REMARK    3  A    between atoms: C_2  and  C_16
REMARK    4  A    between atoms: C_4  and  C_6
REMARK    5  A    between atoms: C_19  and  C_20
REMARK    6  A    between atoms: C_20  and  N_21
REMARK    7  A    between atoms: C_22  and  C_24
REMARK                            x       y       z     vdW  Elec       q    Type
REMARK                         _______ _______ _______ _____ _____    ______ ____
ROOT
ATOM      1  C   UNL     1      49.389   7.405  12.863  0.00  0.00    +0.000 C 
ATOM      2  C   UNL     1      48.052   6.965  13.467  0.00  0.00    +0.000 C 
ENDROOT
BRANCH   2   3
ATOM      3  C   UNL     1      48.279   6.212  14.775  0.00  0.00    +0.000 A 
ATOM      4  C   UNL     1      47.492   5.104  15.114  0.00  0.00    +0.000 A 
ATOM      5  C   UNL     1      47.751   4.374  16.284  0.00  0.00    +0.000 A 
ATOM      6  C   UNL     1      48.798   4.739  17.142  0.00  0.00    +0.000 A 
ATOM      7  C   UNL     1      49.579   5.852  16.809  0.00  0.00    +0.000 A 
ATOM      8  C   UNL     1      49.318   6.581  15.646  0.00  0.00    +0.000 A 
BRANCH   6   9
ATOM      9  C   UNL     1      49.097   3.951  18.391  0.00  0.00    +0.000 C 
BRANCH   9  10
ATOM     10  N   UNL     1      50.380   3.295  18.338  0.00  0.00    +0.000 N 
ATOM     11  C   UNL     1      50.626   2.268  17.460  0.00  0.00    +0.000 C 
ATOM     12  O   UNL     1      49.775   1.821  16.694  0.00  0.00    +0.000 OA
ATOM     13  H   UNL     1      51.143   3.588  18.938  0.00  0.00    +0.000 HD
BRANCH  11  14
ATOM     14  C   UNL     1      51.986   1.759  17.503  0.00  0.00    +0.000 A 
ATOM     15  N   UNL     1      53.060   2.477  17.790  0.00  0.00    +0.000 NA
ATOM     16  C   UNL     1      54.118   1.605  17.691  0.00  0.00    +0.000 A 
ATOM     17  C   UNL     1      53.687   0.347  17.347  0.00  0.00    +0.000 A 
ATOM     18  N   UNL     1      52.329   0.457  17.235  0.00  0.00    +0.000 N 
ATOM     19  H   UNL     1      51.669  -0.270  16.992  0.00  0.00    +0.000 HD
ENDBRANCH  11  14
ENDBRANCH   9  10
ENDBRANCH   6   9
ENDBRANCH   2   3
BRANCH   2  20
ATOM     20  N   UNL     1      47.292   6.110  12.568  0.00  0.00    +0.000 N 
ATOM     21  C   UNL     1      46.243   6.536  11.796  0.00  0.00    +0.000 C 
ATOM     22  O   UNL     1      45.867   7.702  11.757  0.00  0.00    +0.000 OA
ATOM     23  H   UNL     1      47.327   5.122  12.796  0.00  0.00    +0.000 HD
BRANCH  21  24
ATOM     24  C   UNL     1      45.640   5.510  10.936  0.00  0.00    +0.000 A 
ATOM     25  C   UNL     1      45.769   5.593   9.557  0.00  0.00    +0.000 A 
ATOM     26  S   UNL     1      45.061   4.278   8.727  0.00  0.00    +0.000 S 
ATOM     27  C   UNL     1      44.513   3.584  10.181  0.00  0.00    +0.000 A 
ATOM     28  N   UNL     1      43.797   2.426  10.185  0.00  0.00    +0.000 NA
ATOM     29  C   UNL     1      43.420   2.037  11.357  0.00  0.00    +0.000 A 
ATOM     30  N   UNL     1      43.695   2.694  12.528  0.00  0.00    +0.000 N 
ATOM     31  C   UNL     1      44.440   3.846  12.575  0.00  0.00    +0.000 A 
ATOM     32  O   UNL     1      44.716   4.384  13.641  0.00  0.00    +0.000 OA
ATOM     33  C   UNL     1      44.879   4.336  11.284  0.00  0.00    +0.000 A 
ATOM     34  H   UNL     1      43.382   2.332  13.416  0.00  0.00    +0.000 HD
ENDBRANCH  21  24
ENDBRANCH   2  20
TORSDOF 6
ENDMDL
MODEL 4
REMARK VINA RESULT:    -7.319      5.021      9.594
REMARK INTER + INTRA:         -11.015
REMARK INTER:                 -10.559
REMARK INTRA:                  -0.456
REMARK UNBOUND:                -1.129
REMARK  Name = 
REMARK  7 active torsions:
REMARK  status: ('A' for Active; 'I' for Inactive)
REMARK    1  A    between atoms: C_1  and  C_2
REMARK    2  A    between atoms: C_2  and  N_3
REMARK    3  A    between atoms: C_2  and  C_16
REMARK    4  A    between atoms: C_4  and  C_6
REMARK    5  A    between atoms: C_19  and  C_20
REMARK    6  A    between atoms: C_20  and  N_21
REMARK    7  A    between atoms: C_22  and  C_24
REMARK                            x       y       z     vdW  Elec       q    Type
REMARK                         _______ _______ _______ _____ _____    ______ ____
ROOT
ATOM      1  C   UNL     1      47.086   5.143  18.480  0.00  0.00    +0.000 C 
ATOM      2  C   UNL     1      47.462   4.253  17.291  0.00  0.00    +0.000 C 
ENDROOT
BRANCH   2   3
ATOM      3  C   UNL     1      48.923   3.820  17.388  0.00  0.00    +0.000 A 
ATOM      4  C   UNL     1      49.932   4.748  17.678  0.00  0.00    +0.000 A 
ATOM      5  C   UNL     1      51.262   4.331  17.834  0.00  0.00    +0.000 A 
ATOM      6  C   UNL     1      51.614   2.980  17.700  0.00  0.00    +0.000 A 
ATOM      7  C   UNL     1      50.607   2.055  17.402  0.00  0.00    +0.000 A 
ATOM      8  C   UNL     1      49.283   2.470  17.241  0.00  0.00    +0.000 A 
BRANCH   6   9
ATOM      9  C   UNL     1      53.035   2.520  17.886  0.00  0.00    +0.000 C 
BRANCH   9  10
ATOM     10  N   UNL     1      53.120   1.211  18.483  0.00  0.00    +0.000 N 
ATOM     11  C   UNL     1      53.773   0.176  17.858  0.00  0.00    +0.000 C 
ATOM     12  O   UNL     1      54.293   0.283  16.749  0.00  0.00    +0.000 OA
ATOM     13  H   UNL     1      52.714   1.022  19.393  0.00  0.00    +0.000 HD
BRANCH  11  14
ATOM     14  C   UNL     1      53.809  -1.057  18.624  0.00  0.00    +0.000 A 
ATOM     15  N   UNL     1      54.906  -1.728  18.937  0.00  0.00    +0.000 NA
ATOM     16  C   UNL     1      54.472  -2.829  19.637  0.00  0.00    +0.000 A 
ATOM     17  C   UNL     1      53.104  -2.826  19.758  0.00  0.00    +0.000 A 
ATOM     18  N   UNL     1      52.695  -1.691  19.114  0.00  0.00    +0.000 N 
ATOM     19  H   UNL     1      51.747  -1.357  18.995  0.00  0.00    +0.000 HD
ENDBRANCH  11  14
ENDBRANCH   9  10
ENDBRANCH   6   9
ENDBRANCH   2   3
BRANCH   2  20
ATOM     20  N   UNL     1      47.264   4.921  16.014  0.00  0.00    +0.000 N 
ATOM     21  C   UNL     1      47.269   4.287  14.799  0.00  0.00    +0.000 C 
ATOM     22  O   UNL     1      47.402   3.075  14.674  0.00  0.00    +0.000 OA
ATOM     23  H   UNL     1      47.477   5.913  16.018  0.00  0.00    +0.000 HD
BRANCH  21  24
ATOM     24  C   UNL     1      47.014   5.150  13.639  0.00  0.00    +0.000 A 
ATOM     25  C   UNL     1      47.663   6.372  13.524  0.00  0.00    +0.000 A 
ATOM     26  S   UNL     1      47.292   7.206  12.080  0.00  0.00    +0.000 S 
ATOM     27  C   UNL     1      46.213   5.986  11.587  0.00  0.00    +0.000 A 
ATOM     28  N   UNL     1      45.521   6.085  10.418  0.00  0.00    +0.000 NA
ATOM     29  C   UNL     1      44.715   5.102  10.192  0.00  0.00    +0.000 A 
ATOM     30  N   UNL     1      44.539   4.025  11.022  0.00  0.00    +0.000 N 
ATOM     31  C   UNL     1      45.238   3.867  12.192  0.00  0.00    +0.000 A 
ATOM     32  O   UNL     1      45.100   2.868  12.889  0.00  0.00    +0.000 OA
ATOM     33  C   UNL     1      46.149   4.950  12.504  0.00  0.00    +0.000 A 
ATOM     34  H   UNL     1      43.901   3.281  10.782  0.00  0.00    +0.000 HD
ENDBRANCH  21  24
ENDBRANCH   2  20
TORSDOF 6
ENDMDL
MODEL 5
REMARK VINA RESULT:    -7.231      2.768      4.030
REMARK INTER + INTRA:         -10.896
REMARK INTER:                  -9.782
REMARK INTRA:                  -1.114
REMARK UNBOUND:                -1.129
REMARK  Name = 
REMARK  7 active torsions:
REMARK  status: ('A' for Active; 'I' for Inactive)
REMARK    1  A    between atoms: C_1  and  C_2
REMARK    2  A    between atoms: C_2  and  N_3
REMARK    3  A    between atoms: C_2  and  C_16
REMARK    4  A    between atoms: C_4  and  C_6
REMARK    5  A    between atoms: C_19  and  C_20
REMARK    6  A    between atoms: C_20  and  N_21
REMARK    7  A    between atoms: C_22  and  C_24
REMARK                            x       y       z     vdW  Elec       q    Type
REMARK                         _______ _______ _______ _____ _____    ______ ____
ROOT
ATOM      1  C   UNL     1      47.509   3.603  15.433  0.00  0.00    +0.000 C 
ATOM      2  C   UNL     1      46.923   4.942  14.976  0.00  0.00    +0.000 C 
ENDROOT
BRANCH   2   3
ATOM      3  C   UNL     1      46.078   4.755  13.718  0.00  0.00    +0.000 A 
ATOM      4  C   UNL     1      45.467   5.848  13.091  0.00  0.00    +0.000 A 
ATOM      5  C   UNL     1      44.750   5.679  11.897  0.00  0.00    +0.000 A 
ATOM      6  C   UNL     1      44.626   4.414  11.307  0.00  0.00    +0.000 A 
ATOM      7  C   UNL     1      45.228   3.319  11.938  0.00  0.00    +0.000 A 
ATOM      8  C   UNL     1      45.938   3.487  13.129  0.00  0.00    +0.000 A 
BRANCH   6   9
ATOM      9  C   UNL     1      43.875   4.224  10.015  0.00  0.00    +0.000 C 
BRANCH   9  10
ATOM     10  N   UNL     1      44.640   3.500   9.031  0.00  0.00    +0.000 N 
ATOM     11  C   UNL     1      45.664   4.095   8.335  0.00  0.00    +0.000 C 
ATOM     12  O   UNL     1      45.973   5.277   8.477  0.00  0.00    +0.000 OA
ATOM     13  H   UNL     1      44.454   2.521   8.838  0.00  0.00    +0.000 HD
BRANCH  11  14
ATOM     14  C   UNL     1      46.363   3.207   7.424  0.00  0.00    +0.000 A 
ATOM     15  N   UNL     1      46.580   1.918   7.633  0.00  0.00    +0.000 NA
ATOM     16  C   UNL     1      47.289   1.486   6.537  0.00  0.00    +0.000 A 
ATOM     17  C   UNL     1      47.500   2.515   5.652  0.00  0.00    +0.000 A 
ATOM     18  N   UNL     1      46.902   3.602   6.225  0.00  0.00    +0.000 N 
ATOM     19  H   UNL     1      46.857   4.545   5.860  0.00  0.00    +0.000 HD
ENDBRANCH  11  14
ENDBRANCH   9  10
ENDBRANCH   6   9
ENDBRANCH   2   3
BRANCH   2  20
ATOM     20  N   UNL     1      47.952   5.932  14.697  0.00  0.00    +0.000 N 
ATOM     21  C   UNL     1      48.686   6.578  15.657  0.00  0.00    +0.000 C 
ATOM     22  O   UNL     1      48.573   6.351  16.857  0.00  0.00    +0.000 OA
ATOM     23  H   UNL     1      47.864   6.390  13.796  0.00  0.00    +0.000 HD
BRANCH  21  24
ATOM     24  C   UNL     1      49.696   7.515  15.150  0.00  0.00    +0.000 A 
ATOM     25  C   UNL     1      51.033   7.347  15.484  0.00  0.00    +0.000 A 
ATOM     26  S   UNL     1      52.067   8.490  14.749  0.00  0.00    +0.000 S 
ATOM     27  C   UNL     1      50.757   9.279  14.004  0.00  0.00    +0.000 A 
ATOM     28  N   UNL     1      50.945  10.381  13.226  0.00  0.00    +0.000 NA
ATOM     29  C   UNL     1      49.857  10.892  12.755  0.00  0.00    +0.000 A 
ATOM     30  N   UNL     1      48.597  10.403  12.983  0.00  0.00    +0.000 N 
ATOM     31  C   UNL     1      48.362   9.277  13.732  0.00  0.00    +0.000 A 
ATOM     32  O   UNL     1      47.230   8.831  13.876  0.00  0.00    +0.000 OA
ATOM     33  C   UNL     1      49.550   8.668  14.299  0.00  0.00    +0.000 A 
ATOM     34  H   UNL     1      47.785  10.841  12.575  0.00  0.00    +0.000 HD
ENDBRANCH  21  24
ENDBRANCH   2  20
TORSDOF 6
ENDMDL
MODEL 6
REMARK VINA RESULT:    -7.016      3.872      5.423
REMARK INTER + INTRA:         -10.606
REMARK INTER:                  -9.460
REMARK INTRA:                  -1.146
REMARK UNBOUND:                -1.129
REMARK  Name = 
REMARK  7 active torsions:
REMARK  status: ('A' for Active; 'I' for Inactive)
REMARK    1  A    between atoms: C_1  and  C_2
REMARK    2  A    between atoms: C_2  and  N_3
REMARK    3  A    between atoms: C_2  and  C_16
REMARK    4  A    between atoms: C_4  and  C_6
REMARK    5  A    between atoms: C_19  and  C_20
REMARK    6  A    between atoms: C_20  and  N_21
REMARK    7  A    between atoms: C_22  and  C_24
REMARK                            x       y       z     vdW  Elec       q    Type
REMARK                         _______ _______ _______ _____ _____    ______ ____
ROOT
ATOM      1  C   UNL     1      47.639   3.228  17.810  0.00  0.00    +0.000 C 
ATOM      2  C   UNL     1      48.506   4.442  17.463  0.00  0.00    +0.000 C 
ENDROOT
BRANCH   2   3
ATOM      3  C   UNL     1      48.104   5.017  16.108  0.00  0.00    +0.000 A 
ATOM      4  C   UNL     1      47.160   4.369  15.301  0.00  0.00    +0.000 A 
ATOM      5  C   UNL     1      46.743   4.940  14.089  0.00  0.00    +0.000 A 
ATOM      6  C   UNL     1      47.263   6.167  13.656  0.00  0.00    +0.000 A 
ATOM      7  C   UNL     1      48.213   6.811  14.458  0.00  0.00    +0.000 A 
ATOM      8  C   UNL     1      48.632   6.241  15.662  0.00  0.00    +0.000 A 
BRANCH   6   9
ATOM      9  C   UNL     1      46.808   6.798  12.366  0.00  0.00    +0.000 C 
BRANCH   9  10
ATOM     10  N   UNL     1      46.525   5.822  11.343  0.00  0.00    +0.000 N 
ATOM     11  C   UNL     1      45.253   5.639  10.857  0.00  0.00    +0.000 C 
ATOM     12  O   UNL     1      44.279   6.260  11.276  0.00  0.00    +0.000 OA
ATOM     13  H   UNL     1      47.263   5.256  10.940  0.00  0.00    +0.000 HD
BRANCH  11  14
ATOM     14  C   UNL     1      45.156   4.657   9.792  0.00  0.00    +0.000 A 
ATOM     15  N   UNL     1      45.662   4.797   8.577  0.00  0.00    +0.000 NA
ATOM     16  C   UNL     1      45.316   3.649   7.904  0.00  0.00    +0.000 A 
ATOM     17  C   UNL     1      44.600   2.802   8.715  0.00  0.00    +0.000 A 
ATOM     18  N   UNL     1      44.510   3.452   9.914  0.00  0.00    +0.000 N 
ATOM     19  H   UNL     1      44.049   3.132  10.756  0.00  0.00    +0.000 HD
ENDBRANCH  11  14
ENDBRANCH   9  10
ENDBRANCH   6   9
ENDBRANCH   2   3
BRANCH   2  20
ATOM     20  N   UNL     1      49.924   4.118  17.424  0.00  0.00    +0.000 N 
ATOM     21  C   UNL     1      50.785   4.274  18.479  0.00  0.00    +0.000 C 
ATOM     22  O   UNL     1      50.429   4.667  19.584  0.00  0.00    +0.000 OA
ATOM     23  H   UNL     1      50.330   4.112  16.493  0.00  0.00    +0.000 HD
BRANCH  21  24
ATOM     24  C   UNL     1      52.168   3.852  18.228  0.00  0.00    +0.000 A 
ATOM     25  C   UNL     1      53.212   4.754  18.383  0.00  0.00    +0.000 A 
ATOM     26  S   UNL     1      54.752   4.066  18.113  0.00  0.00    +0.000 S 
ATOM     27  C   UNL     1      54.071   2.555  17.728  0.00  0.00    +0.000 A 
ATOM     28  N   UNL     1      54.852   1.498  17.372  0.00  0.00    +0.000 NA
ATOM     29  C   UNL     1      54.196   0.427  17.075  0.00  0.00    +0.000 A 
ATOM     30  N   UNL     1      52.831   0.310  17.104  0.00  0.00    +0.000 N 
ATOM     31  C   UNL     1      52.005   1.337  17.488  0.00  0.00    +0.000 A 
ATOM     32  O   UNL     1      50.791   1.189  17.557  0.00  0.00    +0.000 OA
ATOM     33  C   UNL     1      52.690   2.571  17.820  0.00  0.00    +0.000 A 
ATOM     34  H   UNL     1      52.376  -0.560  16.872  0.00  0.00    +0.000 HD
ENDBRANCH  21  24
ENDBRANCH   2  20
TORSDOF 6
ENDMDL
MODEL 7
REMARK VINA RESULT:    -6.525      3.763      5.729
REMARK INTER + INTRA:          -9.942
REMARK INTER:                  -8.902
REMARK INTRA:                  -1.041
REMARK UNBOUND:                -1.129
REMARK  Name = 
REMARK  7 active torsions:
REMARK  status: ('A' for Active; 'I' for Inactive)
REMARK    1  A    between atoms: C_1  and  C_2
REMARK    2  A    between atoms: C_2  and  N_3
REMARK    3  A    between atoms: C_2  and  C_16
REMARK    4  A    between atoms: C_4  and  C_6
REMARK    5  A    between atoms: C_19  and  C_20
REMARK    6  A    between atoms: C_20  and  N_21
REMARK    7  A    between atoms: C_22  and  C_24
REMARK                            x       y       z     vdW  Elec       q    Type
REMARK                         _______ _______ _______ _____ _____    ______ ____
ROOT
ATOM      1  C   UNL     1      48.383   6.598  14.829  0.00  0.00    +0.000 C 
ATOM      2  C   UNL     1      47.530   7.460  13.893  0.00  0.00    +0.000 C 
ENDROOT
BRANCH   2   3
ATOM      3  C   UNL     1      46.554   6.589  13.106  0.00  0.00    +0.000 A 
ATOM      4  C   UNL     1      45.766   7.133  12.084  0.00  0.00    +0.000 A 
ATOM      5  C   UNL     1      44.923   6.313  11.319  0.00  0.00    +0.000 A 
ATOM      6  C   UNL     1      44.846   4.934  11.561  0.00  0.00    +0.000 A 
ATOM      7  C   UNL     1      45.627   4.392  12.589  0.00  0.00    +0.000 A 
ATOM      8  C   UNL     1      46.463   5.209  13.354  0.00  0.00    +0.000 A 
BRANCH   6   9
ATOM      9  C   UNL     1      43.959   4.043  10.733  0.00  0.00    +0.000 C 
BRANCH   9  10
ATOM     10  N   UNL     1      44.706   3.088   9.953  0.00  0.00    +0.000 N 
ATOM     11  C   UNL     1      45.278   3.430   8.752  0.00  0.00    +0.000 C 
ATOM     12  O   UNL     1      45.167   4.547   8.250  0.00  0.00    +0.000 OA
ATOM     13  H   UNL     1      44.845   2.138  10.281  0.00  0.00    +0.000 HD
BRANCH  11  14
ATOM     14  C   UNL     1      46.040   2.363   8.128  0.00  0.00    +0.000 A 
ATOM     15  N   UNL     1      45.889   1.072   8.378  0.00  0.00    +0.000 NA
ATOM     16  C   UNL     1      46.821   0.438   7.591  0.00  0.00    +0.000 A 
ATOM     17  C   UNL     1      47.539   1.346   6.852  0.00  0.00    +0.000 A 
ATOM     18  N   UNL     1      47.030   2.566   7.199  0.00  0.00    +0.000 N 
ATOM     19  H   UNL     1      47.316   3.474   6.857  0.00  0.00    +0.000 HD
ENDBRANCH  11  14
ENDBRANCH   9  10
ENDBRANCH   6   9
ENDBRANCH   2   3
BRANCH   2  20
ATOM     20  N   UNL     1      48.336   8.218  12.949  0.00  0.00    +0.000 N 
ATOM     21  C   UNL     1      48.819   9.480  13.181  0.00  0.00    +0.000 C 
ATOM     22  O   UNL     1      48.650  10.081  14.236  0.00  0.00    +0.000 OA
ATOM     23  H   UNL     1      48.230   7.934  11.981  0.00  0.00    +0.000 HD
BRANCH  21  24
ATOM     24  C   UNL     1      49.639  10.046  12.102  0.00  0.00    +0.000 A 
ATOM     25  C   UNL     1      49.071  10.908  11.173  0.00  0.00    +0.000 A 
ATOM     26  S   UNL     1      50.191  11.515  10.036  0.00  0.00    +0.000 S 
ATOM     27  C   UNL     1      51.459  10.606  10.715  0.00  0.00    +0.000 A 
ATOM     28  N   UNL     1      52.716  10.647  10.194  0.00  0.00    +0.000 NA
ATOM     29  C   UNL     1      53.566   9.880  10.791  0.00  0.00    +0.000 A 
ATOM     30  N   UNL     1      53.279   9.078  11.865  0.00  0.00    +0.000 N 
ATOM     31  C   UNL     1      52.035   9.029  12.444  0.00  0.00    +0.000 A 
ATOM     32  O   UNL     1      51.820   8.343  13.436  0.00  0.00    +0.000 OA
ATOM     33  C   UNL     1      51.037   9.862  11.804  0.00  0.00    +0.000 A 
ATOM     34  H   UNL     1      53.991   8.509  12.297  0.00  0.00    +0.000 HD
ENDBRANCH  21  24
ENDBRANCH   2  20
TORSDOF 6
ENDMDL
MODEL 8
REMARK VINA RESULT:    -6.474      4.231      6.865
REMARK INTER + INTRA:          -9.873
REMARK INTER:                  -8.631
REMARK INTRA:                  -1.242
REMARK UNBOUND:                -1.129
REMARK  Name = 
REMARK  7 active torsions:
REMARK  status: ('A' for Active; 'I' for Inactive)
REMARK    1  A    between atoms: C_1  and  C_2
REMARK    2  A    between atoms: C_2  and  N_3
REMARK    3  A    between atoms: C_2  and  C_16
REMARK    4  A    between atoms: C_4  and  C_6
REMARK    5  A    between atoms: C_19  and  C_20
REMARK    6  A    between atoms: C_20  and  N_21
REMARK    7  A    between atoms: C_22  and  C_24
REMARK                            x       y       z     vdW  Elec       q    Type
REMARK                         _______ _______ _______ _____ _____    ______ ____
ROOT
ATOM      1  C   UNL     1      48.693   4.744  20.589  0.00  0.00    +0.000 C 
ATOM      2  C   UNL     1      49.613   5.071  19.409  0.00  0.00    +0.000 C 
ENDROOT
BRANCH   2   3
ATOM      3  C   UNL     1      48.877   4.872  18.087  0.00  0.00    +0.000 A 
ATOM      4  C   UNL     1      48.064   3.751  17.876  0.00  0.00    +0.000 A 
ATOM      5  C   UNL     1      47.336   3.610  16.685  0.00  0.00    +0.000 A 
ATOM      6  C   UNL     1      47.408   4.583  15.678  0.00  0.00    +0.000 A 
ATOM      7  C   UNL     1      48.227   5.699  15.885  0.00  0.00    +0.000 A 
ATOM      8  C   UNL     1      48.956   5.837  17.069  0.00  0.00    +0.000 A 
BRANCH   6   9
ATOM      9  C   UNL     1      46.615   4.450  14.405  0.00  0.00    +0.000 C 
BRANCH   9  10
ATOM     10  N   UNL     1      46.340   5.724  13.789  0.00  0.00    +0.000 N 
ATOM     11  C   UNL     1      45.266   5.900  12.950  0.00  0.00    +0.000 C 
ATOM     12  O   UNL     1      44.498   4.991  12.644  0.00  0.00    +0.000 OA
ATOM     13  H   UNL     1      46.923   6.533  13.974  0.00  0.00    +0.000 HD
BRANCH  11  14
ATOM     14  C   UNL     1      45.106   7.258  12.461  0.00  0.00    +0.000 A 
ATOM     15  N   UNL     1      45.702   8.326  12.969  0.00  0.00    +0.000 NA
ATOM     16  C   UNL     1      45.248   9.386  12.220  0.00  0.00    +0.000 A 
ATOM     17  C   UNL     1      44.376   8.962  11.247  0.00  0.00    +0.000 A 
ATOM     18  N   UNL     1      44.298   7.607  11.408  0.00  0.00    +0.000 N 
ATOM     19  H   UNL     1      43.746   6.953  10.869  0.00  0.00    +0.000 HD
ENDBRANCH  11  14
ENDBRANCH   9  10
ENDBRANCH   6   9
ENDBRANCH   2   3
BRANCH   2  20
ATOM     20  N   UNL     1      50.813   4.249  19.397  0.00  0.00    +0.000 N 
ATOM     21  C   UNL     1      52.032   4.665  18.929  0.00  0.00    +0.000 C 
ATOM     22  O   UNL     1      52.240   5.798  18.509  0.00  0.00    +0.000 OA
ATOM     23  H   UNL     1      50.640   3.249  19.411  0.00  0.00    +0.000 HD
BRANCH  21  24
ATOM     24  C   UNL     1      53.117   3.682  19.042  0.00  0.00    +0.000 A 
ATOM     25  C   UNL     1      54.261   3.987  19.767  0.00  0.00    +0.000 A 
ATOM     26  S   UNL     1      55.381   2.699  19.844  0.00  0.00    +0.000 S 
ATOM     27  C   UNL     1      54.398   1.712  18.867  0.00  0.00    +0.000 A 
ATOM     28  N   UNL     1      54.784   0.454  18.518  0.00  0.00    +0.000 NA
ATOM     29  C   UNL     1      53.954  -0.164  17.747  0.00  0.00    +0.000 A 
ATOM     30  N   UNL     1      52.769   0.356  17.294  0.00  0.00    +0.000 N 
ATOM     31  C   UNL     1      52.323   1.605  17.646  0.00  0.00    +0.000 A 
ATOM     32  O   UNL     1      51.235   2.024  17.270  0.00  0.00    +0.000 OA
ATOM     33  C   UNL     1      53.225   2.351  18.502  0.00  0.00    +0.000 A 
ATOM     34  H   UNL     1      52.155  -0.183  16.702  0.00  0.00    +0.000 HD
ENDBRANCH  21  24
ENDBRANCH   2  20
TORSDOF 6
ENDMDL
MODEL 9
REMARK VINA RESULT:    -6.383      2.268      2.804
REMARK INTER + INTRA:          -9.750
REMARK INTER:                  -8.464
REMARK INTRA:                  -1.286
REMARK UNBOUND:                -1.129
REMARK  Name = 
REMARK  7 active torsions:
REMARK  status: ('A' for Active; 'I' for Inactive)
REMARK    1  A    between atoms: C_1  and  C_2
REMARK    2  A    between atoms: C_2  and  N_3
REMARK    3  A    between atoms: C_2  and  C_16
REMARK    4  A    between atoms: C_4  and  C_6
REMARK    5  A    between atoms: C_19  and  C_20
REMARK    6  A    between atoms: C_20  and  N_21
REMARK    7  A    between atoms: C_22  and  C_24
REMARK                            x       y       z     vdW  Elec       q    Type
REMARK                         _______ _______ _______ _____ _____    ______ ____
ROOT
ATOM      1  C   UNL     1      49.068  10.232  14.803  0.00  0.00    +0.000 C 
ATOM      2  C   UNL     1      49.226   8.758  14.419  0.00  0.00    +0.000 C 
ENDROOT
BRANCH   2   3
ATOM      3  C   UNL     1      48.023   8.286  13.606  0.00  0.00    +0.000 A 
ATOM      4  C   UNL     1      46.814   8.992  13.632  0.00  0.00    +0.000 A 
ATOM      5  C   UNL     1      45.735   8.592  12.828  0.00  0.00    +0.000 A 
ATOM      6  C   UNL     1      45.841   7.476  11.986  0.00  0.00    +0.000 A 
ATOM      7  C   UNL     1      47.046   6.764  11.968  0.00  0.00    +0.000 A 
ATOM      8  C   UNL     1      48.119   7.160  12.771  0.00  0.00    +0.000 A 
BRANCH   6   9
ATOM      9  C   UNL     1      44.696   7.049  11.106  0.00  0.00    +0.000 C 
BRANCH   9  10
ATOM     10  N   UNL     1      45.008   5.883  10.318  0.00  0.00    +0.000 N 
ATOM     11  C   UNL     1      44.385   4.678  10.539  0.00  0.00    +0.000 C 
ATOM     12  O   UNL     1      43.556   4.505  11.431  0.00  0.00    +0.000 OA
ATOM     13  H   UNL     1      45.685   5.925   9.564  0.00  0.00    +0.000 HD
BRANCH  11  14
ATOM     14  C   UNL     1      44.779   3.625   9.620  0.00  0.00    +0.000 A 
ATOM     15  N   UNL     1      44.477   2.344   9.755  0.00  0.00    +0.000 NA
ATOM     16  C   UNL     1      45.067   1.716   8.684  0.00  0.00    +0.000 A 
ATOM     17  C   UNL     1      45.726   2.620   7.887  0.00  0.00    +0.000 A 
ATOM     18  N   UNL     1      45.531   3.831   8.491  0.00  0.00    +0.000 N 
ATOM     19  H   UNL     1      45.875   4.734   8.188  0.00  0.00    +0.000 HD
ENDBRANCH  11  14
ENDBRANCH   9  10
ENDBRANCH   6   9
ENDBRANCH   2   3
BRANCH   2  20
ATOM     20  N   UNL     1      49.364   7.894  15.582  0.00  0.00    +0.000 N 
ATOM     21  C   UNL     1      50.518   7.240  15.928  0.00  0.00    +0.000 C 
ATOM     22  O   UNL     1      51.568   7.355  15.306  0.00  0.00    +0.000 OA
ATOM     23  H   UNL     1      48.492   7.506  15.925  0.00  0.00    +0.000 HD
BRANCH  21  24
ATOM     24  C   UNL     1      50.443   6.446  17.161  0.00  0.00    +0.000 A 
ATOM     25  C   UNL     1      51.314   6.705  18.210  0.00  0.00    +0.000 A 
ATOM     26  S   UNL     1      51.034   5.727  19.583  0.00  0.00    +0.000 S 
ATOM     27  C   UNL     1      49.775   4.892  18.800  0.00  0.00    +0.000 A 
ATOM     28  N   UNL     1      49.104   3.884  19.422  0.00  0.00    +0.000 NA
ATOM     29  C   UNL     1      48.198   3.319  18.694  0.00  0.00    +0.000 A 
ATOM     30  N   UNL     1      47.897   3.671  17.404  0.00  0.00    +0.000 N 
ATOM     31  C   UNL     1      48.524   4.702  16.750  0.00  0.00    +0.000 A 
ATOM     32  O   UNL     1      48.198   5.030  15.615  0.00  0.00    +0.000 OA
ATOM     33  C   UNL     1      49.561   5.363  17.516  0.00  0.00    +0.000 A 
ATOM     34  H   UNL     1      47.168   3.199  16.891  0.00  0.00    +0.000 HD
ENDBRANCH  21  24
ENDBRANCH   2  20
TORSDOF 6
ENDMDL
