MODEL 1
REMARK VINA RESULT:    -8.642      0.000      0.000
REMARK INTER + INTRA:         -11.692
REMARK INTER:                 -11.168
REMARK INTRA:                  -0.524
REMARK UNBOUND:                -0.524
REMARK  Name = 
REMARK  5 active torsions:
REMARK  status: ('A' for Active; 'I' for Inactive)
REMARK    1  A    between atoms: C_2  and  C_18
REMARK    2  A    between atoms: N_3  and  C_4
REMARK    3  A    between atoms: C_4  and  C_5
REMARK    4  A    between atoms: C_8  and  C_9
REMARK    5  A    between atoms: C_9  and  C_10
REMARK                            x       y       z     vdW  Elec       q    Type
REMARK                         _______ _______ _______ _____ _____    ______ ____
ROOT
ATOM      1  O   UNL     1      47.809   7.345  12.216  0.00  0.00    +0.000 OA
ATOM      2  C   UNL     1      47.250   6.954  13.238  0.00  0.00    +0.000 C 
ATOM      3  N   UNL     1      45.891   6.812  13.325  0.00  0.00    +0.000 N 
ATOM      4  H   UNL     1      45.466   6.452  14.170  0.00  0.00    +0.000 HD
ENDROOT
BRANCH   2   5
ATOM      5  C   UNL     1      47.998   6.655  14.462  0.00  0.00    +0.000 A 
ATOM      6  C   UNL     1      48.941   7.553  14.943  0.00  0.00    +0.000 A 
ATOM      7  S   UNL     1      49.680   7.047  16.396  0.00  0.00    +0.000 S 
ATOM      8  C   UNL     1      48.791   5.595  16.410  0.00  0.00    +0.000 A 
ATOM      9  N   UNL     1      48.949   4.685  17.409  0.00  0.00    +0.000 NA
ATOM     10  C   UNL     1      48.226   3.619  17.277  0.00  0.00    +0.000 A 
ATOM     11  N   UNL     1      47.371   3.380  16.233  0.00  0.00    +0.000 N 
ATOM     12  C   UNL     1      47.172   4.273  15.211  0.00  0.00    +0.000 A 
ATOM     13  O   UNL     1      46.374   4.033  14.310  0.00  0.00    +0.000 OA
ATOM     14  C   UNL     1      47.947   5.496  15.318  0.00  0.00    +0.000 A 
ATOM     15  H   UNL     1      46.832   2.526  16.190  0.00  0.00    +0.000 HD
ENDBRANCH   2   5
BRANCH   3  16
ATOM     16  C   UNL     1      45.001   7.008  12.205  0.00  0.00    +0.000 C 
BRANCH  16  17
ATOM     17  C   UNL     1      44.954   5.808  11.291  0.00  0.00    +0.000 A 
ATOM     18  C   UNL     1      45.639   5.832  10.080  0.00  0.00    +0.000 A 
ATOM     19  C   UNL     1      45.613   4.702   9.268  0.00  0.00    +0.000 A 
ATOM     20  C   UNL     1      44.906   3.570   9.675  0.00  0.00    +0.000 A 
ATOM     21  C   UNL     1      44.214   3.654  10.880  0.00  0.00    +0.000 A 
ATOM     22  N   UNL     1      44.224   4.735  11.693  0.00  0.00    +0.000 NA
BRANCH  20  23
ATOM     23  C   UNL     1      44.882   2.317   8.842  0.00  0.00    +0.000 C 
BRANCH  23  24
ATOM     24  C   UNL     1      45.942   2.278   7.777  0.00  0.00    +0.000 A 
ATOM     25  C   UNL     1      45.981   3.223   6.747  0.00  0.00    +0.000 A 
ATOM     26  C   UNL     1      46.951   3.123   5.756  0.00  0.00    +0.000 A 
ATOM     27  C   UNL     1      47.858   2.079   5.827  0.00  0.00    +0.000 A 
ATOM     28  N   UNL     1      47.863   1.156   6.812  0.00  0.00    +0.000 NA
ATOM     29  C   UNL     1      46.906   1.273   7.759  0.00  0.00    +0.000 A 
ENDBRANCH  23  24
ENDBRANCH  20  23
ENDBRANCH  16  17
ENDBRANCH   3  16
TORSDOF 5
ENDMDL
MODEL 2
REMARK VINA RESULT:    -8.250      1.942      2.486
REMARK INTER + INTRA:         -11.186
REMARK INTER:                 -10.608
REMARK INTRA:                  -0.578
REMARK UNBOUND:                -0.524
REMARK  Name = 
REMARK  5 active torsions:
REMARK  status: ('A' for Active; 'I' for Inactive)
REMARK    1  A    between atoms: C_2  and  C_18
REMARK    2  A    between atoms: N_3  and  C_4
REMARK    3  A    between atoms: C_4  and  C_5
REMARK    4  A    between atoms: C_8  and  C_9
REMARK    5  A    between atoms: C_9  and  C_10
REMARK                            x       y       z     vdW  Elec       q    Type
REMARK                         _______ _______ _______ _____ _____    ______ ____
ROOT
ATOM      1  O   UNL     1      48.858   6.283  14.406  0.00  0.00    +0.000 OA
ATOM      2  C   UNL     1      47.877   5.713  14.875  0.00  0.00    +0.000 C 
ATOM      3  N   UNL     1      46.636   5.787  14.300  0.00  0.00    +0.000 N 
ATOM      4  H   UNL     1      45.857   5.273  14.692  0.00  0.00    +0.000 HD
ENDROOT
BRANCH   2   5
ATOM      5  C   UNL     1      47.953   4.943  16.121  0.00  0.00    +0.000 A 
ATOM      6  C   UNL     1      47.587   3.605  16.140  0.00  0.00    +0.000 A 
ATOM      7  S   UNL     1      47.779   2.871  17.669  0.00  0.00    +0.000 S 
ATOM      8  C   UNL     1      48.322   4.327  18.364  0.00  0.00    +0.000 A 
ATOM      9  N   UNL     1      48.666   4.392  19.678  0.00  0.00    +0.000 NA
ATOM     10  C   UNL     1      49.038   5.567  20.073  0.00  0.00    +0.000 A 
ATOM     11  N   UNL     1      49.087   6.681  19.276  0.00  0.00    +0.000 N 
ATOM     12  C   UNL     1      48.761   6.659  17.943  0.00  0.00    +0.000 A 
ATOM     13  O   UNL     1      48.846   7.673  17.256  0.00  0.00    +0.000 OA
ATOM     14  C   UNL     1      48.351   5.359  17.443  0.00  0.00    +0.000 A 
ATOM     15  H   UNL     1      49.390   7.571  19.646  0.00  0.00    +0.000 HD
ENDBRANCH   2   5
BRANCH   3  16
ATOM     16  C   UNL     1      46.385   6.452  13.044  0.00  0.00    +0.000 C 
BRANCH  16  17
ATOM     17  C   UNL     1      45.896   5.503  11.977  0.00  0.00    +0.000 A 
ATOM     18  C   UNL     1      45.720   5.956  10.674  0.00  0.00    +0.000 A 
ATOM     19  C   UNL     1      45.305   5.056   9.696  0.00  0.00    +0.000 A 
ATOM     20  C   UNL     1      45.072   3.722  10.035  0.00  0.00    +0.000 A 
ATOM     21  C   UNL     1      45.231   3.370  11.371  0.00  0.00    +0.000 A 
ATOM     22  N   UNL     1      45.638   4.220  12.343  0.00  0.00    +0.000 NA
BRANCH  20  23
ATOM     23  C   UNL     1      44.656   2.712   9.001  0.00  0.00    +0.000 C 
BRANCH  23  24
ATOM     24  C   UNL     1      45.714   2.427   7.972  0.00  0.00    +0.000 A 
ATOM     25  C   UNL     1      45.957   3.302   6.910  0.00  0.00    +0.000 A 
ATOM     26  C   UNL     1      46.914   2.978   5.954  0.00  0.00    +0.000 A 
ATOM     27  C   UNL     1      47.603   1.784   6.093  0.00  0.00    +0.000 A 
ATOM     28  N   UNL     1      47.408   0.921   7.111  0.00  0.00    +0.000 NA
ATOM     29  C   UNL     1      46.469   1.257   8.022  0.00  0.00    +0.000 A 
ENDBRANCH  23  24
ENDBRANCH  20  23
ENDBRANCH  16  17
ENDBRANCH   3  16
TORSDOF 5
ENDMDL
MODEL 3
REMARK VINA RESULT:    -8.003      2.329      3.602
REMARK INTER + INTRA:         -10.867
REMARK INTER:                  -9.970
REMARK INTRA:                  -0.897
REMARK UNBOUND:                -0.524
REMARK  Name = 
REMARK  5 active torsions:
REMARK  status: ('A' for Active; 'I' for Inactive)
REMARK    1  A    between atoms: C_2  and  C_18
REMARK    2  A    between atoms: N_3  and  C_4
REMARK    3  A    between atoms: C_4  and  C_5
REMARK    4  A    between atoms: C_8  and  C_9
REMARK    5  A    between atoms: C_9  and  C_10
REMARK                            x       y       z     vdW  Elec       q    Type
REMARK                         _______ _______ _______ _____ _____    ______ ____
ROOT
ATOM      1  O   UNL     1      48.991   5.318  16.098  0.00  0.00    +0.000 OA
ATOM      2  C   UNL     1      48.504   6.225  15.429  0.00  0.00    +0.000 C 
ATOM      3  N   UNL     1      47.431   6.035  14.599  0.00  0.00    +0.000 N 
ATOM      4  H   UNL     1      47.031   6.812  14.090  0.00  0.00    +0.000 HD
ENDROOT
BRANCH   2   5
ATOM      5  C   UNL     1      49.069   7.578  15.433  0.00  0.00    +0.000 A 
ATOM      6  C   UNL     1      49.117   8.312  16.609  0.00  0.00    +0.000 A 
ATOM      7  S   UNL     1      49.842   9.846  16.422  0.00  0.00    +0.000 S 
ATOM      8  C   UNL     1      50.082   9.593  14.756  0.00  0.00    +0.000 A 
ATOM      9  N   UNL     1      50.672  10.541  13.980  0.00  0.00    +0.000 NA
ATOM     10  C   UNL     1      50.768  10.222  12.729  0.00  0.00    +0.000 A 
ATOM     11  N   UNL     1      50.319   9.047  12.186  0.00  0.00    +0.000 N 
ATOM     12  C   UNL     1      49.729   8.057  12.932  0.00  0.00    +0.000 A 
ATOM     13  O   UNL     1      49.366   7.006  12.413  0.00  0.00    +0.000 OA
ATOM     14  C   UNL     1      49.611   8.358  14.348  0.00  0.00    +0.000 A 
ATOM     15  H   UNL     1      50.427   8.856  11.200  0.00  0.00    +0.000 HD
ENDBRANCH   2   5
BRANCH   3  16
ATOM     16  C   UNL     1      46.713   4.786  14.509  0.00  0.00    +0.000 C 
BRANCH  16  17
ATOM     17  C   UNL     1      46.112   4.563  13.143  0.00  0.00    +0.000 A 
ATOM     18  C   UNL     1      46.140   5.584  12.198  0.00  0.00    +0.000 A 
ATOM     19  C   UNL     1      45.614   5.346  10.931  0.00  0.00    +0.000 A 
ATOM     20  C   UNL     1      45.069   4.098  10.630  0.00  0.00    +0.000 A 
ATOM     21  C   UNL     1      45.043   3.153  11.651  0.00  0.00    +0.000 A 
ATOM     22  N   UNL     1      45.551   3.352  12.889  0.00  0.00    +0.000 NA
BRANCH  20  23
ATOM     23  C   UNL     1      44.522   3.791   9.262  0.00  0.00    +0.000 C 
BRANCH  23  24
ATOM     24  C   UNL     1      45.465   3.003   8.395  0.00  0.00    +0.000 A 
ATOM     25  C   UNL     1      46.127   3.589   7.313  0.00  0.00    +0.000 A 
ATOM     26  C   UNL     1      46.955   2.812   6.509  0.00  0.00    +0.000 A 
ATOM     27  C   UNL     1      47.098   1.470   6.816  0.00  0.00    +0.000 A 
ATOM     28  N   UNL     1      46.488   0.871   7.861  0.00  0.00    +0.000 NA
ATOM     29  C   UNL     1      45.685   1.646   8.621  0.00  0.00    +0.000 A 
ENDBRANCH  23  24
ENDBRANCH  20  23
ENDBRANCH  16  17
ENDBRANCH   3  16
TORSDOF 5
ENDMDL
MODEL 4
REMARK VINA RESULT:    -7.450      3.129      7.955
REMARK INTER + INTRA:         -10.152
REMARK INTER:                  -9.339
REMARK INTRA:                  -0.813
REMARK UNBOUND:                -0.524
REMARK  Name = 
REMARK  5 active torsions:
REMARK  status: ('A' for Active; 'I' for Inactive)
REMARK    1  A    between atoms: C_2  and  C_18
REMARK    2  A    between atoms: N_3  and  C_4
REMARK    3  A    between atoms: C_4  and  C_5
REMARK    4  A    between atoms: C_8  and  C_9
REMARK    5  A    between atoms: C_9  and  C_10
REMARK                            x       y       z     vdW  Elec       q    Type
REMARK                         _______ _______ _______ _____ _____    ______ ____
ROOT
ATOM      1  O   UNL     1      45.848   7.845  11.555  0.00  0.00    +0.000 OA
ATOM      2  C   UNL     1      46.224   6.682  11.671  0.00  0.00    +0.000 C 
ATOM      3  N   UNL     1      47.284   6.325  12.462  0.00  0.00    +0.000 N 
ATOM      4  H   UNL     1      47.544   5.353  12.565  0.00  0.00    +0.000 HD
ENDROOT
BRANCH   2   5
ATOM      5  C   UNL     1      45.591   5.588  10.929  0.00  0.00    +0.000 A 
ATOM      6  C   UNL     1      45.686   5.533   9.545  0.00  0.00    +0.000 A 
ATOM      7  S   UNL     1      44.919   4.168   8.866  0.00  0.00    +0.000 S 
ATOM      8  C   UNL     1      44.403   3.625  10.395  0.00  0.00    +0.000 A 
ATOM      9  N   UNL     1      43.679   2.481  10.526  0.00  0.00    +0.000 NA
ATOM     10  C   UNL     1      43.337   2.204  11.743  0.00  0.00    +0.000 A 
ATOM     11  N   UNL     1      43.645   2.973  12.835  0.00  0.00    +0.000 N 
ATOM     12  C   UNL     1      44.382   4.127  12.752  0.00  0.00    +0.000 A 
ATOM     13  O   UNL     1      44.661   4.772  13.759  0.00  0.00    +0.000 OA
ATOM     14  C   UNL     1      44.806   4.477  11.408  0.00  0.00    +0.000 A 
ATOM     15  H   UNL     1      43.350   2.699  13.762  0.00  0.00    +0.000 HD
ENDBRANCH   2   5
BRANCH   3  16
ATOM     16  C   UNL     1      47.990   7.259  13.306  0.00  0.00    +0.000 C 
BRANCH  16  17
ATOM     17  C   UNL     1      48.534   6.609  14.555  0.00  0.00    +0.000 A 
ATOM     18  C   UNL     1      49.710   7.084  15.128  0.00  0.00    +0.000 A 
ATOM     19  C   UNL     1      50.175   6.495  16.300  0.00  0.00    +0.000 A 
ATOM     20  C   UNL     1      49.462   5.445  16.880  0.00  0.00    +0.000 A 
ATOM     21  C   UNL     1      48.322   5.008  16.212  0.00  0.00    +0.000 A 
ATOM     22  N   UNL     1      47.843   5.562  15.075  0.00  0.00    +0.000 NA
BRANCH  20  23
ATOM     23  C   UNL     1      49.913   4.806  18.165  0.00  0.00    +0.000 C 
BRANCH  23  24
ATOM     24  C   UNL     1      50.737   3.564  17.967  0.00  0.00    +0.000 A 
ATOM     25  C   UNL     1      52.085   3.514  18.334  0.00  0.00    +0.000 A 
ATOM     26  C   UNL     1      52.823   2.360  18.092  0.00  0.00    +0.000 A 
ATOM     27  C   UNL     1      52.186   1.287  17.491  0.00  0.00    +0.000 A 
ATOM     28  N   UNL     1      50.884   1.291  17.136  0.00  0.00    +0.000 NA
ATOM     29  C   UNL     1      50.192   2.427  17.377  0.00  0.00    +0.000 A 
ENDBRANCH  23  24
ENDBRANCH  20  23
ENDBRANCH  16  17
ENDBRANCH   3  16
TORSDOF 5
ENDMDL
MODEL 5
REMARK VINA RESULT:    -7.392      2.554      3.245
REMARK INTER + INTRA:         -10.077
REMARK INTER:                  -9.214
REMARK INTRA:                  -0.864
REMARK UNBOUND:                -0.524
REMARK  Name = 
REMARK  5 active torsions:
REMARK  status: ('A' for Active; 'I' for Inactive)
REMARK    1  A    between atoms: C_2  and  C_18
REMARK    2  A    between atoms: N_3  and  C_4
REMARK    3  A    between atoms: C_4  and  C_5
REMARK    4  A    between atoms: C_8  and  C_9
REMARK    5  A    between atoms: C_9  and  C_10
REMARK                            x       y       z     vdW  Elec       q    Type
REMARK                         _______ _______ _______ _____ _____    ______ ____
ROOT
ATOM      1  O   UNL     1      47.245   8.875  14.246  0.00  0.00    +0.000 OA
ATOM      2  C   UNL     1      48.055   8.048  13.834  0.00  0.00    +0.000 C 
ATOM      3  N   UNL     1      47.706   6.757  13.543  0.00  0.00    +0.000 N 
ATOM      4  H   UNL     1      48.390   6.112  13.169  0.00  0.00    +0.000 HD
ENDROOT
BRANCH   2   5
ATOM      5  C   UNL     1      49.475   8.374  13.668  0.00  0.00    +0.000 A 
ATOM      6  C   UNL     1      49.880   9.248  12.669  0.00  0.00    +0.000 A 
ATOM      7  S   UNL     1      51.563   9.530  12.657  0.00  0.00    +0.000 S 
ATOM      8  C   UNL     1      51.810   8.466  13.962  0.00  0.00    +0.000 A 
ATOM      9  N   UNL     1      53.055   8.246  14.463  0.00  0.00    +0.000 NA
ATOM     10  C   UNL     1      53.094   7.396  15.438  0.00  0.00    +0.000 A 
ATOM     11  N   UNL     1      52.004   6.742  15.948  0.00  0.00    +0.000 N 
ATOM     12  C   UNL     1      50.728   6.941  15.483  0.00  0.00    +0.000 A 
ATOM     13  O   UNL     1      49.774   6.357  15.987  0.00  0.00    +0.000 OA
ATOM     14  C   UNL     1      50.625   7.899  14.397  0.00  0.00    +0.000 A 
ATOM     15  H   UNL     1      52.101   6.091  16.715  0.00  0.00    +0.000 HD
ENDBRANCH   2   5
BRANCH   3  16
ATOM     16  C   UNL     1      46.346   6.274  13.594  0.00  0.00    +0.000 C 
BRANCH  16  17
ATOM     17  C   UNL     1      45.924   5.603  12.310  0.00  0.00    +0.000 A 
ATOM     18  C   UNL     1      45.308   4.357  12.349  0.00  0.00    +0.000 A 
ATOM     19  C   UNL     1      44.892   3.772  11.156  0.00  0.00    +0.000 A 
ATOM     20  C   UNL     1      45.098   4.438   9.948  0.00  0.00    +0.000 A 
ATOM     21  C   UNL     1      45.763   5.659  10.002  0.00  0.00    +0.000 A 
ATOM     22  N   UNL     1      46.174   6.255  11.145  0.00  0.00    +0.000 NA
BRANCH  20  23
ATOM     23  C   UNL     1      44.633   3.855   8.641  0.00  0.00    +0.000 C 
BRANCH  23  24
ATOM     24  C   UNL     1      45.626   2.922   8.006  0.00  0.00    +0.000 A 
ATOM     25  C   UNL     1      46.399   3.312   6.909  0.00  0.00    +0.000 A 
ATOM     26  C   UNL     1      47.273   2.402   6.323  0.00  0.00    +0.000 A 
ATOM     27  C   UNL     1      47.348   1.126   6.857  0.00  0.00    +0.000 A 
ATOM     28  N   UNL     1      46.630   0.716   7.923  0.00  0.00    +0.000 NA
ATOM     29  C   UNL     1      45.784   1.618   8.469  0.00  0.00    +0.000 A 
ENDBRANCH  23  24
ENDBRANCH  20  23
ENDBRANCH  16  17
ENDBRANCH   3  16
TORSDOF 5
ENDMDL
MODEL 6
REMARK VINA RESULT:    -7.328      4.140      9.060
REMARK INTER + INTRA:          -9.995
REMARK INTER:                  -9.406
REMARK INTRA:                  -0.589
REMARK UNBOUND:                -0.524
REMARK  Name = 
REMARK  5 active torsions:
REMARK  status: ('A' for Active; 'I' for Inactive)
REMARK    1  A    between atoms: C_2  and  C_18
REMARK    2  A    between atoms: N_3  and  C_4
REMARK    3  A    between atoms: C_4  and  C_5
REMARK    4  A    between atoms: C_8  and  C_9
REMARK    5  A    between atoms: C_9  and  C_10
REMARK                            x       y       z     vdW  Elec       q    Type
REMARK                         _______ _______ _______ _____ _____    ______ ____
ROOT
ATOM      1  O   UNL     1      47.029   3.057  13.772  0.00  0.00    +0.000 OA
ATOM      2  C   UNL     1      46.666   4.113  14.284  0.00  0.00    +0.000 C 
ATOM      3  N   UNL     1      46.728   4.337  15.633  0.00  0.00    +0.000 N 
ATOM      4  H   UNL     1      46.457   5.233  16.018  0.00  0.00    +0.000 HD
ENDROOT
BRANCH   2   5
ATOM      5  C   UNL     1      46.092   5.201  13.486  0.00  0.00    +0.000 A 
ATOM      6  C   UNL     1      46.810   6.371  13.279  0.00  0.00    +0.000 A 
ATOM      7  S   UNL     1      45.993   7.502  12.297  0.00  0.00    +0.000 S 
ATOM      8  C   UNL     1      44.639   6.481  12.146  0.00  0.00    +0.000 A 
ATOM      9  N   UNL     1      43.555   6.856  11.415  0.00  0.00    +0.000 NA
ATOM     10  C   UNL     1      42.593   5.991  11.409  0.00  0.00    +0.000 A 
ATOM     11  N   UNL     1      42.614   4.793  12.073  0.00  0.00    +0.000 N 
ATOM     12  C   UNL     1      43.690   4.369  12.812  0.00  0.00    +0.000 A 
ATOM     13  O   UNL     1      43.681   3.275  13.369  0.00  0.00    +0.000 OA
ATOM     14  C   UNL     1      44.806   5.296  12.840  0.00  0.00    +0.000 A 
ATOM     15  H   UNL     1      41.829   4.159  12.025  0.00  0.00    +0.000 HD
ENDBRANCH   2   5
BRANCH   3  16
ATOM     16  C   UNL     1      47.315   3.403  16.564  0.00  0.00    +0.000 C 
BRANCH  16  17
ATOM     17  C   UNL     1      48.730   3.773  16.937  0.00  0.00    +0.000 A 
ATOM     18  C   UNL     1      49.579   2.811  17.475  0.00  0.00    +0.000 A 
ATOM     19  C   UNL     1      50.891   3.162  17.778  0.00  0.00    +0.000 A 
ATOM     20  C   UNL     1      51.333   4.465  17.541  0.00  0.00    +0.000 A 
ATOM     21  C   UNL     1      50.401   5.370  17.043  0.00  0.00    +0.000 A 
ATOM     22  N   UNL     1      49.121   5.058  16.735  0.00  0.00    +0.000 NA
BRANCH  20  23
ATOM     23  C   UNL     1      52.753   4.874  17.822  0.00  0.00    +0.000 C 
BRANCH  23  24
ATOM     24  C   UNL     1      53.631   3.743  18.278  0.00  0.00    +0.000 A 
ATOM     25  C   UNL     1      54.422   3.022  17.380  0.00  0.00    +0.000 A 
ATOM     26  C   UNL     1      55.186   1.953  17.838  0.00  0.00    +0.000 A 
ATOM     27  C   UNL     1      55.136   1.640  19.186  0.00  0.00    +0.000 A 
ATOM     28  N   UNL     1      54.397   2.320  20.087  0.00  0.00    +0.000 NA
ATOM     29  C   UNL     1      53.660   3.350  19.614  0.00  0.00    +0.000 A 
ENDBRANCH  23  24
ENDBRANCH  20  23
ENDBRANCH  16  17
ENDBRANCH   3  16
TORSDOF 5
ENDMDL
MODEL 7
REMARK VINA RESULT:    -7.209      4.072      8.539
REMARK INTER + INTRA:          -9.840
REMARK INTER:                  -8.956
REMARK INTRA:                  -0.884
REMARK UNBOUND:                -0.524
REMARK  Name = 
REMARK  5 active torsions:
REMARK  status: ('A' for Active; 'I' for Inactive)
REMARK    1  A    between atoms: C_2  and  C_18
REMARK    2  A    between atoms: N_3  and  C_4
REMARK    3  A    between atoms: C_4  and  C_5
REMARK    4  A    between atoms: C_8  and  C_9
REMARK    5  A    between atoms: C_9  and  C_10
REMARK                            x       y       z     vdW  Elec       q    Type
REMARK                         _______ _______ _______ _____ _____    ______ ____
ROOT
ATOM      1  O   UNL     1      47.275   3.212  13.806  0.00  0.00    +0.000 OA
ATOM      2  C   UNL     1      46.777   4.216  14.308  0.00  0.00    +0.000 C 
ATOM      3  N   UNL     1      46.723   4.415  15.662  0.00  0.00    +0.000 N 
ATOM      4  H   UNL     1      46.340   5.271  16.040  0.00  0.00    +0.000 HD
ENDROOT
BRANCH   2   5
ATOM      5  C   UNL     1      46.158   5.263  13.489  0.00  0.00    +0.000 A 
ATOM      6  C   UNL     1      46.808   6.473  13.291  0.00  0.00    +0.000 A 
ATOM      7  S   UNL     1      45.948   7.547  12.281  0.00  0.00    +0.000 S 
ATOM      8  C   UNL     1      44.662   6.445  12.106  0.00  0.00    +0.000 A 
ATOM      9  N   UNL     1      43.576   6.750  11.347  0.00  0.00    +0.000 NA
ATOM     10  C   UNL     1      42.667   5.828  11.324  0.00  0.00    +0.000 A 
ATOM     11  N   UNL     1      42.745   4.637  11.998  0.00  0.00    +0.000 N 
ATOM     12  C   UNL     1      43.827   4.283  12.765  0.00  0.00    +0.000 A 
ATOM     13  O   UNL     1      43.870   3.194  13.329  0.00  0.00    +0.000 OA
ATOM     14  C   UNL     1      44.884   5.277  12.812  0.00  0.00    +0.000 A 
ATOM     15  H   UNL     1      42.002   3.956  11.936  0.00  0.00    +0.000 HD
ENDBRANCH   2   5
BRANCH   3  16
ATOM     16  C   UNL     1      47.331   3.519  16.617  0.00  0.00    +0.000 C 
BRANCH  16  17
ATOM     17  C   UNL     1      48.697   3.987  17.057  0.00  0.00    +0.000 A 
ATOM     18  C   UNL     1      48.892   5.316  17.420  0.00  0.00    +0.000 A 
ATOM     19  C   UNL     1      50.149   5.718  17.859  0.00  0.00    +0.000 A 
ATOM     20  C   UNL     1      51.190   4.790  17.927  0.00  0.00    +0.000 A 
ATOM     21  C   UNL     1      50.914   3.495  17.502  0.00  0.00    +0.000 A 
ATOM     22  N   UNL     1      49.701   3.073  17.075  0.00  0.00    +0.000 NA
BRANCH  20  23
ATOM     23  C   UNL     1      52.554   5.178  18.429  0.00  0.00    +0.000 C 
BRANCH  23  24
ATOM     24  C   UNL     1      53.572   5.360  17.338  0.00  0.00    +0.000 A 
ATOM     25  C   UNL     1      53.434   6.355  16.366  0.00  0.00    +0.000 A 
ATOM     26  C   UNL     1      54.375   6.459  15.347  0.00  0.00    +0.000 A 
ATOM     27  C   UNL     1      55.431   5.564  15.334  0.00  0.00    +0.000 A 
ATOM     28  N   UNL     1      55.608   4.600  16.262  0.00  0.00    +0.000 NA
ATOM     29  C   UNL     1      54.676   4.517  17.237  0.00  0.00    +0.000 A 
ENDBRANCH  23  24
ENDBRANCH  20  23
ENDBRANCH  16  17
ENDBRANCH   3  16
TORSDOF 5
ENDMDL
MODEL 8
REMARK VINA RESULT:    -6.904      2.278      3.402
REMARK INTER + INTRA:          -9.446
REMARK INTER:                  -8.712
REMARK INTRA:                  -0.734
REMARK UNBOUND:                -0.524
REMARK  Name = 
REMARK  5 active torsions:
REMARK  status: ('A' for Active; 'I' for Inactive)
REMARK    1  A    between atoms: C_2  and  C_18
REMARK    2  A    between atoms: N_3  and  C_4
REMARK    3  A    between atoms: C_4  and  C_5
REMARK    4  A    between atoms: C_8  and  C_9
REMARK    5  A    between atoms: C_9  and  C_10
REMARK                            x       y       z     vdW  Elec       q    Type
REMARK                         _______ _______ _______ _____ _____    ______ ____
ROOT
ATOM      1  O   UNL     1      50.498   7.236  15.730  0.00  0.00    +0.000 OA
ATOM      2  C   UNL     1      49.341   7.216  16.142  0.00  0.00    +0.000 C 
ATOM      3  N   UNL     1      48.266   7.468  15.332  0.00  0.00    +0.000 N 
ATOM      4  H   UNL     1      47.324   7.406  15.695  0.00  0.00    +0.000 HD
ENDROOT
BRANCH   2   5
ATOM      5  C   UNL     1      49.027   6.966  17.552  0.00  0.00    +0.000 A 
ATOM      6  C   UNL     1      48.793   8.028  18.415  0.00  0.00    +0.000 A 
ATOM      7  S   UNL     1      48.407   7.537  20.004  0.00  0.00    +0.000 S 
ATOM      8  C   UNL     1      48.578   5.892  19.599  0.00  0.00    +0.000 A 
ATOM      9  N   UNL     1      48.379   4.917  20.526  0.00  0.00    +0.000 NA
ATOM     10  C   UNL     1      48.565   3.716  20.083  0.00  0.00    +0.000 A 
ATOM     11  N   UNL     1      48.941   3.404  18.803  0.00  0.00    +0.000 N 
ATOM     12  C   UNL     1      49.141   4.354  17.832  0.00  0.00    +0.000 A 
ATOM     13  O   UNL     1      49.448   4.031  16.688  0.00  0.00    +0.000 OA
ATOM     14  C   UNL     1      48.929   5.721  18.272  0.00  0.00    +0.000 A 
ATOM     15  H   UNL     1      49.067   2.443  18.518  0.00  0.00    +0.000 HD
ENDBRANCH   2   5
BRANCH   3  16
ATOM     16  C   UNL     1      48.380   7.678  13.908  0.00  0.00    +0.000 C 
BRANCH  16  17
ATOM     17  C   UNL     1      47.380   6.864  13.123  0.00  0.00    +0.000 A 
ATOM     18  C   UNL     1      47.088   5.561  13.512  0.00  0.00    +0.000 A 
ATOM     19  C   UNL     1      46.135   4.841  12.798  0.00  0.00    +0.000 A 
ATOM     20  C   UNL     1      45.492   5.431  11.709  0.00  0.00    +0.000 A 
ATOM     21  C   UNL     1      45.880   6.722  11.366  0.00  0.00    +0.000 A 
ATOM     22  N   UNL     1      46.799   7.449  12.044  0.00  0.00    +0.000 NA
BRANCH  20  23
ATOM     23  C   UNL     1      44.431   4.698  10.933  0.00  0.00    +0.000 C 
BRANCH  23  24
ATOM     24  C   UNL     1      44.964   3.932   9.755  0.00  0.00    +0.000 A 
ATOM     25  C   UNL     1      44.992   2.534   9.742  0.00  0.00    +0.000 A 
ATOM     26  C   UNL     1      45.536   1.865   8.651  0.00  0.00    +0.000 A 
ATOM     27  C   UNL     1      46.033   2.618   7.600  0.00  0.00    +0.000 A 
ATOM     28  N   UNL     1      46.010   3.967   7.568  0.00  0.00    +0.000 NA
ATOM     29  C   UNL     1      45.483   4.591   8.643  0.00  0.00    +0.000 A 
ENDBRANCH  23  24
ENDBRANCH  20  23
ENDBRANCH  16  17
ENDBRANCH   3  16
TORSDOF 5
ENDMDL
MODEL 9
REMARK VINA RESULT:    -6.787      2.935      8.773
REMARK INTER + INTRA:          -9.295
REMARK INTER:                  -8.330
REMARK INTRA:                  -0.965
REMARK UNBOUND:                -0.524
REMARK  Name = 
REMARK  5 active torsions:
REMARK  status: ('A' for Active; 'I' for Inactive)
REMARK    1  A    between atoms: C_2  and  C_18
REMARK    2  A    between atoms: N_3  and  C_4
REMARK    3  A    between atoms: C_4  and  C_5
REMARK    4  A    between atoms: C_8  and  C_9
REMARK    5  A    between atoms: C_9  and  C_10
REMARK                            x       y       z     vdW  Elec       q    Type
REMARK                         _______ _______ _______ _____ _____    ______ ____
ROOT
ATOM      1  O   UNL     1      44.402   7.496  11.533  0.00  0.00    +0.000 OA
ATOM      2  C   UNL     1      45.151   6.524  11.590  0.00  0.00    +0.000 C 
ATOM      3  N   UNL     1      46.493   6.641  11.833  0.00  0.00    +0.000 N 
ATOM      4  H   UNL     1      47.075   5.816  11.912  0.00  0.00    +0.000 HD
ENDROOT
BRANCH   2   5
ATOM      5  C   UNL     1      44.667   5.161  11.353  0.00  0.00    +0.000 A 
ATOM      6  C   UNL     1      43.928   4.501  12.326  0.00  0.00    +0.000 A 
ATOM      7  S   UNL     1      43.422   2.942  11.853  0.00  0.00    +0.000 S 
ATOM      8  C   UNL     1      44.205   3.081  10.347  0.00  0.00    +0.000 A 
ATOM      9  N   UNL     1      44.163   2.071   9.438  0.00  0.00    +0.000 NA
ATOM     10  C   UNL     1      44.821   2.308   8.349  0.00  0.00    +0.000 A 
ATOM     11  N   UNL     1      45.523   3.456   8.094  0.00  0.00    +0.000 N 
ATOM     12  C   UNL     1      45.583   4.506   8.977  0.00  0.00    +0.000 A 
ATOM     13  O   UNL     1      46.199   5.530   8.698  0.00  0.00    +0.000 OA
ATOM     14  C   UNL     1      44.847   4.299  10.211  0.00  0.00    +0.000 A 
ATOM     15  H   UNL     1      46.015   3.581   7.220  0.00  0.00    +0.000 HD
ENDBRANCH   2   5
BRANCH   3  16
ATOM     16  C   UNL     1      47.134   7.896  12.144  0.00  0.00    +0.000 C 
BRANCH  16  17
ATOM     17  C   UNL     1      47.763   7.898  13.517  0.00  0.00    +0.000 A 
ATOM     18  C   UNL     1      48.203   6.704  14.080  0.00  0.00    +0.000 A 
ATOM     19  C   UNL     1      48.814   6.733  15.330  0.00  0.00    +0.000 A 
ATOM     20  C   UNL     1      48.973   7.948  15.997  0.00  0.00    +0.000 A 
ATOM     21  C   UNL     1      48.461   9.084  15.378  0.00  0.00    +0.000 A 
ATOM     22  N   UNL     1      47.868   9.089  14.162  0.00  0.00    +0.000 NA
BRANCH  20  23
ATOM     23  C   UNL     1      49.658   8.025  17.334  0.00  0.00    +0.000 C 
BRANCH  23  24
ATOM     24  C   UNL     1      49.128   7.046  18.345  0.00  0.00    +0.000 A 
ATOM     25  C   UNL     1      47.864   7.201  18.920  0.00  0.00    +0.000 A 
ATOM     26  C   UNL     1      47.430   6.298  19.885  0.00  0.00    +0.000 A 
ATOM     27  C   UNL     1      48.277   5.262  20.243  0.00  0.00    +0.000 A 
ATOM     28  N   UNL     1      49.497   5.070  19.700  0.00  0.00    +0.000 NA
ATOM     29  C   UNL     1      49.896   5.965  18.770  0.00  0.00    +0.000 A 
ENDBRANCH  23  24
ENDBRANCH  20  23
ENDBRANCH  16  17
ENDBRANCH   3  16
TORSDOF 5
ENDMDL
