MODEL 1
REMARK VINA RESULT:    -8.718      0.000      0.000
REMARK INTER + INTRA:         -13.489
REMARK INTER:                 -12.285
REMARK INTRA:                  -1.204
REMARK UNBOUND:                -1.204
REMARK  Name = 
REMARK  8 active torsions:
REMARK  status: ('A' for Active; 'I' for Inactive)
REMARK    1  A    between atoms: C_1  and  C_2
REMARK    2  A    between atoms: C_2  and  N_3
REMARK    3  A    between atoms: C_2  and  C_25
REMARK    4  A    between atoms: N_3  and  C_4
REMARK    5  A    between atoms: C_4  and  C_5
REMARK    6  A    between atoms: C_8  and  C_9
REMARK    7  A    between atoms: C_9  and  N_10
REMARK    8  A    between atoms: C_11  and  C_13
REMARK                            x       y       z     vdW  Elec       q    Type
REMARK                         _______ _______ _______ _____ _____    ______ ____
ROOT
ATOM      1  C   UNL     1      44.594   5.519  10.932  0.00  0.00    +0.000 A 
ATOM      2  C   UNL     1      45.889   5.815  10.498  0.00  0.00    +0.000 A 
ATOM      3  C   UNL     1      46.706   6.637  11.267  0.00  0.00    +0.000 A 
ATOM      4  C   UNL     1      46.216   7.139  12.471  0.00  0.00    +0.000 A 
ATOM      5  N   UNL     1      44.959   6.874  12.908  0.00  0.00    +0.000 NA
ATOM      6  C   UNL     1      44.187   6.077  12.136  0.00  0.00    +0.000 A 
ENDROOT
BRANCH   1   7
ATOM      7  C   UNL     1      43.645   4.713  10.089  0.00  0.00    +0.000 C 
BRANCH   7   8
ATOM      8  N   UNL     1      44.275   4.198   8.874  0.00  0.00    +0.000 NA
ATOM      9  H   UNL     1      44.904   4.910   8.500  0.00  0.00    +0.000 HD
BRANCH   8  11
ATOM     10  C   UNL     1      44.172   1.747   9.369  0.00  0.00    +0.000 C 
ATOM     11  C   UNL     1      45.060   2.976   9.120  0.00  0.00    +0.000 C 
BRANCH  11  12
ATOM     12  C   UNL     1      46.001   2.701   7.955  0.00  0.00    +0.000 A 
ATOM     13  C   UNL     1      46.659   1.464   7.856  0.00  0.00    +0.000 A 
ATOM     14  C   UNL     1      47.474   1.176   6.757  0.00  0.00    +0.000 A 
ATOM     15  C   UNL     1      47.643   2.116   5.746  0.00  0.00    +0.000 A 
ATOM     16  C   UNL     1      47.014   3.355   5.838  0.00  0.00    +0.000 A 
ATOM     17  C   UNL     1      46.203   3.649   6.937  0.00  0.00    +0.000 A 
ENDBRANCH  11  12
ENDBRANCH   8  11
ENDBRANCH   7   8
ENDBRANCH   1   7
BRANCH   4  18
ATOM     18  C   UNL     1      47.062   8.066  13.313  0.00  0.00    +0.000 C 
BRANCH  18  19
ATOM     19  N   UNL     1      47.496   7.420  14.531  0.00  0.00    +0.000 N 
ATOM     20  C   UNL     1      48.743   6.869  14.656  0.00  0.00    +0.000 C 
ATOM     21  O   UNL     1      49.587   6.956  13.767  0.00  0.00    +0.000 OA
ATOM     22  H   UNL     1      46.752   7.128  15.160  0.00  0.00    +0.000 HD
BRANCH  20  23
ATOM     23  C   UNL     1      49.055   6.230  15.941  0.00  0.00    +0.000 A 
ATOM     24  C   UNL     1      50.084   6.735  16.725  0.00  0.00    +0.000 A 
ATOM     25  S   UNL     1      50.291   5.905  18.200  0.00  0.00    +0.000 S 
ATOM     26  C   UNL     1      49.044   4.810  17.820  0.00  0.00    +0.000 A 
ATOM     27  N   UNL     1      48.721   3.798  18.669  0.00  0.00    +0.000 NA
ATOM     28  C   UNL     1      47.780   3.024  18.240  0.00  0.00    +0.000 A 
ATOM     29  N   UNL     1      47.126   3.175  17.045  0.00  0.00    +0.000 N 
ATOM     30  C   UNL     1      47.394   4.206  16.174  0.00  0.00    +0.000 A 
ATOM     31  O   UNL     1      46.753   4.348  15.138  0.00  0.00    +0.000 OA
ATOM     32  C   UNL     1      48.460   5.091  16.598  0.00  0.00    +0.000 A 
ATOM     33  H   UNL     1      46.390   2.543  16.772  0.00  0.00    +0.000 HD
ENDBRANCH  20  23
ENDBRANCH  18  19
ENDBRANCH   4  18
TORSDOF 7
ENDMDL
MODEL 2
REMARK VINA RESULT:    -8.360      1.926      2.412
REMARK INTER + INTRA:         -12.986
REMARK INTER:                 -12.102
REMARK INTRA:                  -0.884
REMARK UNBOUND:                -1.204
REMARK  Name = 
REMARK  8 active torsions:
REMARK  status: ('A' for Active; 'I' for Inactive)
REMARK    1  A    between atoms: C_1  and  C_2
REMARK    2  A    between atoms: C_2  and  N_3
REMARK    3  A    between atoms: C_2  and  C_25
REMARK    4  A    between atoms: N_3  and  C_4
REMARK    5  A    between atoms: C_4  and  C_5
REMARK    6  A    between atoms: C_8  and  C_9
REMARK    7  A    between atoms: C_9  and  N_10
REMARK    8  A    between atoms: C_11  and  C_13
REMARK                            x       y       z     vdW  Elec       q    Type
REMARK                         _______ _______ _______ _____ _____    ______ ____
ROOT
ATOM      1  C   UNL     1      45.692   4.541  12.263  0.00  0.00    +0.000 A 
ATOM      2  C   UNL     1      45.964   5.767  11.650  0.00  0.00    +0.000 A 
ATOM      3  C   UNL     1      46.920   6.617  12.196  0.00  0.00    +0.000 A 
ATOM      4  C   UNL     1      47.603   6.218  13.343  0.00  0.00    +0.000 A 
ATOM      5  N   UNL     1      47.348   5.037  13.962  0.00  0.00    +0.000 NA
ATOM      6  C   UNL     1      46.410   4.235  13.412  0.00  0.00    +0.000 A 
ENDROOT
BRANCH   1   7
ATOM      7  C   UNL     1      44.602   3.634  11.764  0.00  0.00    +0.000 C 
BRANCH   7   8
ATOM      8  N   UNL     1      45.085   2.675  10.771  0.00  0.00    +0.000 NA
ATOM      9  H   UNL     1      44.841   1.732  11.076  0.00  0.00    +0.000 HD
BRANCH   8  11
ATOM     10  C   UNL     1      43.972   4.329   9.258  0.00  0.00    +0.000 C 
ATOM     11  C   UNL     1      44.494   2.895   9.440  0.00  0.00    +0.000 C 
BRANCH  11  12
ATOM     12  C   UNL     1      45.503   2.574   8.346  0.00  0.00    +0.000 A 
ATOM     13  C   UNL     1      45.850   3.550   7.398  0.00  0.00    +0.000 A 
ATOM     14  C   UNL     1      46.823   3.289   6.428  0.00  0.00    +0.000 A 
ATOM     15  C   UNL     1      47.460   2.052   6.393  0.00  0.00    +0.000 A 
ATOM     16  C   UNL     1      47.115   1.066   7.313  0.00  0.00    +0.000 A 
ATOM     17  C   UNL     1      46.139   1.322   8.280  0.00  0.00    +0.000 A 
ENDBRANCH  11  12
ENDBRANCH   8  11
ENDBRANCH   7   8
ENDBRANCH   1   7
BRANCH   4  18
ATOM     18  C   UNL     1      48.620   7.132  13.985  0.00  0.00    +0.000 C 
BRANCH  18  19
ATOM     19  N   UNL     1      48.426   7.212  15.416  0.00  0.00    +0.000 N 
ATOM     20  C   UNL     1      49.372   6.769  16.301  0.00  0.00    +0.000 C 
ATOM     21  O   UNL     1      50.465   6.346  15.932  0.00  0.00    +0.000 OA
ATOM     22  H   UNL     1      47.462   7.320  15.721  0.00  0.00    +0.000 HD
BRANCH  20  23
ATOM     23  C   UNL     1      49.046   6.894  17.728  0.00  0.00    +0.000 A 
ATOM     24  C   UNL     1      48.890   8.156  18.287  0.00  0.00    +0.000 A 
ATOM     25  S   UNL     1      48.477   8.125  19.941  0.00  0.00    +0.000 S 
ATOM     26  C   UNL     1      48.542   6.424  19.980  0.00  0.00    +0.000 A 
ATOM     27  N   UNL     1      48.314   5.744  21.135  0.00  0.00    +0.000 NA
ATOM     28  C   UNL     1      48.428   4.461  21.029  0.00  0.00    +0.000 A 
ATOM     29  N   UNL     1      48.740   3.798  19.871  0.00  0.00    +0.000 N 
ATOM     30  C   UNL     1      48.941   4.443  18.672  0.00  0.00    +0.000 A 
ATOM     31  O   UNL     1      49.162   3.817  17.641  0.00  0.00    +0.000 OA
ATOM     32  C   UNL     1      48.847   5.887  18.743  0.00  0.00    +0.000 A 
ATOM     33  H   UNL     1      48.803   2.792  19.849  0.00  0.00    +0.000 HD
ENDBRANCH  20  23
ENDBRANCH  18  19
ENDBRANCH   4  18
TORSDOF 7
ENDMDL
MODEL 3
REMARK VINA RESULT:    -7.931      1.881      2.363
REMARK INTER + INTRA:         -12.381
REMARK INTER:                 -11.384
REMARK INTRA:                  -0.997
REMARK UNBOUND:                -1.204
REMARK  Name = 
REMARK  8 active torsions:
REMARK  status: ('A' for Active; 'I' for Inactive)
REMARK    1  A    between atoms: C_1  and  C_2
REMARK    2  A    between atoms: C_2  and  N_3
REMARK    3  A    between atoms: C_2  and  C_25
REMARK    4  A    between atoms: N_3  and  C_4
REMARK    5  A    between atoms: C_4  and  C_5
REMARK    6  A    between atoms: C_8  and  C_9
REMARK    7  A    between atoms: C_9  and  N_10
REMARK    8  A    between atoms: C_11  and  C_13
REMARK                            x       y       z     vdW  Elec       q    Type
REMARK                         _______ _______ _______ _____ _____    ______ ____
ROOT
ATOM      1  C   UNL     1      44.816   5.423  11.160  0.00  0.00    +0.000 A 
ATOM      2  C   UNL     1      45.904   6.098  10.600  0.00  0.00    +0.000 A 
ATOM      3  C   UNL     1      46.888   6.631  11.426  0.00  0.00    +0.000 A 
ATOM      4  C   UNL     1      46.776   6.464  12.805  0.00  0.00    +0.000 A 
ATOM      5  N   UNL     1      45.723   5.821  13.372  0.00  0.00    +0.000 NA
ATOM      6  C   UNL     1      44.780   5.320  12.544  0.00  0.00    +0.000 A 
ENDROOT
BRANCH   1   7
ATOM      7  C   UNL     1      43.682   4.915  10.314  0.00  0.00    +0.000 C 
BRANCH   7   8
ATOM      8  N   UNL     1      44.148   4.259   9.092  0.00  0.00    +0.000 NA
ATOM      9  H   UNL     1      44.716   4.918   8.558  0.00  0.00    +0.000 HD
BRANCH   8  11
ATOM     10  C   UNL     1      44.118   1.851   9.776  0.00  0.00    +0.000 C 
ATOM     11  C   UNL     1      44.967   3.066   9.369  0.00  0.00    +0.000 C 
BRANCH  11  12
ATOM     12  C   UNL     1      45.821   2.711   8.159  0.00  0.00    +0.000 A 
ATOM     13  C   UNL     1      46.082   3.675   7.172  0.00  0.00    +0.000 A 
ATOM     14  C   UNL     1      46.918   3.380   6.090  0.00  0.00    +0.000 A 
ATOM     15  C   UNL     1      47.501   2.122   5.980  0.00  0.00    +0.000 A 
ATOM     16  C   UNL     1      47.237   1.147   6.939  0.00  0.00    +0.000 A 
ATOM     17  C   UNL     1      46.398   1.437   8.018  0.00  0.00    +0.000 A 
ENDBRANCH  11  12
ENDBRANCH   8  11
ENDBRANCH   7   8
ENDBRANCH   1   7
BRANCH   4  18
ATOM     18  C   UNL     1      47.806   7.062  13.734  0.00  0.00    +0.000 C 
BRANCH  18  19
ATOM     19  N   UNL     1      47.795   6.405  15.022  0.00  0.00    +0.000 N 
ATOM     20  C   UNL     1      48.810   6.567  15.927  0.00  0.00    +0.000 C 
ATOM     21  O   UNL     1      49.750   7.331  15.725  0.00  0.00    +0.000 OA
ATOM     22  H   UNL     1      47.175   5.603  15.099  0.00  0.00    +0.000 HD
BRANCH  20  23
ATOM     23  C   UNL     1      48.684   5.835  17.194  0.00  0.00    +0.000 A 
ATOM     24  C   UNL     1      48.984   4.479  17.235  0.00  0.00    +0.000 A 
ATOM     25  S   UNL     1      48.824   3.790  18.786  0.00  0.00    +0.000 S 
ATOM     26  C   UNL     1      48.298   5.267  19.447  0.00  0.00    +0.000 A 
ATOM     27  N   UNL     1      47.956   5.362  20.760  0.00  0.00    +0.000 NA
ATOM     28  C   UNL     1      47.543   6.533  21.119  0.00  0.00    +0.000 A 
ATOM     29  N   UNL     1      47.452   7.619  20.288  0.00  0.00    +0.000 N 
ATOM     30  C   UNL     1      47.824   7.578  18.964  0.00  0.00    +0.000 A 
ATOM     31  O   UNL     1      47.785   8.581  18.260  0.00  0.00    +0.000 OA
ATOM     32  C   UNL     1      48.273   6.278  18.505  0.00  0.00    +0.000 A 
ATOM     33  H   UNL     1      47.134   8.511  20.632  0.00  0.00    +0.000 HD
ENDBRANCH  20  23
ENDBRANCH  18  19
ENDBRANCH   4  18
TORSDOF 7
ENDMDL
MODEL 4
REMARK VINA RESULT:    -7.586      2.994      8.532
REMARK INTER + INTRA:         -11.894
REMARK INTER:                 -10.041
REMARK INTRA:                  -1.852
REMARK UNBOUND:                -1.204
REMARK  Name = 
REMARK  8 active torsions:
REMARK  status: ('A' for Active; 'I' for Inactive)
REMARK    1  A    between atoms: C_1  and  C_2
REMARK    2  A    between atoms: C_2  and  N_3
REMARK    3  A    between atoms: C_2  and  C_25
REMARK    4  A    between atoms: N_3  and  C_4
REMARK    5  A    between atoms: C_4  and  C_5
REMARK    6  A    between atoms: C_8  and  C_9
REMARK    7  A    between atoms: C_9  and  N_10
REMARK    8  A    between atoms: C_11  and  C_13
REMARK                            x       y       z     vdW  Elec       q    Type
REMARK                         _______ _______ _______ _____ _____    ______ ____
ROOT
ATOM      1  C   UNL     1      48.743   7.891  16.037  0.00  0.00    +0.000 A 
ATOM      2  C   UNL     1      48.814   6.688  15.330  0.00  0.00    +0.000 A 
ATOM      3  C   UNL     1      48.396   6.639  14.003  0.00  0.00    +0.000 A 
ATOM      4  C   UNL     1      47.925   7.803  13.400  0.00  0.00    +0.000 A 
ATOM      5  N   UNL     1      47.837   8.981  14.071  0.00  0.00    +0.000 NA
ATOM      6  C   UNL     1      48.246   8.996  15.359  0.00  0.00    +0.000 A 
ENDROOT
BRANCH   1   7
ATOM      7  C   UNL     1      49.095   7.970  17.496  0.00  0.00    +0.000 C 
BRANCH   7   8
ATOM      8  N   UNL     1      48.008   7.504  18.358  0.00  0.00    +0.000 NA
ATOM      9  H   UNL     1      47.239   7.177  17.773  0.00  0.00    +0.000 HD
BRANCH   8  11
ATOM     10  C   UNL     1      47.524   6.264  20.477  0.00  0.00    +0.000 C 
ATOM     11  C   UNL     1      48.420   6.395  19.236  0.00  0.00    +0.000 C 
BRANCH  11  12
ATOM     12  C   UNL     1      48.427   5.080  18.469  0.00  0.00    +0.000 A 
ATOM     13  C   UNL     1      47.248   4.602  17.875  0.00  0.00    +0.000 A 
ATOM     14  C   UNL     1      47.257   3.429  17.114  0.00  0.00    +0.000 A 
ATOM     15  C   UNL     1      48.441   2.719  16.937  0.00  0.00    +0.000 A 
ATOM     16  C   UNL     1      49.615   3.168  17.536  0.00  0.00    +0.000 A 
ATOM     17  C   UNL     1      49.609   4.336  18.301  0.00  0.00    +0.000 A 
ENDBRANCH  11  12
ENDBRANCH   8  11
ENDBRANCH   7   8
ENDBRANCH   1   7
BRANCH   4  18
ATOM     18  C   UNL     1      47.427   7.778  11.974  0.00  0.00    +0.000 C 
BRANCH  18  19
ATOM     19  N   UNL     1      46.744   6.538  11.679  0.00  0.00    +0.000 N 
ATOM     20  C   UNL     1      45.379   6.435  11.718  0.00  0.00    +0.000 C 
ATOM     21  O   UNL     1      44.657   7.405  11.934  0.00  0.00    +0.000 OA
ATOM     22  H   UNL     1      47.314   5.698  11.744  0.00  0.00    +0.000 HD
BRANCH  20  23
ATOM     23  C   UNL     1      44.810   5.117  11.411  0.00  0.00    +0.000 A 
ATOM     24  C   UNL     1      44.043   4.462  12.366  0.00  0.00    +0.000 A 
ATOM     25  S   UNL     1      43.426   2.963  11.838  0.00  0.00    +0.000 S 
ATOM     26  C   UNL     1      44.204   3.113  10.331  0.00  0.00    +0.000 A 
ATOM     27  N   UNL     1      44.108   2.131   9.395  0.00  0.00    +0.000 NA
ATOM     28  C   UNL     1      44.774   2.360   8.313  0.00  0.00    +0.000 A 
ATOM     29  N   UNL     1      45.519   3.487   8.077  0.00  0.00    +0.000 N 
ATOM     30  C   UNL     1      45.613   4.522   8.980  0.00  0.00    +0.000 A 
ATOM     31  O   UNL     1      46.240   5.541   8.716  0.00  0.00    +0.000 OA
ATOM     32  C   UNL     1      44.901   4.302  10.223  0.00  0.00    +0.000 A 
ATOM     33  H   UNL     1      46.008   3.613   7.205  0.00  0.00    +0.000 HD
ENDBRANCH  20  23
ENDBRANCH  18  19
ENDBRANCH   4  18
TORSDOF 7
ENDMDL
MODEL 5
REMARK VINA RESULT:    -7.533      3.059      4.344
REMARK INTER + INTRA:         -11.819
REMARK INTER:                 -10.653
REMARK INTRA:                  -1.166
REMARK UNBOUND:                -1.204
REMARK  Name = 
REMARK  8 active torsions:
REMARK  status: ('A' for Active; 'I' for Inactive)
REMARK    1  A    between atoms: C_1  and  C_2
REMARK    2  A    between atoms: C_2  and  N_3
REMARK    3  A    between atoms: C_2  and  C_25
REMARK    4  A    between atoms: N_3  and  C_4
REMARK    5  A    between atoms: C_4  and  C_5
REMARK    6  A    between atoms: C_8  and  C_9
REMARK    7  A    between atoms: C_9  and  N_10
REMARK    8  A    between atoms: C_11  and  C_13
REMARK                            x       y       z     vdW  Elec       q    Type
REMARK                         _______ _______ _______ _____ _____    ______ ____
ROOT
ATOM      1  C   UNL     1      46.768   4.883  14.047  0.00  0.00    +0.000 A 
ATOM      2  C   UNL     1      47.388   6.060  13.620  0.00  0.00    +0.000 A 
ATOM      3  C   UNL     1      48.354   6.663  14.420  0.00  0.00    +0.000 A 
ATOM      4  C   UNL     1      48.696   6.067  15.632  0.00  0.00    +0.000 A 
ATOM      5  N   UNL     1      48.099   4.930  16.072  0.00  0.00    +0.000 NA
ATOM      6  C   UNL     1      47.161   4.370  15.276  0.00  0.00    +0.000 A 
ENDROOT
BRANCH   1   7
ATOM      7  C   UNL     1      45.653   4.249  13.262  0.00  0.00    +0.000 C 
BRANCH   7   8
ATOM      8  N   UNL     1      44.868   5.231  12.515  0.00  0.00    +0.000 NA
ATOM      9  H   UNL     1      45.491   5.750  11.895  0.00  0.00    +0.000 HD
BRANCH   8  11
ATOM     10  C   UNL     1      42.682   5.581  11.349  0.00  0.00    +0.000 C 
ATOM     11  C   UNL     1      43.819   4.606  11.691  0.00  0.00    +0.000 C 
BRANCH  11  12
ATOM     12  C   UNL     1      44.411   4.039  10.408  0.00  0.00    +0.000 A 
ATOM     13  C   UNL     1      45.166   4.862   9.556  0.00  0.00    +0.000 A 
ATOM     14  C   UNL     1      45.768   4.337   8.408  0.00  0.00    +0.000 A 
ATOM     15  C   UNL     1      45.625   2.989   8.097  0.00  0.00    +0.000 A 
ATOM     16  C   UNL     1      44.864   2.163   8.921  0.00  0.00    +0.000 A 
ATOM     17  C   UNL     1      44.256   2.684  10.065  0.00  0.00    +0.000 A 
ENDBRANCH  11  12
ENDBRANCH   8  11
ENDBRANCH   7   8
ENDBRANCH   1   7
BRANCH   4  18
ATOM     18  C   UNL     1      49.713   6.715  16.542  0.00  0.00    +0.000 C 
BRANCH  18  19
ATOM     19  N   UNL     1      50.712   5.763  16.974  0.00  0.00    +0.000 N 
ATOM     20  C   UNL     1      50.826   5.376  18.283  0.00  0.00    +0.000 C 
ATOM     21  O   UNL     1      50.044   5.760  19.148  0.00  0.00    +0.000 OA
ATOM     22  H   UNL     1      51.497   5.635  16.341  0.00  0.00    +0.000 HD
BRANCH  20  23
ATOM     23  C   UNL     1      51.891   4.413  18.592  0.00  0.00    +0.000 A 
ATOM     24  C   UNL     1      52.967   4.809  19.377  0.00  0.00    +0.000 A 
ATOM     25  S   UNL     1      54.092   3.564  19.674  0.00  0.00    +0.000 S 
ATOM     26  C   UNL     1      53.208   2.464  18.723  0.00  0.00    +0.000 A 
ATOM     27  N   UNL     1      53.650   1.192  18.532  0.00  0.00    +0.000 NA
ATOM     28  C   UNL     1      52.898   0.477  17.762  0.00  0.00    +0.000 A 
ATOM     29  N   UNL     1      51.740   0.914  17.174  0.00  0.00    +0.000 N 
ATOM     30  C   UNL     1      51.236   2.180  17.371  0.00  0.00    +0.000 A 
ATOM     31  O   UNL     1      50.167   2.523  16.877  0.00  0.00    +0.000 OA
ATOM     32  C   UNL     1      52.056   3.031  18.209  0.00  0.00    +0.000 A 
ATOM     33  H   UNL     1      51.190   0.303  16.593  0.00  0.00    +0.000 HD
ENDBRANCH  20  23
ENDBRANCH  18  19
ENDBRANCH   4  18
TORSDOF 7
ENDMDL
MODEL 6
REMARK VINA RESULT:    -7.130      3.377      8.304
REMARK INTER + INTRA:         -11.252
REMARK INTER:                  -9.695
REMARK INTRA:                  -1.557
REMARK UNBOUND:                -1.204
REMARK  Name = 
REMARK  8 active torsions:
REMARK  status: ('A' for Active; 'I' for Inactive)
REMARK    1  A    between atoms: C_1  and  C_2
REMARK    2  A    between atoms: C_2  and  N_3
REMARK    3  A    between atoms: C_2  and  C_25
REMARK    4  A    between atoms: N_3  and  C_4
REMARK    5  A    between atoms: C_4  and  C_5
REMARK    6  A    between atoms: C_8  and  C_9
REMARK    7  A    between atoms: C_9  and  N_10
REMARK    8  A    between atoms: C_11  and  C_13
REMARK                            x       y       z     vdW  Elec       q    Type
REMARK                         _______ _______ _______ _____ _____    ______ ____
ROOT
ATOM      1  C   UNL     1      50.248   7.018  15.811  0.00  0.00    +0.000 A 
ATOM      2  C   UNL     1      48.930   6.600  15.609  0.00  0.00    +0.000 A 
ATOM      3  C   UNL     1      48.274   6.928  14.427  0.00  0.00    +0.000 A 
ATOM      4  C   UNL     1      48.955   7.660  13.456  0.00  0.00    +0.000 A 
ATOM      5  N   UNL     1      50.232   8.086  13.635  0.00  0.00    +0.000 NA
ATOM      6  C   UNL     1      50.841   7.757  14.796  0.00  0.00    +0.000 A 
ENDROOT
BRANCH   1   7
ATOM      7  C   UNL     1      50.964   6.769  17.110  0.00  0.00    +0.000 C 
BRANCH   7   8
ATOM      8  N   UNL     1      50.043   6.626  18.237  0.00  0.00    +0.000 NA
ATOM      9  H   UNL     1      49.087   6.597  17.881  0.00  0.00    +0.000 HD
BRANCH   8  11
ATOM     10  C   UNL     1      49.563   5.401  20.365  0.00  0.00    +0.000 C 
ATOM     11  C   UNL     1      50.282   5.393  19.007  0.00  0.00    +0.000 C 
BRANCH  11  12
ATOM     12  C   UNL     1      49.854   4.170  18.208  0.00  0.00    +0.000 A 
ATOM     13  C   UNL     1      48.501   3.974  17.888  0.00  0.00    +0.000 A 
ATOM     14  C   UNL     1      48.104   2.889  17.100  0.00  0.00    +0.000 A 
ATOM     15  C   UNL     1      49.051   1.988  16.623  0.00  0.00    +0.000 A 
ATOM     16  C   UNL     1      50.395   2.156  16.948  0.00  0.00    +0.000 A 
ATOM     17  C   UNL     1      50.794   3.235  17.739  0.00  0.00    +0.000 A 
ENDBRANCH  11  12
ENDBRANCH   8  11
ENDBRANCH   7   8
ENDBRANCH   1   7
BRANCH   4  18
ATOM     18  C   UNL     1      48.261   8.066  12.177  0.00  0.00    +0.000 C 
BRANCH  18  19
ATOM     19  N   UNL     1      47.564   6.948  11.581  0.00  0.00    +0.000 N 
ATOM     20  C   UNL     1      46.207   6.950  11.405  0.00  0.00    +0.000 C 
ATOM     21  O   UNL     1      45.514   7.928  11.677  0.00  0.00    +0.000 OA
ATOM     22  H   UNL     1      48.070   6.066  11.583  0.00  0.00    +0.000 HD
BRANCH  20  23
ATOM     23  C   UNL     1      45.620   5.748  10.799  0.00  0.00    +0.000 A 
ATOM     24  C   UNL     1      45.784   5.516   9.439  0.00  0.00    +0.000 A 
ATOM     25  S   UNL     1      45.076   4.061   8.903  0.00  0.00    +0.000 S 
ATOM     26  C   UNL     1      44.482   3.713  10.460  0.00  0.00    +0.000 A 
ATOM     27  N   UNL     1      43.742   2.596  10.691  0.00  0.00    +0.000 NA
ATOM     28  C   UNL     1      43.329   2.475  11.909  0.00  0.00    +0.000 A 
ATOM     29  N   UNL     1      43.598   3.363  12.918  0.00  0.00    +0.000 N 
ATOM     30  C   UNL     1      44.374   4.485  12.738  0.00  0.00    +0.000 A 
ATOM     31  O   UNL     1      44.643   5.230  13.673  0.00  0.00    +0.000 OA
ATOM     32  C   UNL     1      44.843   4.680  11.381  0.00  0.00    +0.000 A 
ATOM     33  H   UNL     1      43.256   3.205  13.853  0.00  0.00    +0.000 HD
ENDBRANCH  20  23
ENDBRANCH  18  19
ENDBRANCH   4  18
TORSDOF 7
ENDMDL
MODEL 7
REMARK VINA RESULT:    -6.709      1.739      2.795
REMARK INTER + INTRA:         -10.658
REMARK INTER:                  -9.530
REMARK INTRA:                  -1.128
REMARK UNBOUND:                -1.204
REMARK  Name = 
REMARK  8 active torsions:
REMARK  status: ('A' for Active; 'I' for Inactive)
REMARK    1  A    between atoms: C_1  and  C_2
REMARK    2  A    between atoms: C_2  and  N_3
REMARK    3  A    between atoms: C_2  and  C_25
REMARK    4  A    between atoms: N_3  and  C_4
REMARK    5  A    between atoms: C_4  and  C_5
REMARK    6  A    between atoms: C_8  and  C_9
REMARK    7  A    between atoms: C_9  and  N_10
REMARK    8  A    between atoms: C_11  and  C_13
REMARK                            x       y       z     vdW  Elec       q    Type
REMARK                         _______ _______ _______ _____ _____    ______ ____
ROOT
ATOM      1  C   UNL     1      46.183   7.041  12.512  0.00  0.00    +0.000 A 
ATOM      2  C   UNL     1      46.733   8.323  12.576  0.00  0.00    +0.000 A 
ATOM      3  C   UNL     1      48.021   8.499  13.074  0.00  0.00    +0.000 A 
ATOM      4  C   UNL     1      48.744   7.382  13.487  0.00  0.00    +0.000 A 
ATOM      5  N   UNL     1      48.225   6.128  13.444  0.00  0.00    +0.000 NA
ATOM      6  C   UNL     1      46.971   5.989  12.960  0.00  0.00    +0.000 A 
ENDROOT
BRANCH   1   7
ATOM      7  C   UNL     1      44.764   6.813  12.070  0.00  0.00    +0.000 C 
BRANCH   7   8
ATOM      8  N   UNL     1      44.683   6.098  10.797  0.00  0.00    +0.000 NA
ATOM      9  H   UNL     1      45.537   6.272  10.265  0.00  0.00    +0.000 HD
BRANCH   8  11
ATOM     10  C   UNL     1      43.086   4.222  11.237  0.00  0.00    +0.000 C 
ATOM     11  C   UNL     1      44.541   4.643  10.974  0.00  0.00    +0.000 C 
BRANCH  11  12
ATOM     12  C   UNL     1      45.076   3.900   9.757  0.00  0.00    +0.000 A 
ATOM     13  C   UNL     1      45.663   4.612   8.698  0.00  0.00    +0.000 A 
ATOM     14  C   UNL     1      46.216   3.937   7.605  0.00  0.00    +0.000 A 
ATOM     15  C   UNL     1      46.189   2.546   7.556  0.00  0.00    +0.000 A 
ATOM     16  C   UNL     1      45.594   1.826   8.588  0.00  0.00    +0.000 A 
ATOM     17  C   UNL     1      45.036   2.497   9.679  0.00  0.00    +0.000 A 
ENDBRANCH  11  12
ENDBRANCH   8  11
ENDBRANCH   7   8
ENDBRANCH   1   7
BRANCH   4  18
ATOM     18  C   UNL     1      50.129   7.541  14.068  0.00  0.00    +0.000 C 
BRANCH  18  19
ATOM     19  N   UNL     1      50.169   7.122  15.452  0.00  0.00    +0.000 N 
ATOM     20  C   UNL     1      49.838   7.969  16.475  0.00  0.00    +0.000 C 
ATOM     21  O   UNL     1      49.421   9.106  16.273  0.00  0.00    +0.000 OA
ATOM     22  H   UNL     1      50.731   6.297  15.643  0.00  0.00    +0.000 HD
BRANCH  20  23
ATOM     23  C   UNL     1      49.932   7.424  17.836  0.00  0.00    +0.000 A 
ATOM     24  C   UNL     1      50.708   8.078  18.784  0.00  0.00    +0.000 A 
ATOM     25  S   UNL     1      50.680   7.339  20.320  0.00  0.00    +0.000 S 
ATOM     26  C   UNL     1      49.669   6.089  19.759  0.00  0.00    +0.000 A 
ATOM     27  N   UNL     1      49.281   5.081  20.585  0.00  0.00    +0.000 NA
ATOM     28  C   UNL     1      48.544   4.184  20.020  0.00  0.00    +0.000 A 
ATOM     29  N   UNL     1      48.151   4.208  18.707  0.00  0.00    +0.000 N 
ATOM     30  C   UNL     1      48.488   5.228  17.846  0.00  0.00    +0.000 A 
ATOM     31  O   UNL     1      48.073   5.250  16.693  0.00  0.00    +0.000 OA
ATOM     32  C   UNL     1      49.336   6.249  18.427  0.00  0.00    +0.000 A 
ATOM     33  H   UNL     1      47.563   3.483  18.327  0.00  0.00    +0.000 HD
ENDBRANCH  20  23
ENDBRANCH  18  19
ENDBRANCH   4  18
TORSDOF 7
ENDMDL
MODEL 8
REMARK VINA RESULT:    -6.691      3.117      8.829
REMARK INTER + INTRA:         -10.633
REMARK INTER:                  -9.469
REMARK INTRA:                  -1.164
REMARK UNBOUND:                -1.204
REMARK  Name = 
REMARK  8 active torsions:
REMARK  status: ('A' for Active; 'I' for Inactive)
REMARK    1  A    between atoms: C_1  and  C_2
REMARK    2  A    between atoms: C_2  and  N_3
REMARK    3  A    between atoms: C_2  and  C_25
REMARK    4  A    between atoms: N_3  and  C_4
REMARK    5  A    between atoms: C_4  and  C_5
REMARK    6  A    between atoms: C_8  and  C_9
REMARK    7  A    between atoms: C_9  and  N_10
REMARK    8  A    between atoms: C_11  and  C_13
REMARK                            x       y       z     vdW  Elec       q    Type
REMARK                         _______ _______ _______ _____ _____    ______ ____
ROOT
ATOM      1  C   UNL     1      49.106   7.464  16.331  0.00  0.00    +0.000 A 
ATOM      2  C   UNL     1      48.636   6.291  15.733  0.00  0.00    +0.000 A 
ATOM      3  C   UNL     1      48.045   6.345  14.474  0.00  0.00    +0.000 A 
ATOM      4  C   UNL     1      47.949   7.574  13.825  0.00  0.00    +0.000 A 
ATOM      5  N   UNL     1      48.388   8.727  14.391  0.00  0.00    +0.000 NA
ATOM      6  C   UNL     1      48.952   8.645  15.616  0.00  0.00    +0.000 A 
ENDROOT
BRANCH   1   7
ATOM      7  C   UNL     1      49.664   7.468  17.727  0.00  0.00    +0.000 C 
BRANCH   7   8
ATOM      8  N   UNL     1      49.863   6.118  18.253  0.00  0.00    +0.000 NA
ATOM      9  H   UNL     1      49.299   5.464  17.709  0.00  0.00    +0.000 HD
BRANCH   8  11
ATOM     10  C   UNL     1      52.049   5.991  19.465  0.00  0.00    +0.000 C 
ATOM     11  C   UNL     1      51.269   5.684  18.177  0.00  0.00    +0.000 C 
BRANCH  11  12
ATOM     12  C   UNL     1      51.353   4.195  17.870  0.00  0.00    +0.000 A 
ATOM     13  C   UNL     1      52.554   3.498  18.081  0.00  0.00    +0.000 A 
ATOM     14  C   UNL     1      52.625   2.118  17.864  0.00  0.00    +0.000 A 
ATOM     15  C   UNL     1      51.501   1.419  17.434  0.00  0.00    +0.000 A 
ATOM     16  C   UNL     1      50.308   2.098  17.200  0.00  0.00    +0.000 A 
ATOM     17  C   UNL     1      50.235   3.477  17.411  0.00  0.00    +0.000 A 
ENDBRANCH  11  12
ENDBRANCH   8  11
ENDBRANCH   7   8
ENDBRANCH   1   7
BRANCH   4  18
ATOM     18  C   UNL     1      47.279   7.675  12.475  0.00  0.00    +0.000 C 
BRANCH  18  19
ATOM     19  N   UNL     1      46.630   6.433  12.117  0.00  0.00    +0.000 N 
ATOM     20  C   UNL     1      45.319   6.387  11.725  0.00  0.00    +0.000 C 
ATOM     21  O   UNL     1      44.643   7.403  11.586  0.00  0.00    +0.000 OA
ATOM     22  H   UNL     1      47.084   5.589  12.457  0.00  0.00    +0.000 HD
BRANCH  20  23
ATOM     23  C   UNL     1      44.776   5.062  11.401  0.00  0.00    +0.000 A 
ATOM     24  C   UNL     1      44.021   4.381  12.348  0.00  0.00    +0.000 A 
ATOM     25  S   UNL     1      43.435   2.876  11.801  0.00  0.00    +0.000 S 
ATOM     26  C   UNL     1      44.210   3.059  10.297  0.00  0.00    +0.000 A 
ATOM     27  N   UNL     1      44.134   2.087   9.349  0.00  0.00    +0.000 NA
ATOM     28  C   UNL     1      44.796   2.343   8.270  0.00  0.00    +0.000 A 
ATOM     29  N   UNL     1      45.519   3.487   8.049  0.00  0.00    +0.000 N 
ATOM     30  C   UNL     1      45.592   4.512   8.963  0.00  0.00    +0.000 A 
ATOM     31  O   UNL     1      46.200   5.547   8.713  0.00  0.00    +0.000 OA
ATOM     32  C   UNL     1      44.884   4.263  10.203  0.00  0.00    +0.000 A 
ATOM     33  H   UNL     1      46.006   3.633   7.178  0.00  0.00    +0.000 HD
ENDBRANCH  20  23
ENDBRANCH  18  19
ENDBRANCH   4  18
TORSDOF 7
ENDMDL
MODEL 9
REMARK VINA RESULT:    -6.587      3.727      8.065
REMARK INTER + INTRA:         -10.487
REMARK INTER:                  -8.348
REMARK INTRA:                  -2.139
REMARK UNBOUND:                -1.204
REMARK  Name = 
REMARK  8 active torsions:
REMARK  status: ('A' for Active; 'I' for Inactive)
REMARK    1  A    between atoms: C_1  and  C_2
REMARK    2  A    between atoms: C_2  and  N_3
REMARK    3  A    between atoms: C_2  and  C_25
REMARK    4  A    between atoms: N_3  and  C_4
REMARK    5  A    between atoms: C_4  and  C_5
REMARK    6  A    between atoms: C_8  and  C_9
REMARK    7  A    between atoms: C_9  and  N_10
REMARK    8  A    between atoms: C_11  and  C_13
REMARK                            x       y       z     vdW  Elec       q    Type
REMARK                         _______ _______ _______ _____ _____    ______ ____
ROOT
ATOM      1  C   UNL     1      49.705   8.091  17.187  0.00  0.00    +0.000 A 
ATOM      2  C   UNL     1      50.228   7.274  16.181  0.00  0.00    +0.000 A 
ATOM      3  C   UNL     1      49.880   7.503  14.854  0.00  0.00    +0.000 A 
ATOM      4  C   UNL     1      49.023   8.560  14.552  0.00  0.00    +0.000 A 
ATOM      5  N   UNL     1      48.495   9.359  15.514  0.00  0.00    +0.000 NA
ATOM      6  C   UNL     1      48.846   9.109  16.794  0.00  0.00    +0.000 A 
ENDROOT
BRANCH   1   7
ATOM      7  C   UNL     1      49.977   7.823  18.642  0.00  0.00    +0.000 C 
BRANCH   7   8
ATOM      8  N   UNL     1      48.963   6.962  19.250  0.00  0.00    +0.000 NA
ATOM      9  H   UNL     1      48.163   6.896  18.619  0.00  0.00    +0.000 HD
BRANCH   8  11
ATOM     10  C   UNL     1      49.074   5.083  20.900  0.00  0.00    +0.000 C 
ATOM     11  C   UNL     1      49.460   5.599  19.504  0.00  0.00    +0.000 C 
BRANCH  11  12
ATOM     12  C   UNL     1      48.947   4.635  18.443  0.00  0.00    +0.000 A 
ATOM     13  C   UNL     1      49.761   3.584  17.990  0.00  0.00    +0.000 A 
ATOM     14  C   UNL     1      49.278   2.655  17.063  0.00  0.00    +0.000 A 
ATOM     15  C   UNL     1      47.978   2.763  16.578  0.00  0.00    +0.000 A 
ATOM     16  C   UNL     1      47.164   3.811  17.001  0.00  0.00    +0.000 A 
ATOM     17  C   UNL     1      47.645   4.744  17.922  0.00  0.00    +0.000 A 
ENDBRANCH  11  12
ENDBRANCH   8  11
ENDBRANCH   7   8
ENDBRANCH   1   7
BRANCH   4  18
ATOM     18  C   UNL     1      48.595   8.813  13.126  0.00  0.00    +0.000 C 
BRANCH  18  19
ATOM     19  N   UNL     1      47.660   7.807  12.672  0.00  0.00    +0.000 N 
ATOM     20  C   UNL     1      46.308   7.951  12.829  0.00  0.00    +0.000 C 
ATOM     21  O   UNL     1      45.809   8.971  13.298  0.00  0.00    +0.000 OA
ATOM     22  H   UNL     1      48.054   6.882  12.518  0.00  0.00    +0.000 HD
BRANCH  20  23
ATOM     23  C   UNL     1      45.469   6.851  12.337  0.00  0.00    +0.000 A 
ATOM     24  C   UNL     1      44.347   7.136  11.568  0.00  0.00    +0.000 A 
ATOM     25  S   UNL     1      43.505   5.748  11.046  0.00  0.00    +0.000 S 
ATOM     26  C   UNL     1      44.582   4.719  11.870  0.00  0.00    +0.000 A 
ATOM     27  N   UNL     1      44.407   3.370  11.857  0.00  0.00    +0.000 NA
ATOM     28  C   UNL     1      45.277   2.714  12.550  0.00  0.00    +0.000 A 
ATOM     29  N   UNL     1      46.311   3.282  13.246  0.00  0.00    +0.000 N 
ATOM     30  C   UNL     1      46.549   4.638  13.256  0.00  0.00    +0.000 A 
ATOM     31  O   UNL     1      47.516   5.111  13.842  0.00  0.00    +0.000 OA
ATOM     32  C   UNL     1      45.585   5.423  12.511  0.00  0.00    +0.000 A 
ATOM     33  H   UNL     1      46.966   2.714  13.760  0.00  0.00    +0.000 HD
ENDBRANCH  20  23
ENDBRANCH  18  19
ENDBRANCH   4  18
TORSDOF 7
ENDMDL
