MODEL 1
REMARK VINA RESULT:    -8.758      0.000      0.000
REMARK INTER + INTRA:         -11.897
REMARK INTER:                 -11.318
REMARK INTRA:                  -0.579
REMARK UNBOUND:                -0.579
REMARK  Name = 
REMARK  5 active torsions:
REMARK  status: ('A' for Active; 'I' for Inactive)
REMARK    1  A    between atoms: C_2  and  C_4
REMARK    2  A    between atoms: C_7  and  N_8
REMARK    3  A    between atoms: N_8  and  C_9
REMARK    4  A    between atoms: C_9  and  C_10
REMARK    5  A    between atoms: C_14  and  C_15
REMARK                            x       y       z     vdW  Elec       q    Type
REMARK                         _______ _______ _______ _____ _____    ______ ____
ROOT
ATOM      1  C   UNL     1      44.007   4.568  11.397  0.00  0.00    +0.000 C 
ENDROOT
BRANCH   1   2
ATOM      2  C   UNL     1      45.228   5.290  11.932  0.00  0.00    +0.000 A 
ATOM      3  C   UNL     1      45.741   6.417  11.282  0.00  0.00    +0.000 A 
ATOM      4  C   UNL     1      46.842   7.087  11.812  0.00  0.00    +0.000 A 
ATOM      5  C   UNL     1      47.431   6.645  13.000  0.00  0.00    +0.000 A 
ATOM      6  C   UNL     1      46.936   5.526  13.691  0.00  0.00    +0.000 A 
ATOM      7  C   UNL     1      45.849   4.845  13.116  0.00  0.00    +0.000 A 
BRANCH   6   8
ATOM      8  C   UNL     1      47.488   5.115  15.003  0.00  0.00    +0.000 A 
ATOM      9  C   UNL     1      48.406   5.926  15.688  0.00  0.00    +0.000 A 
ATOM     10  C   UNL     1      48.860   5.538  16.941  0.00  0.00    +0.000 A 
ATOM     11  N   UNL     1      48.469   4.413  17.564  0.00  0.00    +0.000 NA
ATOM     12  C   UNL     1      47.589   3.640  16.898  0.00  0.00    +0.000 A 
ATOM     13  F   UNL     1      47.168   2.521  17.504  0.00  0.00    +0.000 F 
ATOM     14  C   UNL     1      47.085   3.936  15.641  0.00  0.00    +0.000 A 
ENDBRANCH   6   8
ENDBRANCH   1   2
BRANCH   1  15
ATOM     15  N   UNL     1      43.935   4.798   9.959  0.00  0.00    +0.000 N 
ATOM     16  H   UNL     1      44.057   5.781   9.731  0.00  0.00    +0.000 HD
BRANCH  15  20
ATOM     17  C   UNL     1      46.410   2.342   7.797  0.00  0.00    +0.000 A 
ATOM     18  C   UNL     1      46.352   3.699   7.522  0.00  0.00    +0.000 A 
ATOM     19  N   UNL     1      45.534   4.549   8.201  0.00  0.00    +0.000 NA
ATOM     20  C   UNL     1      44.764   4.001   9.166  0.00  0.00    +0.000 A 
ATOM     21  C   UNL     1      44.835   2.623   9.424  0.00  0.00    +0.000 A 
ATOM     22  N   UNL     1      45.641   1.759   8.755  0.00  0.00    +0.000 NA
BRANCH  17  24
ATOM     23  N   UNL     1      48.465   2.097   6.543  0.00  0.00    +0.000 N 
ATOM     24  C   UNL     1      47.358   1.471   7.049  0.00  0.00    +0.000 C 
ATOM     25  O   UNL     1      47.161   0.274   6.888  0.00  0.00    +0.000 OA
ATOM     26  H   UNL     1      49.131   1.570   5.997  0.00  0.00    +0.000 HD
ATOM     27  H   UNL     1      48.589   3.095   6.677  0.00  0.00    +0.000 HD
ENDBRANCH  17  24
ENDBRANCH  15  20
ENDBRANCH   1  15
TORSDOF 5
ENDMDL
MODEL 2
REMARK VINA RESULT:    -8.736      3.080      4.041
REMARK INTER + INTRA:         -11.869
REMARK INTER:                 -11.144
REMARK INTRA:                  -0.725
REMARK UNBOUND:                -0.579
REMARK  Name = 
REMARK  5 active torsions:
REMARK  status: ('A' for Active; 'I' for Inactive)
REMARK    1  A    between atoms: C_2  and  C_4
REMARK    2  A    between atoms: C_7  and  N_8
REMARK    3  A    between atoms: N_8  and  C_9
REMARK    4  A    between atoms: C_9  and  C_10
REMARK    5  A    between atoms: C_14  and  C_15
REMARK                            x       y       z     vdW  Elec       q    Type
REMARK                         _______ _______ _______ _____ _____    ______ ____
ROOT
ATOM      1  C   UNL     1      43.564   4.645  11.147  0.00  0.00    +0.000 C 
ENDROOT
BRANCH   1   2
ATOM      2  C   UNL     1      44.811   5.004  11.930  0.00  0.00    +0.000 A 
ATOM      3  C   UNL     1      45.401   4.087  12.806  0.00  0.00    +0.000 A 
ATOM      4  C   UNL     1      46.568   4.426  13.489  0.00  0.00    +0.000 A 
ATOM      5  C   UNL     1      47.162   5.677  13.292  0.00  0.00    +0.000 A 
ATOM      6  C   UNL     1      46.608   6.620  12.409  0.00  0.00    +0.000 A 
ATOM      7  C   UNL     1      45.410   6.268  11.762  0.00  0.00    +0.000 A 
BRANCH   6   8
ATOM      8  C   UNL     1      47.288   7.904  12.117  0.00  0.00    +0.000 A 
ATOM      9  C   UNL     1      46.619   9.127  12.269  0.00  0.00    +0.000 A 
ATOM     10  C   UNL     1      47.302  10.314  12.041  0.00  0.00    +0.000 A 
ATOM     11  N   UNL     1      48.596  10.375  11.679  0.00  0.00    +0.000 NA
ATOM     12  C   UNL     1      49.229   9.195  11.535  0.00  0.00    +0.000 A 
ATOM     13  F   UNL     1      50.525   9.228  11.192  0.00  0.00    +0.000 F 
ATOM     14  C   UNL     1      48.632   7.960  11.730  0.00  0.00    +0.000 A 
ENDBRANCH   6   8
ENDBRANCH   1   2
BRANCH   1  15
ATOM     15  N   UNL     1      43.820   4.914   9.736  0.00  0.00    +0.000 N 
ATOM     16  H   UNL     1      44.166   5.858   9.592  0.00  0.00    +0.000 HD
BRANCH  15  20
ATOM     17  C   UNL     1      46.190   2.080   7.953  0.00  0.00    +0.000 A 
ATOM     18  C   UNL     1      46.321   3.418   7.616  0.00  0.00    +0.000 A 
ATOM     19  N   UNL     1      45.546   4.391   8.169  0.00  0.00    +0.000 NA
ATOM     20  C   UNL     1      44.624   3.987   9.070  0.00  0.00    +0.000 A 
ATOM     21  C   UNL     1      44.505   2.626   9.391  0.00  0.00    +0.000 A 
ATOM     22  N   UNL     1      45.266   1.640   8.848  0.00  0.00    +0.000 NA
BRANCH  17  24
ATOM     23  N   UNL     1      46.834  -0.236   7.670  0.00  0.00    +0.000 N 
ATOM     24  C   UNL     1      47.099   1.068   7.347  0.00  0.00    +0.000 C 
ATOM     25  O   UNL     1      48.030   1.377   6.615  0.00  0.00    +0.000 OA
ATOM     26  H   UNL     1      47.434  -0.968   7.318  0.00  0.00    +0.000 HD
ATOM     27  H   UNL     1      46.068  -0.458   8.296  0.00  0.00    +0.000 HD
ENDBRANCH  17  24
ENDBRANCH  15  20
ENDBRANCH   1  15
TORSDOF 5
ENDMDL
MODEL 3
REMARK VINA RESULT:    -8.463      3.121      4.057
REMARK INTER + INTRA:         -11.515
REMARK INTER:                 -10.751
REMARK INTRA:                  -0.764
REMARK UNBOUND:                -0.579
REMARK  Name = 
REMARK  5 active torsions:
REMARK  status: ('A' for Active; 'I' for Inactive)
REMARK    1  A    between atoms: C_2  and  C_4
REMARK    2  A    between atoms: C_7  and  N_8
REMARK    3  A    between atoms: N_8  and  C_9
REMARK    4  A    between atoms: C_9  and  C_10
REMARK    5  A    between atoms: C_14  and  C_15
REMARK                            x       y       z     vdW  Elec       q    Type
REMARK                         _______ _______ _______ _____ _____    ______ ____
ROOT
ATOM      1  C   UNL     1      43.663   4.130  11.209  0.00  0.00    +0.000 C 
ENDROOT
BRANCH   1   2
ATOM      2  C   UNL     1      44.871   4.633  11.974  0.00  0.00    +0.000 A 
ATOM      3  C   UNL     1      45.627   3.771  12.775  0.00  0.00    +0.000 A 
ATOM      4  C   UNL     1      46.755   4.248  13.442  0.00  0.00    +0.000 A 
ATOM      5  C   UNL     1      47.144   5.583  13.301  0.00  0.00    +0.000 A 
ATOM      6  C   UNL     1      46.420   6.477  12.494  0.00  0.00    +0.000 A 
ATOM      7  C   UNL     1      45.265   5.981  11.863  0.00  0.00    +0.000 A 
BRANCH   6   8
ATOM      8  C   UNL     1      46.886   7.863  12.258  0.00  0.00    +0.000 A 
ATOM      9  C   UNL     1      48.237   8.139  12.004  0.00  0.00    +0.000 A 
ATOM     10  C   UNL     1      48.630   9.442  11.732  0.00  0.00    +0.000 A 
ATOM     11  N   UNL     1      47.784  10.486  11.687  0.00  0.00    +0.000 NA
ATOM     12  C   UNL     1      46.488  10.211  11.933  0.00  0.00    +0.000 A 
ATOM     13  F   UNL     1      45.620  11.231  11.878  0.00  0.00    +0.000 F 
ATOM     14  C   UNL     1      46.000   8.947  12.224  0.00  0.00    +0.000 A 
ENDBRANCH   6   8
ENDBRANCH   1   2
BRANCH   1  15
ATOM     15  N   UNL     1      43.772   4.595   9.830  0.00  0.00    +0.000 N 
ATOM     16  H   UNL     1      43.903   5.601   9.784  0.00  0.00    +0.000 HD
BRANCH  15  20
ATOM     17  C   UNL     1      46.555   2.526   7.638  0.00  0.00    +0.000 A 
ATOM     18  C   UNL     1      46.497   3.909   7.573  0.00  0.00    +0.000 A 
ATOM     19  N   UNL     1      45.581   4.636   8.269  0.00  0.00    +0.000 NA
ATOM     20  C   UNL     1      44.712   3.938   9.032  0.00  0.00    +0.000 A 
ATOM     21  C   UNL     1      44.786   2.537   9.078  0.00  0.00    +0.000 A 
ATOM     22  N   UNL     1      45.690   1.794   8.389  0.00  0.00    +0.000 NA
BRANCH  17  24
ATOM     23  N   UNL     1      48.300   2.523   5.961  0.00  0.00    +0.000 N 
ATOM     24  C   UNL     1      47.610   1.789   6.888  0.00  0.00    +0.000 C 
ATOM     25  O   UNL     1      47.843   0.603   7.078  0.00  0.00    +0.000 OA
ATOM     26  H   UNL     1      49.006   2.075   5.395  0.00  0.00    +0.000 HD
ATOM     27  H   UNL     1      48.069   3.500   5.813  0.00  0.00    +0.000 HD
ENDBRANCH  17  24
ENDBRANCH  15  20
ENDBRANCH   1  15
TORSDOF 5
ENDMDL
MODEL 4
REMARK VINA RESULT:    -7.937      2.521      3.000
REMARK INTER + INTRA:         -10.836
REMARK INTER:                 -10.141
REMARK INTRA:                  -0.695
REMARK UNBOUND:                -0.579
REMARK  Name = 
REMARK  5 active torsions:
REMARK  status: ('A' for Active; 'I' for Inactive)
REMARK    1  A    between atoms: C_2  and  C_4
REMARK    2  A    between atoms: C_7  and  N_8
REMARK    3  A    between atoms: N_8  and  C_9
REMARK    4  A    between atoms: C_9  and  C_10
REMARK    5  A    between atoms: C_14  and  C_15
REMARK                            x       y       z     vdW  Elec       q    Type
REMARK                         _______ _______ _______ _____ _____    ______ ____
ROOT
ATOM      1  C   UNL     1      44.519   4.926  11.428  0.00  0.00    +0.000 C 
ENDROOT
BRANCH   1   2
ATOM      2  C   UNL     1      45.131   6.300  11.609  0.00  0.00    +0.000 A 
ATOM      3  C   UNL     1      44.358   7.458  11.476  0.00  0.00    +0.000 A 
ATOM      4  C   UNL     1      44.934   8.710  11.682  0.00  0.00    +0.000 A 
ATOM      5  C   UNL     1      46.282   8.815  12.038  0.00  0.00    +0.000 A 
ATOM      6  C   UNL     1      47.090   7.676  12.197  0.00  0.00    +0.000 A 
ATOM      7  C   UNL     1      46.494   6.427  11.945  0.00  0.00    +0.000 A 
BRANCH   6   8
ATOM      8  C   UNL     1      48.488   7.774  12.674  0.00  0.00    +0.000 A 
ATOM      9  C   UNL     1      49.485   8.356  11.878  0.00  0.00    +0.000 A 
ATOM     10  C   UNL     1      50.774   8.483  12.378  0.00  0.00    +0.000 A 
ATOM     11  N   UNL     1      51.143   8.082  13.607  0.00  0.00    +0.000 NA
ATOM     12  C   UNL     1      50.178   7.524  14.364  0.00  0.00    +0.000 A 
ATOM     13  F   UNL     1      50.515   7.131  15.601  0.00  0.00    +0.000 F 
ATOM     14  C   UNL     1      48.868   7.345  13.951  0.00  0.00    +0.000 A 
ENDBRANCH   6   8
ENDBRANCH   1   2
BRANCH   1  15
ATOM     15  N   UNL     1      44.065   4.809  10.047  0.00  0.00    +0.000 N 
ATOM     16  H   UNL     1      43.850   5.717   9.645  0.00  0.00    +0.000 HD
BRANCH  15  20
ATOM     17  C   UNL     1      46.515   2.515   7.686  0.00  0.00    +0.000 A 
ATOM     18  C   UNL     1      46.482   3.893   7.535  0.00  0.00    +0.000 A 
ATOM     19  N   UNL     1      45.673   4.692   8.283  0.00  0.00    +0.000 NA
ATOM     20  C   UNL     1      44.887   4.072   9.190  0.00  0.00    +0.000 A 
ATOM     21  C   UNL     1      44.933   2.676   9.322  0.00  0.00    +0.000 A 
ATOM     22  N   UNL     1      45.730   1.862   8.582  0.00  0.00    +0.000 NA
BRANCH  17  24
ATOM     23  N   UNL     1      48.545   2.365   6.377  0.00  0.00    +0.000 N 
ATOM     24  C   UNL     1      47.455   1.699   6.869  0.00  0.00    +0.000 C 
ATOM     25  O   UNL     1      47.264   0.512   6.640  0.00  0.00    +0.000 OA
ATOM     26  H   UNL     1      49.203   1.877   5.788  0.00  0.00    +0.000 HD
ATOM     27  H   UNL     1      48.663   3.354   6.568  0.00  0.00    +0.000 HD
ENDBRANCH  17  24
ENDBRANCH  15  20
ENDBRANCH   1  15
TORSDOF 5
ENDMDL
MODEL 5
REMARK VINA RESULT:    -7.906      1.229      1.405
REMARK INTER + INTRA:         -10.796
REMARK INTER:                 -10.098
REMARK INTRA:                  -0.697
REMARK UNBOUND:                -0.579
REMARK  Name = 
REMARK  5 active torsions:
REMARK  status: ('A' for Active; 'I' for Inactive)
REMARK    1  A    between atoms: C_2  and  C_4
REMARK    2  A    between atoms: C_7  and  N_8
REMARK    3  A    between atoms: N_8  and  C_9
REMARK    4  A    between atoms: C_9  and  C_10
REMARK    5  A    between atoms: C_14  and  C_15
REMARK                            x       y       z     vdW  Elec       q    Type
REMARK                         _______ _______ _______ _____ _____    ______ ____
ROOT
ATOM      1  C   UNL     1      44.218   3.831  11.542  0.00  0.00    +0.000 C 
ENDROOT
BRANCH   1   2
ATOM      2  C   UNL     1      44.930   5.113  11.926  0.00  0.00    +0.000 A 
ATOM      3  C   UNL     1      44.493   6.352  11.448  0.00  0.00    +0.000 A 
ATOM      4  C   UNL     1      45.141   7.521  11.843  0.00  0.00    +0.000 A 
ATOM      5  C   UNL     1      46.221   7.462  12.729  0.00  0.00    +0.000 A 
ATOM      6  C   UNL     1      46.681   6.239  13.244  0.00  0.00    +0.000 A 
ATOM      7  C   UNL     1      46.035   5.072  12.799  0.00  0.00    +0.000 A 
BRANCH   6   8
ATOM      8  C   UNL     1      47.755   6.178  14.262  0.00  0.00    +0.000 A 
ATOM      9  C   UNL     1      48.846   7.059  14.217  0.00  0.00    +0.000 A 
ATOM     10  C   UNL     1      49.805   7.013  15.218  0.00  0.00    +0.000 A 
ATOM     11  N   UNL     1      49.760   6.163  16.260  0.00  0.00    +0.000 NA
ATOM     12  C   UNL     1      48.710   5.320  16.294  0.00  0.00    +0.000 A 
ATOM     13  F   UNL     1      48.631   4.474  17.332  0.00  0.00    +0.000 F 
ATOM     14  C   UNL     1      47.707   5.284  15.338  0.00  0.00    +0.000 A 
ENDBRANCH   6   8
ENDBRANCH   1   2
BRANCH   1  15
ATOM     15  N   UNL     1      43.787   3.948  10.153  0.00  0.00    +0.000 N 
ATOM     16  H   UNL     1      43.426   4.876   9.951  0.00  0.00    +0.000 HD
BRANCH  15  20
ATOM     17  C   UNL     1      46.591   2.665   7.446  0.00  0.00    +0.000 A 
ATOM     18  C   UNL     1      46.233   4.003   7.506  0.00  0.00    +0.000 A 
ATOM     19  N   UNL     1      45.297   4.472   8.376  0.00  0.00    +0.000 NA
ATOM     20  C   UNL     1      44.717   3.559   9.186  0.00  0.00    +0.000 A 
ATOM     21  C   UNL     1      45.091   2.209   9.104  0.00  0.00    +0.000 A 
ATOM     22  N   UNL     1      46.020   1.722   8.240  0.00  0.00    +0.000 NA
BRANCH  17  24
ATOM     23  N   UNL     1      47.779   2.961   5.358  0.00  0.00    +0.000 N 
ATOM     24  C   UNL     1      47.655   2.222   6.504  0.00  0.00    +0.000 C 
ATOM     25  O   UNL     1      48.370   1.254   6.731  0.00  0.00    +0.000 OA
ATOM     26  H   UNL     1      48.460   2.692   4.663  0.00  0.00    +0.000 HD
ATOM     27  H   UNL     1      47.157   3.744   5.191  0.00  0.00    +0.000 HD
ENDBRANCH  17  24
ENDBRANCH  15  20
ENDBRANCH   1  15
TORSDOF 5
ENDMDL
MODEL 6
REMARK VINA RESULT:    -7.809      3.739      7.287
REMARK INTER + INTRA:         -10.671
REMARK INTER:                  -9.881
REMARK INTRA:                  -0.790
REMARK UNBOUND:                -0.579
REMARK  Name = 
REMARK  5 active torsions:
REMARK  status: ('A' for Active; 'I' for Inactive)
REMARK    1  A    between atoms: C_2  and  C_4
REMARK    2  A    between atoms: C_7  and  N_8
REMARK    3  A    between atoms: N_8  and  C_9
REMARK    4  A    between atoms: C_9  and  C_10
REMARK    5  A    between atoms: C_14  and  C_15
REMARK                            x       y       z     vdW  Elec       q    Type
REMARK                         _______ _______ _______ _____ _____    ______ ____
ROOT
ATOM      1  C   UNL     1      43.628   6.507  11.383  0.00  0.00    +0.000 C 
ENDROOT
BRANCH   1   2
ATOM      2  C   UNL     1      43.804   5.021  11.144  0.00  0.00    +0.000 A 
ATOM      3  C   UNL     1      43.130   4.079  11.927  0.00  0.00    +0.000 A 
ATOM      4  C   UNL     1      43.279   2.718  11.665  0.00  0.00    +0.000 A 
ATOM      5  C   UNL     1      44.091   2.288  10.611  0.00  0.00    +0.000 A 
ATOM      6  C   UNL     1      44.774   3.203   9.792  0.00  0.00    +0.000 A 
ATOM      7  C   UNL     1      44.637   4.568  10.101  0.00  0.00    +0.000 A 
BRANCH   6   8
ATOM      8  C   UNL     1      45.551   2.760   8.611  0.00  0.00    +0.000 A 
ATOM      9  C   UNL     1      45.985   3.679   7.644  0.00  0.00    +0.000 A 
ATOM     10  C   UNL     1      46.759   3.238   6.580  0.00  0.00    +0.000 A 
ATOM     11  N   UNL     1      47.136   1.959   6.407  0.00  0.00    +0.000 NA
ATOM     12  C   UNL     1      46.714   1.084   7.341  0.00  0.00    +0.000 A 
ATOM     13  F   UNL     1      47.091  -0.195   7.203  0.00  0.00    +0.000 F 
ATOM     14  C   UNL     1      45.931   1.425   8.433  0.00  0.00    +0.000 A 
ENDBRANCH   6   8
ENDBRANCH   1   2
BRANCH   1  15
ATOM     15  N   UNL     1      44.175   6.824  12.698  0.00  0.00    +0.000 N 
ATOM     16  H   UNL     1      43.855   6.167  13.404  0.00  0.00    +0.000 HD
BRANCH  15  20
ATOM     17  C   UNL     1      48.238   7.389  12.710  0.00  0.00    +0.000 A 
ATOM     18  C   UNL     1      47.686   6.250  13.275  0.00  0.00    +0.000 A 
ATOM     19  N   UNL     1      46.343   6.028  13.308  0.00  0.00    +0.000 NA
ATOM     20  C   UNL     1      45.561   6.985  12.765  0.00  0.00    +0.000 A 
ATOM     21  C   UNL     1      46.142   8.133  12.204  0.00  0.00    +0.000 A 
ATOM     22  N   UNL     1      47.478   8.374  12.164  0.00  0.00    +0.000 NA
BRANCH  17  24
ATOM     23  N   UNL     1      50.361   7.477  13.869  0.00  0.00    +0.000 N 
ATOM     24  C   UNL     1      49.717   7.553  12.663  0.00  0.00    +0.000 C 
ATOM     25  O   UNL     1      50.322   7.753  11.617  0.00  0.00    +0.000 OA
ATOM     26  H   UNL     1      51.361   7.613  13.910  0.00  0.00    +0.000 HD
ATOM     27  H   UNL     1      49.828   7.332  14.719  0.00  0.00    +0.000 HD
ENDBRANCH  17  24
ENDBRANCH  15  20
ENDBRANCH   1  15
TORSDOF 5
ENDMDL
MODEL 7
REMARK VINA RESULT:    -7.745      3.537      7.862
REMARK INTER + INTRA:         -10.588
REMARK INTER:                  -9.970
REMARK INTRA:                  -0.619
REMARK UNBOUND:                -0.579
REMARK  Name = 
REMARK  5 active torsions:
REMARK  status: ('A' for Active; 'I' for Inactive)
REMARK    1  A    between atoms: C_2  and  C_4
REMARK    2  A    between atoms: C_7  and  N_8
REMARK    3  A    between atoms: N_8  and  C_9
REMARK    4  A    between atoms: C_9  and  C_10
REMARK    5  A    between atoms: C_14  and  C_15
REMARK                            x       y       z     vdW  Elec       q    Type
REMARK                         _______ _______ _______ _____ _____    ______ ____
ROOT
ATOM      1  C   UNL     1      45.945   6.709  12.904  0.00  0.00    +0.000 C 
ENDROOT
BRANCH   1   2
ATOM      2  C   UNL     1      45.060   5.838  12.037  0.00  0.00    +0.000 A 
ATOM      3  C   UNL     1      43.670   5.840  12.193  0.00  0.00    +0.000 A 
ATOM      4  C   UNL     1      42.872   5.058  11.360  0.00  0.00    +0.000 A 
ATOM      5  C   UNL     1      43.455   4.280  10.355  0.00  0.00    +0.000 A 
ATOM      6  C   UNL     1      44.846   4.262  10.155  0.00  0.00    +0.000 A 
ATOM      7  C   UNL     1      45.630   5.029  11.034  0.00  0.00    +0.000 A 
BRANCH   6   8
ATOM      8  C   UNL     1      45.460   3.522   9.028  0.00  0.00    +0.000 A 
ATOM      9  C   UNL     1      46.005   4.202   7.929  0.00  0.00    +0.000 A 
ATOM     10  C   UNL     1      46.623   3.481   6.916  0.00  0.00    +0.000 A 
ATOM     11  N   UNL     1      46.743   2.142   6.917  0.00  0.00    +0.000 NA
ATOM     12  C   UNL     1      46.216   1.498   7.976  0.00  0.00    +0.000 A 
ATOM     13  F   UNL     1      46.337   0.163   8.010  0.00  0.00    +0.000 F 
ATOM     14  C   UNL     1      45.572   2.127   9.030  0.00  0.00    +0.000 A 
ENDBRANCH   6   8
ENDBRANCH   1   2
BRANCH   1  15
ATOM     15  N   UNL     1      47.249   6.066  13.014  0.00  0.00    +0.000 N 
ATOM     16  H   UNL     1      47.993   6.663  12.664  0.00  0.00    +0.000 HD
BRANCH  15  20
ATOM     17  C   UNL     1      48.016   4.517  16.735  0.00  0.00    +0.000 A 
ATOM     18  C   UNL     1      48.719   5.619  16.275  0.00  0.00    +0.000 A 
ATOM     19  N   UNL     1      48.511   6.157  15.042  0.00  0.00    +0.000 NA
ATOM     20  C   UNL     1      47.578   5.554  14.272  0.00  0.00    +0.000 A 
ATOM     21  C   UNL     1      46.883   4.436  14.757  0.00  0.00    +0.000 A 
ATOM     22  N   UNL     1      47.079   3.883  15.982  0.00  0.00    +0.000 NA
BRANCH  17  24
ATOM     23  N   UNL     1      47.628   4.684  19.118  0.00  0.00    +0.000 N 
ATOM     24  C   UNL     1      48.258   4.002  18.112  0.00  0.00    +0.000 C 
ATOM     25  O   UNL     1      48.979   3.039  18.335  0.00  0.00    +0.000 OA
ATOM     26  H   UNL     1      47.777   4.406  20.077  0.00  0.00    +0.000 HD
ATOM     27  H   UNL     1      47.053   5.491  18.902  0.00  0.00    +0.000 HD
ENDBRANCH  17  24
ENDBRANCH  15  20
ENDBRANCH   1  15
TORSDOF 5
ENDMDL
MODEL 8
REMARK VINA RESULT:    -7.468      3.951      5.923
REMARK INTER + INTRA:         -10.230
REMARK INTER:                  -9.508
REMARK INTRA:                  -0.722
REMARK UNBOUND:                -0.579
REMARK  Name = 
REMARK  5 active torsions:
REMARK  status: ('A' for Active; 'I' for Inactive)
REMARK    1  A    between atoms: C_2  and  C_4
REMARK    2  A    between atoms: C_7  and  N_8
REMARK    3  A    between atoms: N_8  and  C_9
REMARK    4  A    between atoms: C_9  and  C_10
REMARK    5  A    between atoms: C_14  and  C_15
REMARK                            x       y       z     vdW  Elec       q    Type
REMARK                         _______ _______ _______ _____ _____    ______ ____
ROOT
ATOM      1  C   UNL     1      44.050   4.496  11.350  0.00  0.00    +0.000 C 
ENDROOT
BRANCH   1   2
ATOM      2  C   UNL     1      44.531   5.915  11.579  0.00  0.00    +0.000 A 
ATOM      3  C   UNL     1      45.745   6.170  12.223  0.00  0.00    +0.000 A 
ATOM      4  C   UNL     1      46.185   7.482  12.390  0.00  0.00    +0.000 A 
ATOM      5  C   UNL     1      45.422   8.548  11.903  0.00  0.00    +0.000 A 
ATOM      6  C   UNL     1      44.204   8.333  11.236  0.00  0.00    +0.000 A 
ATOM      7  C   UNL     1      43.765   7.003  11.115  0.00  0.00    +0.000 A 
BRANCH   6   8
ATOM      8  C   UNL     1      43.444   9.449  10.627  0.00  0.00    +0.000 A 
ATOM      9  C   UNL     1      44.049  10.320   9.708  0.00  0.00    +0.000 A 
ATOM     10  C   UNL     1      43.293  11.320   9.113  0.00  0.00    +0.000 A 
ATOM     11  N   UNL     1      41.986  11.516   9.357  0.00  0.00    +0.000 NA
ATOM     12  C   UNL     1      41.414  10.675  10.241  0.00  0.00    +0.000 A 
ATOM     13  F   UNL     1      40.106  10.838  10.490  0.00  0.00    +0.000 F 
ATOM     14  C   UNL     1      42.085   9.654  10.894  0.00  0.00    +0.000 A 
ENDBRANCH   6   8
ENDBRANCH   1   2
BRANCH   1  15
ATOM     15  N   UNL     1      43.706   4.354   9.940  0.00  0.00    +0.000 N 
ATOM     16  H   UNL     1      43.402   5.236   9.538  0.00  0.00    +0.000 HD
BRANCH  15  20
ATOM     17  C   UNL     1      46.590   2.457   7.723  0.00  0.00    +0.000 A 
ATOM     18  C   UNL     1      46.322   3.803   7.524  0.00  0.00    +0.000 A 
ATOM     19  N   UNL     1      45.364   4.469   8.224  0.00  0.00    +0.000 NA
ATOM     20  C   UNL     1      44.669   3.748   9.130  0.00  0.00    +0.000 A 
ATOM     21  C   UNL     1      44.954   2.386   9.311  0.00  0.00    +0.000 A 
ATOM     22  N   UNL     1      45.903   1.703   8.620  0.00  0.00    +0.000 NA
BRANCH  17  24
ATOM     23  N   UNL     1      48.527   2.635   6.283  0.00  0.00    +0.000 N 
ATOM     24  C   UNL     1      47.683   1.795   6.958  0.00  0.00    +0.000 C 
ATOM     25  O   UNL     1      47.815   0.579   6.924  0.00  0.00    +0.000 OA
ATOM     26  H   UNL     1      49.269   2.248   5.718  0.00  0.00    +0.000 HD
ATOM     27  H   UNL     1      48.377   3.638   6.315  0.00  0.00    +0.000 HD
ENDBRANCH  17  24
ENDBRANCH  15  20
ENDBRANCH   1  15
TORSDOF 5
ENDMDL
MODEL 9
REMARK VINA RESULT:    -7.055      3.719      7.654
REMARK INTER + INTRA:          -9.696
REMARK INTER:                  -8.988
REMARK INTRA:                  -0.708
REMARK UNBOUND:                -0.579
REMARK  Name = 
REMARK  5 active torsions:
REMARK  status: ('A' for Active; 'I' for Inactive)
REMARK    1  A    between atoms: C_2  and  C_4
REMARK    2  A    between atoms: C_7  and  N_8
REMARK    3  A    between atoms: N_8  and  C_9
REMARK    4  A    between atoms: C_9  and  C_10
REMARK    5  A    between atoms: C_14  and  C_15
REMARK                            x       y       z     vdW  Elec       q    Type
REMARK                         _______ _______ _______ _____ _____    ______ ____
ROOT
ATOM      1  C   UNL     1      48.510   6.513  15.561  0.00  0.00    +0.000 C 
ENDROOT
BRANCH   1   2
ATOM      2  C   UNL     1      48.042   6.686  14.131  0.00  0.00    +0.000 A 
ATOM      3  C   UNL     1      48.670   7.591  13.270  0.00  0.00    +0.000 A 
ATOM      4  C   UNL     1      48.246   7.708  11.948  0.00  0.00    +0.000 A 
ATOM      5  C   UNL     1      47.201   6.910  11.471  0.00  0.00    +0.000 A 
ATOM      6  C   UNL     1      46.553   5.978  12.299  0.00  0.00    +0.000 A 
ATOM      7  C   UNL     1      46.975   5.908  13.639  0.00  0.00    +0.000 A 
BRANCH   6   8
ATOM      8  C   UNL     1      45.518   5.058  11.773  0.00  0.00    +0.000 A 
ATOM      9  C   UNL     1      45.098   5.129  10.437  0.00  0.00    +0.000 A 
ATOM     10  C   UNL     1      44.167   4.215   9.963  0.00  0.00    +0.000 A 
ATOM     11  N   UNL     1      43.628   3.237  10.712  0.00  0.00    +0.000 NA
ATOM     12  C   UNL     1      44.037   3.178  11.994  0.00  0.00    +0.000 A 
ATOM     13  F   UNL     1      43.529   2.200  12.759  0.00  0.00    +0.000 F 
ATOM     14  C   UNL     1      44.954   4.048  12.562  0.00  0.00    +0.000 A 
ENDBRANCH   6   8
ENDBRANCH   1   2
BRANCH   1  15
ATOM     15  N   UNL     1      47.927   5.284  16.086  0.00  0.00    +0.000 N 
ATOM     16  H   UNL     1      47.258   4.880  15.437  0.00  0.00    +0.000 HD
BRANCH  15  20
ATOM     17  C   UNL     1      50.735   2.559  17.321  0.00  0.00    +0.000 A 
ATOM     18  C   UNL     1      49.518   2.132  16.812  0.00  0.00    +0.000 A 
ATOM     19  N   UNL     1      48.551   2.999  16.406  0.00  0.00    +0.000 NA
ATOM     20  C   UNL     1      48.830   4.315  16.530  0.00  0.00    +0.000 A 
ATOM     21  C   UNL     1      50.067   4.724  17.053  0.00  0.00    +0.000 A 
ATOM     22  N   UNL     1      51.043   3.875  17.467  0.00  0.00    +0.000 NA
BRANCH  17  24
ATOM     23  N   UNL     1      51.299   0.338  18.101  0.00  0.00    +0.000 N 
ATOM     24  C   UNL     1      51.771   1.561  17.707  0.00  0.00    +0.000 C 
ATOM     25  O   UNL     1      52.968   1.817  17.683  0.00  0.00    +0.000 OA
ATOM     26  H   UNL     1      51.948  -0.372  18.407  0.00  0.00    +0.000 HD
ATOM     27  H   UNL     1      50.300   0.166  18.129  0.00  0.00    +0.000 HD
ENDBRANCH  17  24
ENDBRANCH  15  20
ENDBRANCH   1  15
TORSDOF 5
ENDMDL
