MODEL 1
REMARK VINA RESULT:    -8.404      0.000      0.000
REMARK INTER + INTRA:         -11.948
REMARK INTER:                 -11.106
REMARK INTRA:                  -0.842
REMARK UNBOUND:                -0.842
REMARK  Name = 
REMARK  6 active torsions:
REMARK  status: ('A' for Active; 'I' for Inactive)
REMARK    1  A    between atoms: N_1  and  C_2
REMARK    2  A    between atoms: C_2  and  C_3
REMARK    3  A    between atoms: C_3  and  C_4
REMARK    4  A    between atoms: C_7  and  C_8
REMARK    5  A    between atoms: C_8  and  C_9
REMARK    6  A    between atoms: C_16  and  C_17
REMARK                            x       y       z     vdW  Elec       q    Type
REMARK                         _______ _______ _______ _____ _____    ______ ____
ROOT
ATOM      1  C   UNL     1      44.006   6.110  11.514  0.00  0.00    +0.000 A 
ATOM      2  N   UNL     1      44.015   7.343  10.979  0.00  0.00    +0.000 NA
ATOM      3  O   UNL     1      45.160   7.948  11.461  0.00  0.00    +0.000 OA
ATOM      4  C   UNL     1      45.795   7.098  12.307  0.00  0.00    +0.000 A 
ATOM      5  C   UNL     1      47.063   7.276  12.838  0.00  0.00    +0.000 A 
ATOM      6  C   UNL     1      47.522   6.260  13.677  0.00  0.00    +0.000 A 
ATOM      7  F   UNL     1      48.784   6.363  14.123  0.00  0.00    +0.000 F 
ATOM      8  C   UNL     1      46.721   5.166  14.034  0.00  0.00    +0.000 A 
ATOM      9  C   UNL     1      45.444   5.014  13.452  0.00  0.00    +0.000 A 
ATOM     10  C   UNL     1      45.009   5.979  12.521  0.00  0.00    +0.000 A 
ENDROOT
BRANCH   8  11
ATOM     11  C   UNL     1      47.181   4.137  15.003  0.00  0.00    +0.000 C 
ATOM     12  N   UNL     1      47.138   4.437  16.334  0.00  0.00    +0.000 N 
ATOM     13  O   UNL     1      47.586   3.038  14.627  0.00  0.00    +0.000 OA
ATOM     14  H   UNL     1      46.810   5.326  16.689  0.00  0.00    +0.000 HD
ATOM     15  H   UNL     1      47.418   3.727  16.998  0.00  0.00    +0.000 HD
ENDBRANCH   8  11
BRANCH   1  16
ATOM     16  C   UNL     1      43.159   5.056  10.881  0.00  0.00    +0.000 C 
BRANCH  16  20
ATOM     17  C   UNL     1      45.813   2.640   8.423  0.00  0.00    +0.000 A 
ATOM     18  C   UNL     1      45.794   4.035   8.302  0.00  0.00    +0.000 A 
ATOM     19  C   UNL     1      44.960   4.812   9.113  0.00  0.00    +0.000 A 
ATOM     20  C   UNL     1      44.125   4.212  10.065  0.00  0.00    +0.000 A 
ATOM     21  C   UNL     1      44.165   2.813  10.201  0.00  0.00    +0.000 A 
ATOM     22  C   UNL     1      44.999   2.036   9.388  0.00  0.00    +0.000 A 
BRANCH  17  23
ATOM     23  C   UNL     1      46.690   1.800   7.522  0.00  0.00    +0.000 C 
BRANCH  23  24
ATOM     24  C   UNL     1      47.806   2.612   6.855  0.00  0.00    +0.000 C 
BRANCH  24  25
ATOM     25  N   UNL     1      48.436   1.849   5.777  0.00  0.00    +0.000 NA
ATOM     26  H   UNL     1      47.796   1.121   5.459  0.00  0.00    +0.000 HD
ATOM     27  H   UNL     1      49.260   1.365   6.133  0.00  0.00    +0.000 HD
ENDBRANCH  24  25
ENDBRANCH  23  24
ENDBRANCH  17  23
ENDBRANCH  16  20
ENDBRANCH   1  16
TORSDOF 6
ENDMDL
MODEL 2
REMARK VINA RESULT:    -7.954      1.630      2.098
REMARK INTER + INTRA:         -11.353
REMARK INTER:                 -11.038
REMARK INTRA:                  -0.315
REMARK UNBOUND:                -0.842
REMARK  Name = 
REMARK  6 active torsions:
REMARK  status: ('A' for Active; 'I' for Inactive)
REMARK    1  A    between atoms: N_1  and  C_2
REMARK    2  A    between atoms: C_2  and  C_3
REMARK    3  A    between atoms: C_3  and  C_4
REMARK    4  A    between atoms: C_7  and  C_8
REMARK    5  A    between atoms: C_8  and  C_9
REMARK    6  A    between atoms: C_16  and  C_17
REMARK                            x       y       z     vdW  Elec       q    Type
REMARK                         _______ _______ _______ _____ _____    ______ ____
ROOT
ATOM      1  C   UNL     1      43.356   4.734  11.752  0.00  0.00    +0.000 A 
ATOM      2  N   UNL     1      42.339   5.492  11.306  0.00  0.00    +0.000 NA
ATOM      3  O   UNL     1      42.794   6.795  11.369  0.00  0.00    +0.000 OA
ATOM      4  C   UNL     1      44.047   6.810  11.888  0.00  0.00    +0.000 A 
ATOM      5  C   UNL     1      44.896   7.905  11.931  0.00  0.00    +0.000 A 
ATOM      6  C   UNL     1      46.150   7.682  12.500  0.00  0.00    +0.000 A 
ATOM      7  F   UNL     1      47.024   8.701  12.463  0.00  0.00    +0.000 F 
ATOM      8  C   UNL     1      46.505   6.453  13.073  0.00  0.00    +0.000 A 
ATOM      9  C   UNL     1      45.616   5.359  12.986  0.00  0.00    +0.000 A 
ATOM     10  C   UNL     1      44.387   5.540  12.320  0.00  0.00    +0.000 A 
ENDROOT
BRANCH   8  11
ATOM     11  C   UNL     1      47.806   6.252  13.762  0.00  0.00    +0.000 C 
ATOM     12  N   UNL     1      47.798   6.021  15.107  0.00  0.00    +0.000 N 
ATOM     13  O   UNL     1      48.870   6.282  13.144  0.00  0.00    +0.000 OA
ATOM     14  H   UNL     1      46.947   5.985  15.656  0.00  0.00    +0.000 HD
ATOM     15  H   UNL     1      48.679   5.851  15.573  0.00  0.00    +0.000 HD
ENDBRANCH   8  11
BRANCH   1  16
ATOM     16  C   UNL     1      43.368   3.278  11.421  0.00  0.00    +0.000 C 
BRANCH  16  20
ATOM     17  C   UNL     1      45.783   2.979   7.815  0.00  0.00    +0.000 A 
ATOM     18  C   UNL     1      45.406   1.832   8.525  0.00  0.00    +0.000 A 
ATOM     19  C   UNL     1      44.606   1.928   9.667  0.00  0.00    +0.000 A 
ATOM     20  C   UNL     1      44.163   3.175  10.129  0.00  0.00    +0.000 A 
ATOM     21  C   UNL     1      44.523   4.323   9.401  0.00  0.00    +0.000 A 
ATOM     22  C   UNL     1      45.325   4.225   8.257  0.00  0.00    +0.000 A 
BRANCH  17  23
ATOM     23  C   UNL     1      46.676   2.875   6.600  0.00  0.00    +0.000 C 
BRANCH  23  24
ATOM     24  C   UNL     1      47.746   1.786   6.741  0.00  0.00    +0.000 C 
BRANCH  24  25
ATOM     25  N   UNL     1      48.641   1.777   5.583  0.00  0.00    +0.000 NA
ATOM     26  H   UNL     1      48.699   0.830   5.208  0.00  0.00    +0.000 HD
ATOM     27  H   UNL     1      49.585   2.024   5.876  0.00  0.00    +0.000 HD
ENDBRANCH  24  25
ENDBRANCH  23  24
ENDBRANCH  17  23
ENDBRANCH  16  20
ENDBRANCH   1  16
TORSDOF 6
ENDMDL
MODEL 3
REMARK VINA RESULT:    -7.918      3.004      6.898
REMARK INTER + INTRA:         -11.306
REMARK INTER:                 -11.354
REMARK INTRA:                   0.049
REMARK UNBOUND:                -0.842
REMARK  Name = 
REMARK  6 active torsions:
REMARK  status: ('A' for Active; 'I' for Inactive)
REMARK    1  A    between atoms: N_1  and  C_2
REMARK    2  A    between atoms: C_2  and  C_3
REMARK    3  A    between atoms: C_3  and  C_4
REMARK    4  A    between atoms: C_7  and  C_8
REMARK    5  A    between atoms: C_8  and  C_9
REMARK    6  A    between atoms: C_16  and  C_17
REMARK                            x       y       z     vdW  Elec       q    Type
REMARK                         _______ _______ _______ _____ _____    ______ ____
ROOT
ATOM      1  C   UNL     1      44.589   4.768  10.154  0.00  0.00    +0.000 A 
ATOM      2  N   UNL     1      43.558   4.232  10.827  0.00  0.00    +0.000 NA
ATOM      3  O   UNL     1      43.528   2.900  10.460  0.00  0.00    +0.000 OA
ATOM      4  C   UNL     1      44.502   2.664   9.546  0.00  0.00    +0.000 A 
ATOM      5  C   UNL     1      44.901   1.418   9.087  0.00  0.00    +0.000 A 
ATOM      6  C   UNL     1      45.938   1.415   8.154  0.00  0.00    +0.000 A 
ATOM      7  F   UNL     1      46.407   0.217   7.770  0.00  0.00    +0.000 F 
ATOM      8  C   UNL     1      46.489   2.599   7.644  0.00  0.00    +0.000 A 
ATOM      9  C   UNL     1      46.068   3.845   8.157  0.00  0.00    +0.000 A 
ATOM     10  C   UNL     1      45.094   3.859   9.177  0.00  0.00    +0.000 A 
ENDROOT
BRANCH   8  11
ATOM     11  C   UNL     1      47.528   2.589   6.581  0.00  0.00    +0.000 C 
ATOM     12  N   UNL     1      47.272   3.259   5.420  0.00  0.00    +0.000 N 
ATOM     13  O   UNL     1      48.597   2.001   6.736  0.00  0.00    +0.000 OA
ATOM     14  H   UNL     1      46.408   3.758   5.250  0.00  0.00    +0.000 HD
ATOM     15  H   UNL     1      47.989   3.283   4.708  0.00  0.00    +0.000 HD
ENDBRANCH   8  11
BRANCH   1  16
ATOM     16  C   UNL     1      45.167   6.061  10.630  0.00  0.00    +0.000 C 
BRANCH  16  20
ATOM     17  C   UNL     1      47.138   5.147  14.398  0.00  0.00    +0.000 A 
ATOM     18  C   UNL     1      46.122   4.322  13.901  0.00  0.00    +0.000 A 
ATOM     19  C   UNL     1      45.510   4.601  12.675  0.00  0.00    +0.000 A 
ATOM     20  C   UNL     1      45.898   5.714  11.918  0.00  0.00    +0.000 A 
ATOM     21  C   UNL     1      46.935   6.528  12.408  0.00  0.00    +0.000 A 
ATOM     22  C   UNL     1      47.547   6.247  13.635  0.00  0.00    +0.000 A 
BRANCH  17  23
ATOM     23  C   UNL     1      47.775   4.863  15.740  0.00  0.00    +0.000 C 
BRANCH  23  24
ATOM     24  C   UNL     1      47.552   3.420  16.208  0.00  0.00    +0.000 C 
BRANCH  24  25
ATOM     25  N   UNL     1      46.718   3.383  17.411  0.00  0.00    +0.000 NA
ATOM     26  H   UNL     1      46.561   4.334  17.742  0.00  0.00    +0.000 HD
ATOM     27  H   UNL     1      47.215   2.901  18.159  0.00  0.00    +0.000 HD
ENDBRANCH  24  25
ENDBRANCH  23  24
ENDBRANCH  17  23
ENDBRANCH  16  20
ENDBRANCH   1  16
TORSDOF 6
ENDMDL
MODEL 4
REMARK VINA RESULT:    -7.821      1.753      3.300
REMARK INTER + INTRA:         -11.177
REMARK INTER:                 -10.418
REMARK INTRA:                  -0.759
REMARK UNBOUND:                -0.842
REMARK  Name = 
REMARK  6 active torsions:
REMARK  status: ('A' for Active; 'I' for Inactive)
REMARK    1  A    between atoms: N_1  and  C_2
REMARK    2  A    between atoms: C_2  and  C_3
REMARK    3  A    between atoms: C_3  and  C_4
REMARK    4  A    between atoms: C_7  and  C_8
REMARK    5  A    between atoms: C_8  and  C_9
REMARK    6  A    between atoms: C_16  and  C_17
REMARK                            x       y       z     vdW  Elec       q    Type
REMARK                         _______ _______ _______ _____ _____    ______ ____
ROOT
ATOM      1  C   UNL     1      45.656   4.318  12.492  0.00  0.00    +0.000 A 
ATOM      2  N   UNL     1      45.972   3.273  13.274  0.00  0.00    +0.000 NA
ATOM      3  O   UNL     1      46.881   3.759  14.194  0.00  0.00    +0.000 OA
ATOM      4  C   UNL     1      47.134   5.065  13.928  0.00  0.00    +0.000 A 
ATOM      5  C   UNL     1      47.845   5.937  14.739  0.00  0.00    +0.000 A 
ATOM      6  C   UNL     1      47.966   7.245  14.269  0.00  0.00    +0.000 A 
ATOM      7  F   UNL     1      48.565   8.129  15.083  0.00  0.00    +0.000 F 
ATOM      8  C   UNL     1      47.477   7.639  13.016  0.00  0.00    +0.000 A 
ATOM      9  C   UNL     1      46.740   6.723  12.234  0.00  0.00    +0.000 A 
ATOM     10  C   UNL     1      46.518   5.427  12.743  0.00  0.00    +0.000 A 
ENDROOT
BRANCH   8  11
ATOM     11  C   UNL     1      47.694   9.009  12.482  0.00  0.00    +0.000 C 
ATOM     12  N   UNL     1      46.796   9.982  12.813  0.00  0.00    +0.000 N 
ATOM     13  O   UNL     1      48.659   9.271  11.765  0.00  0.00    +0.000 OA
ATOM     14  H   UNL     1      45.990   9.812  13.401  0.00  0.00    +0.000 HD
ATOM     15  H   UNL     1      46.959  10.922  12.478  0.00  0.00    +0.000 HD
ENDBRANCH   8  11
BRANCH   1  16
ATOM     16  C   UNL     1      44.403   4.260  11.682  0.00  0.00    +0.000 C 
BRANCH  16  20
ATOM     17  C   UNL     1      45.844   3.096   7.746  0.00  0.00    +0.000 A 
ATOM     18  C   UNL     1      45.327   2.143   8.632  0.00  0.00    +0.000 A 
ATOM     19  C   UNL     1      44.837   2.523   9.886  0.00  0.00    +0.000 A 
ATOM     20  C   UNL     1      44.855   3.866  10.285  0.00  0.00    +0.000 A 
ATOM     21  C   UNL     1      45.352   4.824   9.383  0.00  0.00    +0.000 A 
ATOM     22  C   UNL     1      45.842   4.442   8.128  0.00  0.00    +0.000 A 
BRANCH  17  23
ATOM     23  C   UNL     1      46.404   2.678   6.405  0.00  0.00    +0.000 C 
BRANCH  23  24
ATOM     24  C   UNL     1      47.502   1.616   6.526  0.00  0.00    +0.000 C 
BRANCH  24  25
ATOM     25  N   UNL     1      48.557   1.838   5.535  0.00  0.00    +0.000 NA
ATOM     26  H   UNL     1      49.077   2.681   5.779  0.00  0.00    +0.000 HD
ATOM     27  H   UNL     1      48.139   2.018   4.623  0.00  0.00    +0.000 HD
ENDBRANCH  24  25
ENDBRANCH  23  24
ENDBRANCH  17  23
ENDBRANCH  16  20
ENDBRANCH   1  16
TORSDOF 6
ENDMDL
MODEL 5
REMARK VINA RESULT:    -6.754      3.817      7.372
REMARK INTER + INTRA:          -9.767
REMARK INTER:                  -9.388
REMARK INTRA:                  -0.380
REMARK UNBOUND:                -0.842
REMARK  Name = 
REMARK  6 active torsions:
REMARK  status: ('A' for Active; 'I' for Inactive)
REMARK    1  A    between atoms: N_1  and  C_2
REMARK    2  A    between atoms: C_2  and  C_3
REMARK    3  A    between atoms: C_3  and  C_4
REMARK    4  A    between atoms: C_7  and  C_8
REMARK    5  A    between atoms: C_8  and  C_9
REMARK    6  A    between atoms: C_16  and  C_17
REMARK                            x       y       z     vdW  Elec       q    Type
REMARK                         _______ _______ _______ _____ _____    ______ ____
ROOT
ATOM      1  C   UNL     1      47.175   4.663  14.813  0.00  0.00    +0.000 A 
ATOM      2  N   UNL     1      47.991   5.730  14.780  0.00  0.00    +0.000 NA
ATOM      3  O   UNL     1      47.750   6.344  13.566  0.00  0.00    +0.000 OA
ATOM      4  C   UNL     1      46.834   5.622  12.872  0.00  0.00    +0.000 A 
ATOM      5  C   UNL     1      46.205   6.018  11.701  0.00  0.00    +0.000 A 
ATOM      6  C   UNL     1      45.283   5.116  11.169  0.00  0.00    +0.000 A 
ATOM      7  F   UNL     1      44.590   5.519  10.092  0.00  0.00    +0.000 F 
ATOM      8  C   UNL     1      45.065   3.850  11.730  0.00  0.00    +0.000 A 
ATOM      9  C   UNL     1      45.712   3.498  12.935  0.00  0.00    +0.000 A 
ATOM     10  C   UNL     1      46.566   4.441  13.542  0.00  0.00    +0.000 A 
ENDROOT
BRANCH   8  11
ATOM     11  C   UNL     1      44.153   2.858  11.104  0.00  0.00    +0.000 C 
ATOM     12  N   UNL     1      44.574   2.213   9.977  0.00  0.00    +0.000 N 
ATOM     13  O   UNL     1      43.047   2.612  11.584  0.00  0.00    +0.000 OA
ATOM     14  H   UNL     1      45.475   2.382   9.549  0.00  0.00    +0.000 HD
ATOM     15  H   UNL     1      43.969   1.513   9.567  0.00  0.00    +0.000 HD
ENDBRANCH   8  11
BRANCH   1  16
ATOM     16  C   UNL     1      46.867   4.033  16.132  0.00  0.00    +0.000 C 
BRANCH  16  20
ATOM     17  C   UNL     1      50.776   2.713  17.510  0.00  0.00    +0.000 A 
ATOM     18  C   UNL     1      50.268   3.964  17.881  0.00  0.00    +0.000 A 
ATOM     19  C   UNL     1      48.999   4.374  17.461  0.00  0.00    +0.000 A 
ATOM     20  C   UNL     1      48.207   3.544  16.657  0.00  0.00    +0.000 A 
ATOM     21  C   UNL     1      48.710   2.278  16.305  0.00  0.00    +0.000 A 
ATOM     22  C   UNL     1      49.980   1.868  16.727  0.00  0.00    +0.000 A 
BRANCH  17  23
ATOM     23  C   UNL     1      52.162   2.286  17.937  0.00  0.00    +0.000 C 
BRANCH  23  24
ATOM     24  C   UNL     1      52.545   0.900  17.406  0.00  0.00    +0.000 C 
BRANCH  24  25
ATOM     25  N   UNL     1      52.359  -0.125  18.435  0.00  0.00    +0.000 NA
ATOM     26  H   UNL     1      52.202  -1.028  17.988  0.00  0.00    +0.000 HD
ATOM     27  H   UNL     1      51.516   0.076  18.973  0.00  0.00    +0.000 HD
ENDBRANCH  24  25
ENDBRANCH  23  24
ENDBRANCH  17  23
ENDBRANCH  16  20
ENDBRANCH   1  16
TORSDOF 6
ENDMDL
MODEL 6
REMARK VINA RESULT:    -6.247      3.812      7.349
REMARK INTER + INTRA:          -9.098
REMARK INTER:                  -8.270
REMARK INTRA:                  -0.827
REMARK UNBOUND:                -0.842
REMARK  Name = 
REMARK  6 active torsions:
REMARK  status: ('A' for Active; 'I' for Inactive)
REMARK    1  A    between atoms: N_1  and  C_2
REMARK    2  A    between atoms: C_2  and  C_3
REMARK    3  A    between atoms: C_3  and  C_4
REMARK    4  A    between atoms: C_7  and  C_8
REMARK    5  A    between atoms: C_8  and  C_9
REMARK    6  A    between atoms: C_16  and  C_17
REMARK                            x       y       z     vdW  Elec       q    Type
REMARK                         _______ _______ _______ _____ _____    ______ ____
ROOT
ATOM      1  C   UNL     1      48.742   7.215  14.679  0.00  0.00    +0.000 A 
ATOM      2  N   UNL     1      49.513   8.062  13.976  0.00  0.00    +0.000 NA
ATOM      3  O   UNL     1      49.040   8.004  12.679  0.00  0.00    +0.000 OA
ATOM      4  C   UNL     1      48.031   7.100  12.609  0.00  0.00    +0.000 A 
ATOM      5  C   UNL     1      47.190   6.903  11.524  0.00  0.00    +0.000 A 
ATOM      6  C   UNL     1      46.209   5.925  11.683  0.00  0.00    +0.000 A 
ATOM      7  F   UNL     1      45.322   5.786  10.684  0.00  0.00    +0.000 F 
ATOM      8  C   UNL     1      46.127   5.126  12.832  0.00  0.00    +0.000 A 
ATOM      9  C   UNL     1      46.990   5.377  13.921  0.00  0.00    +0.000 A 
ATOM     10  C   UNL     1      47.918   6.433  13.816  0.00  0.00    +0.000 A 
ENDROOT
BRANCH   8  11
ATOM     11  C   UNL     1      45.139   4.022  12.954  0.00  0.00    +0.000 C 
ATOM     12  N   UNL     1      45.525   2.765  12.589  0.00  0.00    +0.000 N 
ATOM     13  O   UNL     1      44.002   4.224  13.380  0.00  0.00    +0.000 OA
ATOM     14  H   UNL     1      46.450   2.553  12.236  0.00  0.00    +0.000 HD
ATOM     15  H   UNL     1      44.867   2.006  12.702  0.00  0.00    +0.000 HD
ENDBRANCH   8  11
BRANCH   1  16
ATOM     16  C   UNL     1      48.694   7.350  16.166  0.00  0.00    +0.000 C 
BRANCH  16  20
ATOM     17  C   UNL     1      51.056   3.958  17.520  0.00  0.00    +0.000 A 
ATOM     18  C   UNL     1      51.666   5.177  17.204  0.00  0.00    +0.000 A 
ATOM     19  C   UNL     1      50.902   6.275  16.796  0.00  0.00    +0.000 A 
ATOM     20  C   UNL     1      49.508   6.180  16.694  0.00  0.00    +0.000 A 
ATOM     21  C   UNL     1      48.896   4.961  17.036  0.00  0.00    +0.000 A 
ATOM     22  C   UNL     1      49.661   3.862  17.443  0.00  0.00    +0.000 A 
BRANCH  17  23
ATOM     23  C   UNL     1      51.887   2.762  17.927  0.00  0.00    +0.000 C 
BRANCH  23  24
ATOM     24  C   UNL     1      51.310   1.437  17.417  0.00  0.00    +0.000 C 
BRANCH  24  25
ATOM     25  N   UNL     1      51.856   0.304  18.167  0.00  0.00    +0.000 NA
ATOM     26  H   UNL     1      51.966  -0.493  17.542  0.00  0.00    +0.000 HD
ATOM     27  H   UNL     1      51.190   0.013  18.883  0.00  0.00    +0.000 HD
ENDBRANCH  24  25
ENDBRANCH  23  24
ENDBRANCH  17  23
ENDBRANCH  16  20
ENDBRANCH   1  16
TORSDOF 6
ENDMDL
MODEL 7
REMARK VINA RESULT:    -5.865      3.850      5.513
REMARK INTER + INTRA:          -8.593
REMARK INTER:                  -7.772
REMARK INTRA:                  -0.821
REMARK UNBOUND:                -0.842
REMARK  Name = 
REMARK  6 active torsions:
REMARK  status: ('A' for Active; 'I' for Inactive)
REMARK    1  A    between atoms: N_1  and  C_2
REMARK    2  A    between atoms: C_2  and  C_3
REMARK    3  A    between atoms: C_3  and  C_4
REMARK    4  A    between atoms: C_7  and  C_8
REMARK    5  A    between atoms: C_8  and  C_9
REMARK    6  A    between atoms: C_16  and  C_17
REMARK                            x       y       z     vdW  Elec       q    Type
REMARK                         _______ _______ _______ _____ _____    ______ ____
ROOT
ATOM      1  C   UNL     1      48.561   7.366  14.971  0.00  0.00    +0.000 A 
ATOM      2  N   UNL     1      48.573   8.688  15.210  0.00  0.00    +0.000 NA
ATOM      3  O   UNL     1      48.926   8.821  16.540  0.00  0.00    +0.000 OA
ATOM      4  C   UNL     1      49.075   7.590  17.090  0.00  0.00    +0.000 A 
ATOM      5  C   UNL     1      49.602   7.318  18.343  0.00  0.00    +0.000 A 
ATOM      6  C   UNL     1      49.675   5.970  18.695  0.00  0.00    +0.000 A 
ATOM      7  F   UNL     1      50.272   5.678  19.862  0.00  0.00    +0.000 F 
ATOM      8  C   UNL     1      49.169   4.954  17.873  0.00  0.00    +0.000 A 
ATOM      9  C   UNL     1      48.661   5.275  16.596  0.00  0.00    +0.000 A 
ATOM     10  C   UNL     1      48.678   6.622  16.183  0.00  0.00    +0.000 A 
ENDROOT
BRANCH   8  11
ATOM     11  C   UNL     1      49.163   3.529  18.297  0.00  0.00    +0.000 C 
ATOM     12  N   UNL     1      48.380   3.172  19.357  0.00  0.00    +0.000 N 
ATOM     13  O   UNL     1      49.837   2.684  17.710  0.00  0.00    +0.000 OA
ATOM     14  H   UNL     1      47.808   3.833  19.867  0.00  0.00    +0.000 HD
ATOM     15  H   UNL     1      48.348   2.198  19.626  0.00  0.00    +0.000 HD
ENDBRANCH   8  11
BRANCH   1  16
ATOM     16  C   UNL     1      48.642   6.889  13.558  0.00  0.00    +0.000 C 
BRANCH  16  20
ATOM     17  C   UNL     1      44.751   5.047  12.936  0.00  0.00    +0.000 A 
ATOM     18  C   UNL     1      44.916   6.433  12.821  0.00  0.00    +0.000 A 
ATOM     19  C   UNL     1      46.174   7.020  12.992  0.00  0.00    +0.000 A 
ATOM     20  C   UNL     1      47.297   6.235  13.285  0.00  0.00    +0.000 A 
ATOM     21  C   UNL     1      47.132   4.841  13.376  0.00  0.00    +0.000 A 
ATOM     22  C   UNL     1      45.873   4.255  13.204  0.00  0.00    +0.000 A 
BRANCH  17  23
ATOM     23  C   UNL     1      43.385   4.418  12.783  0.00  0.00    +0.000 C 
BRANCH  23  24
ATOM     24  C   UNL     1      43.223   3.664  11.459  0.00  0.00    +0.000 C 
BRANCH  24  25
ATOM     25  N   UNL     1      43.038   2.230  11.692  0.00  0.00    +0.000 NA
ATOM     26  H   UNL     1      43.950   1.779  11.763  0.00  0.00    +0.000 HD
ATOM     27  H   UNL     1      42.575   1.808  10.887  0.00  0.00    +0.000 HD
ENDBRANCH  24  25
ENDBRANCH  23  24
ENDBRANCH  17  23
ENDBRANCH  16  20
ENDBRANCH   1  16
TORSDOF 6
ENDMDL
MODEL 8
REMARK VINA RESULT:    -5.834      3.722      7.287
REMARK INTER + INTRA:          -8.552
REMARK INTER:                  -7.675
REMARK INTRA:                  -0.877
REMARK UNBOUND:                -0.842
REMARK  Name = 
REMARK  6 active torsions:
REMARK  status: ('A' for Active; 'I' for Inactive)
REMARK    1  A    between atoms: N_1  and  C_2
REMARK    2  A    between atoms: C_2  and  C_3
REMARK    3  A    between atoms: C_3  and  C_4
REMARK    4  A    between atoms: C_7  and  C_8
REMARK    5  A    between atoms: C_8  and  C_9
REMARK    6  A    between atoms: C_16  and  C_17
REMARK                            x       y       z     vdW  Elec       q    Type
REMARK                         _______ _______ _______ _____ _____    ______ ____
ROOT
ATOM      1  C   UNL     1      48.186   8.461  12.819  0.00  0.00    +0.000 A 
ATOM      2  N   UNL     1      47.561   9.551  12.345  0.00  0.00    +0.000 NA
ATOM      3  O   UNL     1      46.255   9.160  12.116  0.00  0.00    +0.000 OA
ATOM      4  C   UNL     1      46.124   7.841  12.409  0.00  0.00    +0.000 A 
ATOM      5  C   UNL     1      44.930   7.140  12.482  0.00  0.00    +0.000 A 
ATOM      6  C   UNL     1      45.036   5.790  12.816  0.00  0.00    +0.000 A 
ATOM      7  F   UNL     1      43.888   5.115  12.990  0.00  0.00    +0.000 F 
ATOM      8  C   UNL     1      46.274   5.154  12.984  0.00  0.00    +0.000 A 
ATOM      9  C   UNL     1      47.463   5.913  12.921  0.00  0.00    +0.000 A 
ATOM     10  C   UNL     1      47.367   7.300  12.689  0.00  0.00    +0.000 A 
ENDROOT
BRANCH   8  11
ATOM     11  C   UNL     1      46.381   3.695  13.245  0.00  0.00    +0.000 C 
ATOM     12  N   UNL     1      45.572   2.851  12.541  0.00  0.00    +0.000 N 
ATOM     13  O   UNL     1      47.180   3.249  14.067  0.00  0.00    +0.000 OA
ATOM     14  H   UNL     1      44.902   3.173  11.854  0.00  0.00    +0.000 HD
ATOM     15  H   UNL     1      45.666   1.855  12.692  0.00  0.00    +0.000 HD
ENDBRANCH   8  11
BRANCH   1  16
ATOM     16  C   UNL     1      49.470   8.633  13.563  0.00  0.00    +0.000 C 
BRANCH  16  20
ATOM     17  C   UNL     1      48.755   7.322  17.649  0.00  0.00    +0.000 A 
ATOM     18  C   UNL     1      48.153   8.484  17.152  0.00  0.00    +0.000 A 
ATOM     19  C   UNL     1      48.361   8.888  15.829  0.00  0.00    +0.000 A 
ATOM     20  C   UNL     1      49.178   8.140  14.972  0.00  0.00    +0.000 A 
ATOM     21  C   UNL     1      49.762   6.960  15.467  0.00  0.00    +0.000 A 
ATOM     22  C   UNL     1      49.553   6.557  16.791  0.00  0.00    +0.000 A 
BRANCH  17  23
ATOM     23  C   UNL     1      48.556   6.906  19.089  0.00  0.00    +0.000 C 
BRANCH  23  24
ATOM     24  C   UNL     1      47.918   5.519  19.222  0.00  0.00    +0.000 C 
BRANCH  24  25
ATOM     25  N   UNL     1      46.568   5.506  18.657  0.00  0.00    +0.000 NA
ATOM     26  H   UNL     1      46.589   5.915  17.723  0.00  0.00    +0.000 HD
ATOM     27  H   UNL     1      45.956   6.103  19.213  0.00  0.00    +0.000 HD
ENDBRANCH  24  25
ENDBRANCH  23  24
ENDBRANCH  17  23
ENDBRANCH  16  20
ENDBRANCH   1  16
TORSDOF 6
ENDMDL
