MODEL 1
REMARK VINA RESULT:    -9.810      0.000      0.000
REMARK INTER + INTRA:         -12.989
REMARK INTER:                 -12.390
REMARK INTRA:                  -0.599
REMARK UNBOUND:                -0.599
REMARK  Name = 
REMARK  5 active torsions:
REMARK  status: ('A' for Active; 'I' for Inactive)
REMARK    1  A    between atoms: C_2  and  C_4
REMARK    2  A    between atoms: N_8  and  C_9
REMARK    3  A    between atoms: C_9  and  C_10
REMARK    4  A    between atoms: C_14  and  C_15
REMARK    5  A    between atoms: C_19  and  O_20
REMARK                            x       y       z     vdW  Elec       q    Type
REMARK                         _______ _______ _______ _____ _____    ______ ____
ROOT
ATOM      1  C   UNL     1      43.883   4.882  11.488  0.00  0.00    +0.000 C 
ATOM      2  C   UNL     1      42.746   4.953  12.500  0.00  0.00    +0.000 C 
ATOM      3  C   UNL     1      42.788   5.923  11.367  0.00  0.00    +0.000 C 
ENDROOT
BRANCH   1   8
ATOM      4  C   UNL     1      46.451   2.733   7.516  0.00  0.00    +0.000 A 
ATOM      5  C   UNL     1      45.990   4.045   7.635  0.00  0.00    +0.000 A 
ATOM      6  C   UNL     1      45.166   4.381   8.705  0.00  0.00    +0.000 A 
ATOM      7  C   UNL     1      44.805   3.412   9.634  0.00  0.00    +0.000 A 
ATOM      8  N   UNL     1      43.906   3.646  10.680  0.00  0.00    +0.000 N 
ATOM      9  N   UNL     1      45.237   2.136   9.524  0.00  0.00    +0.000 NA
ATOM     10  C   UNL     1      46.041   1.822   8.475  0.00  0.00    +0.000 A 
ATOM     11  H   UNL     1      43.910   2.781  11.220  0.00  0.00    +0.000 HD
BRANCH   4  13
ATOM     12  N   UNL     1      47.191   2.922   5.205  0.00  0.00    +0.000 N 
ATOM     13  C   UNL     1      47.310   2.274   6.402  0.00  0.00    +0.000 C 
ATOM     14  O   UNL     1      48.118   1.369   6.556  0.00  0.00    +0.000 OA
ATOM     15  H   UNL     1      47.852   2.658   4.485  0.00  0.00    +0.000 HD
ATOM     16  H   UNL     1      46.722   3.811   5.108  0.00  0.00    +0.000 HD
ENDBRANCH   4  13
ENDBRANCH   1   8
BRANCH   1  17
ATOM     17  C   UNL     1      45.275   5.339  11.920  0.00  0.00    +0.000 A 
ATOM     18  C   UNL     1      45.996   6.307  11.204  0.00  0.00    +0.000 A 
ATOM     19  C   UNL     1      47.217   6.791  11.670  0.00  0.00    +0.000 A 
ATOM     20  C   UNL     1      47.729   6.338  12.888  0.00  0.00    +0.000 A 
ATOM     21  C   UNL     1      47.036   5.393  13.659  0.00  0.00    +0.000 A 
ATOM     22  C   UNL     1      45.836   4.882  13.128  0.00  0.00    +0.000 A 
BRANCH  21  23
ATOM     23  C   UNL     1      47.463   5.037  15.032  0.00  0.00    +0.000 A 
ATOM     24  C   UNL     1      48.408   5.827  15.718  0.00  0.00    +0.000 A 
ATOM     25  C   UNL     1      48.733   5.585  17.056  0.00  0.00    +0.000 A 
ATOM     26  C   UNL     1      48.111   4.553  17.750  0.00  0.00    +0.000 A 
ATOM     27  C   UNL     1      47.183   3.758  17.087  0.00  0.00    +0.000 A 
ATOM     28  C   UNL     1      46.877   3.974  15.744  0.00  0.00    +0.000 A 
BRANCH  27  29
ATOM     29  O   UNL     1      46.518   2.760  17.738  0.00  0.00    +0.000 OA
ATOM     30  H   UNL     1      45.585   3.019  17.822  0.00  0.00    +0.000 HD
ENDBRANCH  27  29
ENDBRANCH  21  23
ENDBRANCH   1  17
TORSDOF 5
ENDMDL
MODEL 2
REMARK VINA RESULT:    -9.430      2.281      3.417
REMARK INTER + INTRA:         -12.509
REMARK INTER:                 -11.376
REMARK INTRA:                  -1.133
REMARK UNBOUND:                -0.599
REMARK  Name = 
REMARK  5 active torsions:
REMARK  status: ('A' for Active; 'I' for Inactive)
REMARK    1  A    between atoms: C_2  and  C_4
REMARK    2  A    between atoms: N_8  and  C_9
REMARK    3  A    between atoms: C_9  and  C_10
REMARK    4  A    between atoms: C_14  and  C_15
REMARK    5  A    between atoms: C_19  and  O_20
REMARK                            x       y       z     vdW  Elec       q    Type
REMARK                         _______ _______ _______ _____ _____    ______ ____
ROOT
ATOM      1  C   UNL     1      43.808   4.912  11.357  0.00  0.00    +0.000 C 
ATOM      2  C   UNL     1      42.451   5.270  11.950  0.00  0.00    +0.000 C 
ATOM      3  C   UNL     1      43.103   6.201  10.985  0.00  0.00    +0.000 C 
ENDROOT
BRANCH   1   8
ATOM      4  C   UNL     1      46.576   2.693   7.562  0.00  0.00    +0.000 A 
ATOM      5  C   UNL     1      46.230   4.038   7.703  0.00  0.00    +0.000 A 
ATOM      6  C   UNL     1      45.331   4.408   8.698  0.00  0.00    +0.000 A 
ATOM      7  C   UNL     1      44.782   3.440   9.532  0.00  0.00    +0.000 A 
ATOM      8  N   UNL     1      43.802   3.717  10.490  0.00  0.00    +0.000 N 
ATOM      9  N   UNL     1      45.102   2.134   9.399  0.00  0.00    +0.000 NA
ATOM     10  C   UNL     1      45.981   1.787   8.423  0.00  0.00    +0.000 A 
ATOM     11  H   UNL     1      43.666   2.833  10.981  0.00  0.00    +0.000 HD
BRANCH   4  13
ATOM     12  N   UNL     1      47.776   3.034   5.472  0.00  0.00    +0.000 N 
ATOM     13  C   UNL     1      47.503   2.200   6.520  0.00  0.00    +0.000 C 
ATOM     14  O   UNL     1      48.028   1.099   6.608  0.00  0.00    +0.000 OA
ATOM     15  H   UNL     1      48.483   2.717   4.820  0.00  0.00    +0.000 HD
ATOM     16  H   UNL     1      47.558   4.020   5.486  0.00  0.00    +0.000 HD
ENDBRANCH   4  13
ENDBRANCH   1   8
BRANCH   1  17
ATOM     17  C   UNL     1      45.041   4.993  12.255  0.00  0.00    +0.000 A 
ATOM     18  C   UNL     1      45.566   3.864  12.903  0.00  0.00    +0.000 A 
ATOM     19  C   UNL     1      46.752   3.933  13.631  0.00  0.00    +0.000 A 
ATOM     20  C   UNL     1      47.461   5.134  13.699  0.00  0.00    +0.000 A 
ATOM     21  C   UNL     1      46.998   6.287  13.045  0.00  0.00    +0.000 A 
ATOM     22  C   UNL     1      45.766   6.195  12.370  0.00  0.00    +0.000 A 
BRANCH  21  23
ATOM     23  C   UNL     1      47.821   7.515  12.948  0.00  0.00    +0.000 A 
ATOM     24  C   UNL     1      48.509   7.826  11.759  0.00  0.00    +0.000 A 
ATOM     25  C   UNL     1      49.188   9.037  11.599  0.00  0.00    +0.000 A 
ATOM     26  C   UNL     1      49.185   9.979  12.622  0.00  0.00    +0.000 A 
ATOM     27  C   UNL     1      48.518   9.687  13.805  0.00  0.00    +0.000 A 
ATOM     28  C   UNL     1      47.865   8.467  13.983  0.00  0.00    +0.000 A 
BRANCH  27  29
ATOM     29  O   UNL     1      48.453  10.595  14.821  0.00  0.00    +0.000 OA
ATOM     30  H   UNL     1      47.858  11.314  14.551  0.00  0.00    +0.000 HD
ENDBRANCH  27  29
ENDBRANCH  21  23
ENDBRANCH   1  17
TORSDOF 5
ENDMDL
MODEL 3
REMARK VINA RESULT:    -8.053      3.608      7.371
REMARK INTER + INTRA:         -10.771
REMARK INTER:                  -9.709
REMARK INTRA:                  -1.062
REMARK UNBOUND:                -0.599
REMARK  Name = 
REMARK  5 active torsions:
REMARK  status: ('A' for Active; 'I' for Inactive)
REMARK    1  A    between atoms: C_2  and  C_4
REMARK    2  A    between atoms: N_8  and  C_9
REMARK    3  A    between atoms: C_9  and  C_10
REMARK    4  A    between atoms: C_14  and  C_15
REMARK    5  A    between atoms: C_19  and  O_20
REMARK                            x       y       z     vdW  Elec       q    Type
REMARK                         _______ _______ _______ _____ _____    ______ ____
ROOT
ATOM      1  C   UNL     1      46.155   5.220  13.307  0.00  0.00    +0.000 C 
ATOM      2  C   UNL     1      46.122   4.311  14.528  0.00  0.00    +0.000 C 
ATOM      3  C   UNL     1      47.300   4.277  13.614  0.00  0.00    +0.000 C 
ENDROOT
BRANCH   1   8
ATOM      4  C   UNL     1      48.275   9.636  11.575  0.00  0.00    +0.000 A 
ATOM      5  C   UNL     1      48.882   8.388  11.720  0.00  0.00    +0.000 A 
ATOM      6  C   UNL     1      48.193   7.368  12.370  0.00  0.00    +0.000 A 
ATOM      7  C   UNL     1      46.918   7.603  12.872  0.00  0.00    +0.000 A 
ATOM      8  N   UNL     1      46.200   6.663  13.619  0.00  0.00    +0.000 N 
ATOM      9  N   UNL     1      46.323   8.810  12.745  0.00  0.00    +0.000 NA
ATOM     10  C   UNL     1      47.008   9.796  12.109  0.00  0.00    +0.000 A 
ATOM     11  H   UNL     1      45.290   7.097  13.770  0.00  0.00    +0.000 HD
BRANCH   4  13
ATOM     12  N   UNL     1      50.262  10.986  11.186  0.00  0.00    +0.000 N 
ATOM     13  C   UNL     1      48.936  10.787  10.922  0.00  0.00    +0.000 C 
ATOM     14  O   UNL     1      48.327  11.516  10.152  0.00  0.00    +0.000 OA
ATOM     15  H   UNL     1      50.719  11.719  10.658  0.00  0.00    +0.000 HD
ATOM     16  H   UNL     1      50.847  10.282  11.614  0.00  0.00    +0.000 HD
ENDBRANCH   4  13
ENDBRANCH   1   8
BRANCH   1  17
ATOM     17  C   UNL     1      45.241   4.892  12.128  0.00  0.00    +0.000 A 
ATOM     18  C   UNL     1      43.985   5.498  11.968  0.00  0.00    +0.000 A 
ATOM     19  C   UNL     1      43.211   5.269  10.832  0.00  0.00    +0.000 A 
ATOM     20  C   UNL     1      43.695   4.450   9.810  0.00  0.00    +0.000 A 
ATOM     21  C   UNL     1      44.956   3.843   9.904  0.00  0.00    +0.000 A 
ATOM     22  C   UNL     1      45.685   4.049  11.091  0.00  0.00    +0.000 A 
BRANCH  21  23
ATOM     23  C   UNL     1      45.567   3.126   8.760  0.00  0.00    +0.000 A 
ATOM     24  C   UNL     1      46.061   3.836   7.648  0.00  0.00    +0.000 A 
ATOM     25  C   UNL     1      46.753   3.194   6.616  0.00  0.00    +0.000 A 
ATOM     26  C   UNL     1      46.981   1.824   6.676  0.00  0.00    +0.000 A 
ATOM     27  C   UNL     1      46.494   1.106   7.762  0.00  0.00    +0.000 A 
ATOM     28  C   UNL     1      45.777   1.735   8.778  0.00  0.00    +0.000 A 
BRANCH  27  29
ATOM     29  O   UNL     1      46.728  -0.233   7.884  0.00  0.00    +0.000 OA
ATOM     30  H   UNL     1      46.165  -0.701   7.246  0.00  0.00    +0.000 HD
ENDBRANCH  27  29
ENDBRANCH  21  23
ENDBRANCH   1  17
TORSDOF 5
ENDMDL
MODEL 4
REMARK VINA RESULT:    -7.729      3.672      8.264
REMARK INTER + INTRA:         -10.361
REMARK INTER:                  -9.256
REMARK INTRA:                  -1.105
REMARK UNBOUND:                -0.599
REMARK  Name = 
REMARK  5 active torsions:
REMARK  status: ('A' for Active; 'I' for Inactive)
REMARK    1  A    between atoms: C_2  and  C_4
REMARK    2  A    between atoms: N_8  and  C_9
REMARK    3  A    between atoms: C_9  and  C_10
REMARK    4  A    between atoms: C_14  and  C_15
REMARK    5  A    between atoms: C_19  and  O_20
REMARK                            x       y       z     vdW  Elec       q    Type
REMARK                         _______ _______ _______ _____ _____    ______ ____
ROOT
ATOM      1  C   UNL     1      49.099   7.922  12.605  0.00  0.00    +0.000 C 
ATOM      2  C   UNL     1      50.015   8.047  11.394  0.00  0.00    +0.000 C 
ATOM      3  C   UNL     1      49.779   9.234  12.267  0.00  0.00    +0.000 C 
ENDROOT
BRANCH   1   8
ATOM      4  C   UNL     1      48.396   6.838  17.637  0.00  0.00    +0.000 A 
ATOM      5  C   UNL     1      48.499   8.092  17.032  0.00  0.00    +0.000 A 
ATOM      6  C   UNL     1      48.864   8.171  15.691  0.00  0.00    +0.000 A 
ATOM      7  C   UNL     1      49.131   7.010  14.975  0.00  0.00    +0.000 A 
ATOM      8  N   UNL     1      49.595   7.010  13.656  0.00  0.00    +0.000 N 
ATOM      9  N   UNL     1      49.044   5.791  15.552  0.00  0.00    +0.000 NA
ATOM     10  C   UNL     1      48.686   5.729  16.862  0.00  0.00    +0.000 A 
ATOM     11  H   UNL     1      49.618   6.026  13.392  0.00  0.00    +0.000 HD
BRANCH   4  13
ATOM     12  N   UNL     1      47.187   5.630  19.370  0.00  0.00    +0.000 N 
ATOM     13  C   UNL     1      48.039   6.653  19.061  0.00  0.00    +0.000 C 
ATOM     14  O   UNL     1      48.512   7.369  19.932  0.00  0.00    +0.000 OA
ATOM     15  H   UNL     1      47.030   5.461  20.355  0.00  0.00    +0.000 HD
ATOM     16  H   UNL     1      46.971   4.884  18.724  0.00  0.00    +0.000 HD
ENDBRANCH   4  13
ENDBRANCH   1   8
BRANCH   1  17
ATOM     17  C   UNL     1      47.594   7.804  12.373  0.00  0.00    +0.000 A 
ATOM     18  C   UNL     1      46.722   8.884  12.582  0.00  0.00    +0.000 A 
ATOM     19  C   UNL     1      45.368   8.792  12.264  0.00  0.00    +0.000 A 
ATOM     20  C   UNL     1      44.862   7.622  11.695  0.00  0.00    +0.000 A 
ATOM     21  C   UNL     1      45.695   6.522  11.437  0.00  0.00    +0.000 A 
ATOM     22  C   UNL     1      47.044   6.629  11.827  0.00  0.00    +0.000 A 
BRANCH  21  23
ATOM     23  C   UNL     1      45.223   5.346  10.669  0.00  0.00    +0.000 A 
ATOM     24  C   UNL     1      45.642   5.142   9.340  0.00  0.00    +0.000 A 
ATOM     25  C   UNL     1      45.313   3.979   8.637  0.00  0.00    +0.000 A 
ATOM     26  C   UNL     1      44.567   2.980   9.252  0.00  0.00    +0.000 A 
ATOM     27  C   UNL     1      44.138   3.168  10.561  0.00  0.00    +0.000 A 
ATOM     28  C   UNL     1      44.436   4.339  11.256  0.00  0.00    +0.000 A 
BRANCH  27  29
ATOM     29  O   UNL     1      43.437   2.199  11.219  0.00  0.00    +0.000 OA
ATOM     30  H   UNL     1      43.965   1.904  11.979  0.00  0.00    +0.000 HD
ENDBRANCH  27  29
ENDBRANCH  21  23
ENDBRANCH   1  17
TORSDOF 5
ENDMDL
MODEL 5
REMARK VINA RESULT:    -7.391      2.755      4.573
REMARK INTER + INTRA:          -9.933
REMARK INTER:                  -9.469
REMARK INTRA:                  -0.465
REMARK UNBOUND:                -0.599
REMARK  Name = 
REMARK  5 active torsions:
REMARK  status: ('A' for Active; 'I' for Inactive)
REMARK    1  A    between atoms: C_2  and  C_4
REMARK    2  A    between atoms: N_8  and  C_9
REMARK    3  A    between atoms: C_9  and  C_10
REMARK    4  A    between atoms: C_14  and  C_15
REMARK    5  A    between atoms: C_19  and  O_20
REMARK                            x       y       z     vdW  Elec       q    Type
REMARK                         _______ _______ _______ _____ _____    ______ ____
ROOT
ATOM      1  C   UNL     1      47.349   8.580  13.153  0.00  0.00    +0.000 C 
ATOM      2  C   UNL     1      47.428   9.948  12.487  0.00  0.00    +0.000 C 
ATOM      3  C   UNL     1      48.101   8.777  11.852  0.00  0.00    +0.000 C 
ENDROOT
BRANCH   1   8
ATOM      4  C   UNL     1      44.660   4.449  11.511  0.00  0.00    +0.000 A 
ATOM      5  C   UNL     1      45.571   5.225  10.793  0.00  0.00    +0.000 A 
ATOM      6  C   UNL     1      46.057   6.401  11.358  0.00  0.00    +0.000 A 
ATOM      7  C   UNL     1      45.625   6.794  12.620  0.00  0.00    +0.000 A 
ATOM      8  N   UNL     1      45.990   8.006  13.214  0.00  0.00    +0.000 N 
ATOM      9  N   UNL     1      44.736   6.056  13.321  0.00  0.00    +0.000 NA
ATOM     10  C   UNL     1      44.270   4.911  12.757  0.00  0.00    +0.000 A 
ATOM     11  H   UNL     1      45.584   7.966  14.149  0.00  0.00    +0.000 HD
BRANCH   4  13
ATOM     12  N   UNL     1      44.825   2.461  10.117  0.00  0.00    +0.000 N 
ATOM     13  C   UNL     1      44.071   3.198  10.986  0.00  0.00    +0.000 C 
ATOM     14  O   UNL     1      42.962   2.823  11.339  0.00  0.00    +0.000 OA
ATOM     15  H   UNL     1      44.444   1.564   9.843  0.00  0.00    +0.000 HD
ATOM     16  H   UNL     1      45.816   2.608   9.992  0.00  0.00    +0.000 HD
ENDBRANCH   4  13
ENDBRANCH   1   8
BRANCH   1  17
ATOM     17  C   UNL     1      48.156   8.342  14.428  0.00  0.00    +0.000 A 
ATOM     18  C   UNL     1      48.631   9.401  15.218  0.00  0.00    +0.000 A 
ATOM     19  C   UNL     1      49.272   9.166  16.433  0.00  0.00    +0.000 A 
ATOM     20  C   UNL     1      49.423   7.860  16.903  0.00  0.00    +0.000 A 
ATOM     21  C   UNL     1      48.941   6.765  16.168  0.00  0.00    +0.000 A 
ATOM     22  C   UNL     1      48.353   7.036  14.918  0.00  0.00    +0.000 A 
BRANCH  21  23
ATOM     23  C   UNL     1      48.923   5.393  16.728  0.00  0.00    +0.000 A 
ATOM     24  C   UNL     1      50.088   4.828  17.282  0.00  0.00    +0.000 A 
ATOM     25  C   UNL     1      50.067   3.588  17.927  0.00  0.00    +0.000 A 
ATOM     26  C   UNL     1      48.873   2.885  18.048  0.00  0.00    +0.000 A 
ATOM     27  C   UNL     1      47.715   3.423  17.500  0.00  0.00    +0.000 A 
ATOM     28  C   UNL     1      47.736   4.645  16.827  0.00  0.00    +0.000 A 
BRANCH  27  29
ATOM     29  O   UNL     1      46.514   2.789  17.628  0.00  0.00    +0.000 OA
ATOM     30  H   UNL     1      45.993   3.254  18.303  0.00  0.00    +0.000 HD
ENDBRANCH  27  29
ENDBRANCH  21  23
ENDBRANCH   1  17
TORSDOF 5
ENDMDL
MODEL 6
REMARK VINA RESULT:    -6.966      3.683      5.719
REMARK INTER + INTRA:          -9.397
REMARK INTER:                  -8.145
REMARK INTRA:                  -1.252
REMARK UNBOUND:                -0.599
REMARK  Name = 
REMARK  5 active torsions:
REMARK  status: ('A' for Active; 'I' for Inactive)
REMARK    1  A    between atoms: C_2  and  C_4
REMARK    2  A    between atoms: N_8  and  C_9
REMARK    3  A    between atoms: C_9  and  C_10
REMARK    4  A    between atoms: C_14  and  C_15
REMARK    5  A    between atoms: C_19  and  O_20
REMARK                            x       y       z     vdW  Elec       q    Type
REMARK                         _______ _______ _______ _____ _____    ______ ____
ROOT
ATOM      1  C   UNL     1      49.563   8.758  12.964  0.00  0.00    +0.000 C 
ATOM      2  C   UNL     1      50.779   9.569  12.534  0.00  0.00    +0.000 C 
ATOM      3  C   UNL     1      50.761   8.094  12.315  0.00  0.00    +0.000 C 
ENDROOT
BRANCH   1   8
ATOM      4  C   UNL     1      44.912   6.717  11.869  0.00  0.00    +0.000 A 
ATOM      5  C   UNL     1      46.156   6.085  11.851  0.00  0.00    +0.000 A 
ATOM      6  C   UNL     1      47.310   6.849  12.004  0.00  0.00    +0.000 A 
ATOM      7  C   UNL     1      47.213   8.227  12.162  0.00  0.00    +0.000 A 
ATOM      8  N   UNL     1      48.324   9.074  12.225  0.00  0.00    +0.000 N 
ATOM      9  N   UNL     1      46.014   8.852  12.172  0.00  0.00    +0.000 NA
ATOM     10  C   UNL     1      44.897   8.093  12.022  0.00  0.00    +0.000 A 
ATOM     11  H   UNL     1      47.934   9.995  12.418  0.00  0.00    +0.000 HD
BRANCH   4  13
ATOM     12  N   UNL     1      42.596   6.678  11.123  0.00  0.00    +0.000 N 
ATOM     13  C   UNL     1      43.634   5.994  11.691  0.00  0.00    +0.000 C 
ATOM     14  O   UNL     1      43.519   4.820  12.012  0.00  0.00    +0.000 OA
ATOM     15  H   UNL     1      41.762   6.141  10.923  0.00  0.00    +0.000 HD
ATOM     16  H   UNL     1      42.720   7.553  10.634  0.00  0.00    +0.000 HD
ENDBRANCH   4  13
ENDBRANCH   1   8
BRANCH   1  17
ATOM     17  C   UNL     1      49.327   8.530  14.456  0.00  0.00    +0.000 A 
ATOM     18  C   UNL     1      48.886   9.557  15.305  0.00  0.00    +0.000 A 
ATOM     19  C   UNL     1      48.573   9.307  16.640  0.00  0.00    +0.000 A 
ATOM     20  C   UNL     1      48.663   8.010  17.148  0.00  0.00    +0.000 A 
ATOM     21  C   UNL     1      49.071   6.941  16.336  0.00  0.00    +0.000 A 
ATOM     22  C   UNL     1      49.436   7.240  15.009  0.00  0.00    +0.000 A 
BRANCH  21  23
ATOM     23  C   UNL     1      48.997   5.534  16.797  0.00  0.00    +0.000 A 
ATOM     24  C   UNL     1      50.142   4.880  17.293  0.00  0.00    +0.000 A 
ATOM     25  C   UNL     1      50.072   3.600  17.849  0.00  0.00    +0.000 A 
ATOM     26  C   UNL     1      48.850   2.943  17.938  0.00  0.00    +0.000 A 
ATOM     27  C   UNL     1      47.711   3.570  17.446  0.00  0.00    +0.000 A 
ATOM     28  C   UNL     1      47.779   4.834  16.861  0.00  0.00    +0.000 A 
BRANCH  27  29
ATOM     29  O   UNL     1      46.483   2.981  17.546  0.00  0.00    +0.000 OA
ATOM     30  H   UNL     1      46.169   3.084  18.460  0.00  0.00    +0.000 HD
ENDBRANCH  27  29
ENDBRANCH  21  23
ENDBRANCH   1  17
TORSDOF 5
ENDMDL
