MODEL 1
REMARK VINA RESULT:    -7.776      0.000      0.000
REMARK INTER + INTRA:         -14.244
REMARK INTER:                 -12.322
REMARK INTRA:                  -1.922
REMARK UNBOUND:                -1.922
REMARK  Name = 
REMARK  10 active torsions:
REMARK  status: ('A' for Active; 'I' for Inactive)
REMARK    1  A    between atoms: C_2  and  C_20
REMARK    2  A    between atoms: N_3  and  C_4
REMARK    3  A    between atoms: C_4  and  C_5
REMARK    4  A    between atoms: C_8  and  C_9
REMARK    5  A    between atoms: C_9  and  N_10
REMARK    6  A    between atoms: N_10  and  C_11
REMARK    7  A    between atoms: C_11  and  C_12
REMARK    8  A    between atoms: C_27  and  O_28
REMARK    9  A    between atoms: O_28  and  C_29
REMARK   10  A    between atoms: C_29  and  C_30
REMARK                            x       y       z     vdW  Elec       q    Type
REMARK                         _______ _______ _______ _____ _____    ______ ____
ROOT
ATOM      1  O   UNL     1      49.351   8.873  15.034  0.00  0.00    +0.000 OA
ATOM      2  C   UNL     1      48.730   8.022  15.636  0.00  0.00    +0.000 C 
ATOM      3  N   UNL     1      48.182   6.894  15.052  0.00  0.00    +0.000 N 
ATOM      4  H   UNL     1      48.082   6.100  15.672  0.00  0.00    +0.000 HD
ENDROOT
BRANCH   2   5
ATOM      5  C   UNL     1      48.674   7.924  17.089  0.00  0.00    +0.000 A 
ATOM      6  C   UNL     1      48.203   8.970  17.869  0.00  0.00    +0.000 A 
ATOM      7  N   UNL     1      48.886   8.902  19.053  0.00  0.00    +0.000 N 
ATOM      8  C   UNL     1      49.583   7.728  19.112  0.00  0.00    +0.000 A 
ATOM      9  N   UNL     1      50.436   7.416  20.094  0.00  0.00    +0.000 NA
ATOM     10  C   UNL     1      50.988   6.210  19.907  0.00  0.00    +0.000 A 
ATOM     11  N   UNL     1      50.714   5.326  18.931  0.00  0.00    +0.000 NA
ATOM     12  C   UNL     1      49.840   5.679  17.960  0.00  0.00    +0.000 A 
ATOM     13  C   UNL     1      49.297   6.980  17.977  0.00  0.00    +0.000 A 
ATOM     14  H   UNL     1      48.977   9.644  19.733  0.00  0.00    +0.000 HD
BRANCH  12  15
ATOM     15  O   UNL     1      49.704   4.717  16.982  0.00  0.00    +0.000 OA
BRANCH  15  16
ATOM     16  C   UNL     1      49.078   3.492  17.380  0.00  0.00    +0.000 C 
BRANCH  16  17
ATOM     17  C   UNL     1      47.655   3.350  16.822  0.00  0.00    +0.000 C 
ATOM     18  F   UNL     1      46.957   4.504  16.828  0.00  0.00    +0.000 F 
ATOM     19  F   UNL     1      47.678   2.899  15.544  0.00  0.00    +0.000 F 
ATOM     20  F   UNL     1      46.945   2.447  17.543  0.00  0.00    +0.000 F 
ENDBRANCH  16  17
ENDBRANCH  15  16
ENDBRANCH  12  15
ENDBRANCH   2   5
BRANCH   3  21
ATOM     21  C   UNL     1      48.453   6.584  13.682  0.00  0.00    +0.000 C 
BRANCH  21  22
ATOM     22  C   UNL     1      47.215   6.138  12.961  0.00  0.00    +0.000 A 
ATOM     23  C   UNL     1      46.326   5.217  13.518  0.00  0.00    +0.000 A 
ATOM     24  C   UNL     1      45.145   4.902  12.847  0.00  0.00    +0.000 A 
ATOM     25  C   UNL     1      44.883   5.499  11.618  0.00  0.00    +0.000 A 
ATOM     26  N   UNL     1      45.764   6.344  11.024  0.00  0.00    +0.000 NA
ATOM     27  C   UNL     1      46.900   6.635  11.700  0.00  0.00    +0.000 A 
BRANCH  25  28
ATOM     28  C   UNL     1      43.569   5.230  10.904  0.00  0.00    +0.000 C 
BRANCH  28  29
ATOM     29  N   UNL     1      43.688   4.577   9.598  0.00  0.00    +0.000 NA
ATOM     30  H   UNL     1      44.346   5.118   9.032  0.00  0.00    +0.000 HD
BRANCH  29  31
ATOM     31  C   UNL     1      44.232   3.209   9.694  0.00  0.00    +0.000 C 
BRANCH  31  32
ATOM     32  C   UNL     1      45.312   2.941   8.654  0.00  0.00    +0.000 A 
ATOM     33  N   UNL     1      45.664   3.965   7.844  0.00  0.00    +0.000 NA
ATOM     34  C   UNL     1      46.598   3.697   6.911  0.00  0.00    +0.000 A 
ATOM     35  C   UNL     1      47.192   2.468   6.764  0.00  0.00    +0.000 A 
ATOM     36  C   UNL     1      46.776   1.498   7.645  0.00  0.00    +0.000 A 
ATOM     37  N   UNL     1      45.848   1.704   8.597  0.00  0.00    +0.000 NA
ENDBRANCH  31  32
ENDBRANCH  29  31
ENDBRANCH  28  29
ENDBRANCH  25  28
ENDBRANCH  21  22
ENDBRANCH   3  21
TORSDOF 10
ENDMDL
MODEL 2
REMARK VINA RESULT:    -7.653      0.706      1.245
REMARK INTER + INTRA:         -14.048
REMARK INTER:                 -12.492
REMARK INTRA:                  -1.556
REMARK UNBOUND:                -1.922
REMARK  Name = 
REMARK  10 active torsions:
REMARK  status: ('A' for Active; 'I' for Inactive)
REMARK    1  A    between atoms: C_2  and  C_20
REMARK    2  A    between atoms: N_3  and  C_4
REMARK    3  A    between atoms: C_4  and  C_5
REMARK    4  A    between atoms: C_8  and  C_9
REMARK    5  A    between atoms: C_9  and  N_10
REMARK    6  A    between atoms: N_10  and  C_11
REMARK    7  A    between atoms: C_11  and  C_12
REMARK    8  A    between atoms: C_27  and  O_28
REMARK    9  A    between atoms: O_28  and  C_29
REMARK   10  A    between atoms: C_29  and  C_30
REMARK                            x       y       z     vdW  Elec       q    Type
REMARK                         _______ _______ _______ _____ _____    ______ ____
ROOT
ATOM      1  O   UNL     1      49.926   8.178  14.820  0.00  0.00    +0.000 OA
ATOM      2  C   UNL     1      48.978   7.675  15.385  0.00  0.00    +0.000 C 
ATOM      3  N   UNL     1      48.062   6.835  14.780  0.00  0.00    +0.000 N 
ATOM      4  H   UNL     1      47.611   6.177  15.403  0.00  0.00    +0.000 HD
ENDROOT
BRANCH   2   5
ATOM      5  C   UNL     1      48.793   7.677  16.831  0.00  0.00    +0.000 A 
ATOM      6  C   UNL     1      48.276   8.780  17.496  0.00  0.00    +0.000 A 
ATOM      7  N   UNL     1      48.852   8.781  18.738  0.00  0.00    +0.000 N 
ATOM      8  C   UNL     1      49.517   7.604  18.936  0.00  0.00    +0.000 A 
ATOM      9  N   UNL     1      50.274   7.347  20.008  0.00  0.00    +0.000 NA
ATOM     10  C   UNL     1      50.816   6.123  19.950  0.00  0.00    +0.000 A 
ATOM     11  N   UNL     1      50.610   5.179  19.014  0.00  0.00    +0.000 NA
ATOM     12  C   UNL     1      49.832   5.479  17.948  0.00  0.00    +0.000 A 
ATOM     13  C   UNL     1      49.316   6.785  17.831  0.00  0.00    +0.000 A 
ATOM     14  H   UNL     1      48.898   9.566  19.373  0.00  0.00    +0.000 HD
BRANCH  12  15
ATOM     15  O   UNL     1      49.762   4.455  17.027  0.00  0.00    +0.000 OA
BRANCH  15  16
ATOM     16  C   UNL     1      49.017   3.298  17.420  0.00  0.00    +0.000 C 
BRANCH  16  17
ATOM     17  C   UNL     1      47.576   3.319  16.891  0.00  0.00    +0.000 C 
ATOM     18  F   UNL     1      47.011   4.543  16.916  0.00  0.00    +0.000 F 
ATOM     19  F   UNL     1      47.523   2.877  15.611  0.00  0.00    +0.000 F 
ATOM     20  F   UNL     1      46.784   2.495  17.622  0.00  0.00    +0.000 F 
ENDBRANCH  16  17
ENDBRANCH  15  16
ENDBRANCH  12  15
ENDBRANCH   2   5
BRANCH   3  21
ATOM     21  C   UNL     1      48.275   6.379  13.440  0.00  0.00    +0.000 C 
BRANCH  21  22
ATOM     22  C   UNL     1      47.001   5.895  12.812  0.00  0.00    +0.000 A 
ATOM     23  C   UNL     1      46.486   6.467  11.648  0.00  0.00    +0.000 A 
ATOM     24  C   UNL     1      45.347   5.924  11.055  0.00  0.00    +0.000 A 
ATOM     25  C   UNL     1      44.729   4.828  11.650  0.00  0.00    +0.000 A 
ATOM     26  N   UNL     1      45.171   4.297  12.819  0.00  0.00    +0.000 NA
ATOM     27  C   UNL     1      46.281   4.843  13.369  0.00  0.00    +0.000 A 
BRANCH  25  28
ATOM     28  C   UNL     1      43.532   4.171  10.982  0.00  0.00    +0.000 C 
BRANCH  28  29
ATOM     29  N   UNL     1      43.775   3.655   9.633  0.00  0.00    +0.000 NA
ATOM     30  H   UNL     1      44.306   4.359   9.114  0.00  0.00    +0.000 HD
BRANCH  29  31
ATOM     31  C   UNL     1      44.587   2.423   9.632  0.00  0.00    +0.000 C 
BRANCH  31  32
ATOM     32  C   UNL     1      45.606   2.401   8.501  0.00  0.00    +0.000 A 
ATOM     33  N   UNL     1      46.229   1.228   8.247  0.00  0.00    +0.000 NA
ATOM     34  C   UNL     1      47.150   1.240   7.264  0.00  0.00    +0.000 A 
ATOM     35  C   UNL     1      47.461   2.357   6.529  0.00  0.00    +0.000 A 
ATOM     36  C   UNL     1      46.763   3.496   6.855  0.00  0.00    +0.000 A 
ATOM     37  N   UNL     1      45.833   3.548   7.826  0.00  0.00    +0.000 NA
ENDBRANCH  31  32
ENDBRANCH  29  31
ENDBRANCH  28  29
ENDBRANCH  25  28
ENDBRANCH  21  22
ENDBRANCH   3  21
TORSDOF 10
ENDMDL
MODEL 3
REMARK VINA RESULT:    -7.625      1.481      1.981
REMARK INTER + INTRA:         -14.004
REMARK INTER:                 -11.894
REMARK INTRA:                  -2.110
REMARK UNBOUND:                -1.922
REMARK  Name = 
REMARK  10 active torsions:
REMARK  status: ('A' for Active; 'I' for Inactive)
REMARK    1  A    between atoms: C_2  and  C_20
REMARK    2  A    between atoms: N_3  and  C_4
REMARK    3  A    between atoms: C_4  and  C_5
REMARK    4  A    between atoms: C_8  and  C_9
REMARK    5  A    between atoms: C_9  and  N_10
REMARK    6  A    between atoms: N_10  and  C_11
REMARK    7  A    between atoms: C_11  and  C_12
REMARK    8  A    between atoms: C_27  and  O_28
REMARK    9  A    between atoms: O_28  and  C_29
REMARK   10  A    between atoms: C_29  and  C_30
REMARK                            x       y       z     vdW  Elec       q    Type
REMARK                         _______ _______ _______ _____ _____    ______ ____
ROOT
ATOM      1  O   UNL     1      50.188   7.016  14.716  0.00  0.00    +0.000 OA
ATOM      2  C   UNL     1      49.242   7.615  15.181  0.00  0.00    +0.000 C 
ATOM      3  N   UNL     1      48.328   8.336  14.434  0.00  0.00    +0.000 N 
ATOM      4  H   UNL     1      47.407   8.413  14.846  0.00  0.00    +0.000 HD
ENDROOT
BRANCH   2   5
ATOM      5  C   UNL     1      48.777   7.471  16.555  0.00  0.00    +0.000 A 
ATOM      6  C   UNL     1      48.523   8.575  17.355  0.00  0.00    +0.000 A 
ATOM      7  N   UNL     1      48.803   8.190  18.638  0.00  0.00    +0.000 N 
ATOM      8  C   UNL     1      48.996   6.838  18.678  0.00  0.00    +0.000 A 
ATOM      9  N   UNL     1      49.395   6.174  19.769  0.00  0.00    +0.000 NA
ATOM     10  C   UNL     1      49.511   4.860  19.535  0.00  0.00    +0.000 A 
ATOM     11  N   UNL     1      49.205   4.199  18.405  0.00  0.00    +0.000 NA
ATOM     12  C   UNL     1      48.799   4.909  17.325  0.00  0.00    +0.000 A 
ATOM     13  C   UNL     1      48.769   6.315  17.411  0.00  0.00    +0.000 A 
ATOM     14  H   UNL     1      48.971   8.806  19.422  0.00  0.00    +0.000 HD
BRANCH  12  15
ATOM     15  O   UNL     1      48.591   4.123  16.212  0.00  0.00    +0.000 OA
BRANCH  15  16
ATOM     16  C   UNL     1      47.228   3.807  15.905  0.00  0.00    +0.000 C 
BRANCH  16  17
ATOM     17  C   UNL     1      46.849   4.180  14.465  0.00  0.00    +0.000 C 
ATOM     18  F   UNL     1      46.838   3.127  13.621  0.00  0.00    +0.000 F 
ATOM     19  F   UNL     1      45.618   4.746  14.419  0.00  0.00    +0.000 F 
ATOM     20  F   UNL     1      47.718   5.091  13.961  0.00  0.00    +0.000 F 
ENDBRANCH  16  17
ENDBRANCH  15  16
ENDBRANCH  12  15
ENDBRANCH   2   5
BRANCH   3  21
ATOM     21  C   UNL     1      48.368   8.291  13.003  0.00  0.00    +0.000 C 
BRANCH  21  22
ATOM     22  C   UNL     1      47.148   7.626  12.438  0.00  0.00    +0.000 A 
ATOM     23  C   UNL     1      47.204   6.822  11.298  0.00  0.00    +0.000 A 
ATOM     24  C   UNL     1      46.059   6.155  10.864  0.00  0.00    +0.000 A 
ATOM     25  C   UNL     1      44.869   6.321  11.567  0.00  0.00    +0.000 A 
ATOM     26  N   UNL     1      44.774   7.151  12.637  0.00  0.00    +0.000 NA
ATOM     27  C   UNL     1      45.902   7.782  13.038  0.00  0.00    +0.000 A 
BRANCH  25  28
ATOM     28  C   UNL     1      43.628   5.545  11.159  0.00  0.00    +0.000 C 
BRANCH  28  29
ATOM     29  N   UNL     1      43.684   4.930   9.831  0.00  0.00    +0.000 NA
ATOM     30  H   UNL     1      44.413   5.404   9.292  0.00  0.00    +0.000 HD
BRANCH  29  31
ATOM     31  C   UNL     1      44.050   3.502   9.881  0.00  0.00    +0.000 C 
BRANCH  31  32
ATOM     32  C   UNL     1      45.090   3.133   8.831  0.00  0.00    +0.000 A 
ATOM     33  N   UNL     1      45.532   1.855   8.814  0.00  0.00    +0.000 NA
ATOM     34  C   UNL     1      46.475   1.560   7.898  0.00  0.00    +0.000 A 
ATOM     35  C   UNL     1      46.978   2.474   7.006  0.00  0.00    +0.000 A 
ATOM     36  C   UNL     1      46.453   3.742   7.094  0.00  0.00    +0.000 A 
ATOM     37  N   UNL     1      45.512   4.098   7.987  0.00  0.00    +0.000 NA
ENDBRANCH  31  32
ENDBRANCH  29  31
ENDBRANCH  28  29
ENDBRANCH  25  28
ENDBRANCH  21  22
ENDBRANCH   3  21
TORSDOF 10
ENDMDL
MODEL 4
REMARK VINA RESULT:    -7.187      4.826      9.640
REMARK INTER + INTRA:         -13.310
REMARK INTER:                 -12.091
REMARK INTRA:                  -1.219
REMARK UNBOUND:                -1.922
REMARK  Name = 
REMARK  10 active torsions:
REMARK  status: ('A' for Active; 'I' for Inactive)
REMARK    1  A    between atoms: C_2  and  C_20
REMARK    2  A    between atoms: N_3  and  C_4
REMARK    3  A    between atoms: C_4  and  C_5
REMARK    4  A    between atoms: C_8  and  C_9
REMARK    5  A    between atoms: C_9  and  N_10
REMARK    6  A    between atoms: N_10  and  C_11
REMARK    7  A    between atoms: C_11  and  C_12
REMARK    8  A    between atoms: C_27  and  O_28
REMARK    9  A    between atoms: O_28  and  C_29
REMARK   10  A    between atoms: C_29  and  C_30
REMARK                            x       y       z     vdW  Elec       q    Type
REMARK                         _______ _______ _______ _____ _____    ______ ____
ROOT
ATOM      1  O   UNL     1      47.151   3.166  13.955  0.00  0.00    +0.000 OA
ATOM      2  C   UNL     1      46.996   4.261  14.454  0.00  0.00    +0.000 C 
ATOM      3  N   UNL     1      46.907   4.496  15.813  0.00  0.00    +0.000 N 
ATOM      4  H   UNL     1      47.203   5.419  16.106  0.00  0.00    +0.000 HD
ENDROOT
BRANCH   2   5
ATOM      5  C   UNL     1      47.123   5.517  13.725  0.00  0.00    +0.000 A 
ATOM      6  C   UNL     1      47.917   6.553  14.195  0.00  0.00    +0.000 A 
ATOM      7  N   UNL     1      47.325   7.711  13.772  0.00  0.00    +0.000 N 
ATOM      8  C   UNL     1      46.337   7.419  12.875  0.00  0.00    +0.000 A 
ATOM      9  N   UNL     1      45.501   8.329  12.364  0.00  0.00    +0.000 NA
ATOM     10  C   UNL     1      44.625   7.777  11.514  0.00  0.00    +0.000 A 
ATOM     11  N   UNL     1      44.576   6.497  11.105  0.00  0.00    +0.000 NA
ATOM     12  C   UNL     1      45.445   5.608  11.643  0.00  0.00    +0.000 A 
ATOM     13  C   UNL     1      46.326   6.048  12.652  0.00  0.00    +0.000 A 
ATOM     14  H   UNL     1      47.490   8.636  14.145  0.00  0.00    +0.000 HD
BRANCH  12  15
ATOM     15  O   UNL     1      45.241   4.320  11.198  0.00  0.00    +0.000 OA
BRANCH  15  16
ATOM     16  C   UNL     1      44.412   4.172  10.040  0.00  0.00    +0.000 C 
BRANCH  16  17
ATOM     17  C   UNL     1      45.219   3.832   8.779  0.00  0.00    +0.000 C 
ATOM     18  F   UNL     1      46.150   4.757   8.470  0.00  0.00    +0.000 F 
ATOM     19  F   UNL     1      45.859   2.646   8.918  0.00  0.00    +0.000 F 
ATOM     20  F   UNL     1      44.399   3.712   7.704  0.00  0.00    +0.000 F 
ENDBRANCH  16  17
ENDBRANCH  15  16
ENDBRANCH  12  15
ENDBRANCH   2   5
BRANCH   3  21
ATOM     21  C   UNL     1      47.151   3.439  16.747  0.00  0.00    +0.000 C 
BRANCH  21  22
ATOM     22  C   UNL     1      48.618   3.257  17.006  0.00  0.00    +0.000 A 
ATOM     23  C   UNL     1      49.409   4.281  17.528  0.00  0.00    +0.000 A 
ATOM     24  C   UNL     1      50.747   4.035  17.833  0.00  0.00    +0.000 A 
ATOM     25  C   UNL     1      51.277   2.771  17.592  0.00  0.00    +0.000 A 
ATOM     26  N   UNL     1      50.546   1.779  17.022  0.00  0.00    +0.000 NA
ATOM     27  C   UNL     1      49.248   2.046  16.740  0.00  0.00    +0.000 A 
BRANCH  25  28
ATOM     28  C   UNL     1      52.710   2.456  17.987  0.00  0.00    +0.000 C 
BRANCH  28  29
ATOM     29  N   UNL     1      52.940   1.091  18.465  0.00  0.00    +0.000 NA
ATOM     30  H   UNL     1      52.039   0.609  18.495  0.00  0.00    +0.000 HD
BRANCH  29  31
ATOM     31  C   UNL     1      53.810   0.311  17.564  0.00  0.00    +0.000 C 
BRANCH  31  32
ATOM     32  C   UNL     1      54.336  -0.958  18.221  0.00  0.00    +0.000 A 
ATOM     33  N   UNL     1      54.863  -1.905  17.412  0.00  0.00    +0.000 NA
ATOM     34  C   UNL     1      55.293  -3.033  18.011  0.00  0.00    +0.000 A 
ATOM     35  C   UNL     1      55.227  -3.244  19.366  0.00  0.00    +0.000 A 
ATOM     36  C   UNL     1      54.688  -2.216  20.102  0.00  0.00    +0.000 A 
ATOM     37  N   UNL     1      54.241  -1.067  19.562  0.00  0.00    +0.000 NA
ENDBRANCH  31  32
ENDBRANCH  29  31
ENDBRANCH  28  29
ENDBRANCH  25  28
ENDBRANCH  21  22
ENDBRANCH   3  21
TORSDOF 10
ENDMDL
MODEL 5
REMARK VINA RESULT:    -7.023      2.264      3.571
REMARK INTER + INTRA:         -13.050
REMARK INTER:                 -11.283
REMARK INTRA:                  -1.767
REMARK UNBOUND:                -1.922
REMARK  Name = 
REMARK  10 active torsions:
REMARK  status: ('A' for Active; 'I' for Inactive)
REMARK    1  A    between atoms: C_2  and  C_20
REMARK    2  A    between atoms: N_3  and  C_4
REMARK    3  A    between atoms: C_4  and  C_5
REMARK    4  A    between atoms: C_8  and  C_9
REMARK    5  A    between atoms: C_9  and  N_10
REMARK    6  A    between atoms: N_10  and  C_11
REMARK    7  A    between atoms: C_11  and  C_12
REMARK    8  A    between atoms: C_27  and  O_28
REMARK    9  A    between atoms: O_28  and  C_29
REMARK   10  A    between atoms: C_29  and  C_30
REMARK                            x       y       z     vdW  Elec       q    Type
REMARK                         _______ _______ _______ _____ _____    ______ ____
ROOT
ATOM      1  O   UNL     1      49.197   4.377  16.614  0.00  0.00    +0.000 OA
ATOM      2  C   UNL     1      48.583   5.395  16.376  0.00  0.00    +0.000 C 
ATOM      3  N   UNL     1      47.576   5.500  15.434  0.00  0.00    +0.000 N 
ATOM      4  H   UNL     1      46.890   6.221  15.622  0.00  0.00    +0.000 HD
ENDROOT
BRANCH   2   5
ATOM      5  C   UNL     1      48.634   6.594  17.204  0.00  0.00    +0.000 A 
ATOM      6  C   UNL     1      48.030   6.641  18.452  0.00  0.00    +0.000 A 
ATOM      7  N   UNL     1      47.638   7.939  18.638  0.00  0.00    +0.000 N 
ATOM      8  C   UNL     1      48.179   8.725  17.660  0.00  0.00    +0.000 A 
ATOM      9  N   UNL     1      47.892  10.022  17.503  0.00  0.00    +0.000 NA
ATOM     10  C   UNL     1      48.554  10.555  16.467  0.00  0.00    +0.000 A 
ATOM     11  N   UNL     1      49.471   9.956  15.686  0.00  0.00    +0.000 NA
ATOM     12  C   UNL     1      49.735   8.643  15.882  0.00  0.00    +0.000 A 
ATOM     13  C   UNL     1      48.999   7.942  16.858  0.00  0.00    +0.000 A 
ATOM     14  H   UNL     1      46.955   8.265  19.308  0.00  0.00    +0.000 HD
BRANCH  12  15
ATOM     15  O   UNL     1      50.634   8.133  14.970  0.00  0.00    +0.000 OA
BRANCH  15  16
ATOM     16  C   UNL     1      50.515   8.612  13.626  0.00  0.00    +0.000 C 
BRANCH  16  17
ATOM     17  C   UNL     1      49.415   7.887  12.839  0.00  0.00    +0.000 C 
ATOM     18  F   UNL     1      48.171   8.325  13.124  0.00  0.00    +0.000 F 
ATOM     19  F   UNL     1      49.597   8.031  11.504  0.00  0.00    +0.000 F 
ATOM     20  F   UNL     1      49.440   6.555  13.096  0.00  0.00    +0.000 F 
ENDBRANCH  16  17
ENDBRANCH  15  16
ENDBRANCH  12  15
ENDBRANCH   2   5
BRANCH   3  21
ATOM     21  C   UNL     1      47.086   4.333  14.767  0.00  0.00    +0.000 C 
BRANCH  21  22
ATOM     22  C   UNL     1      46.140   4.687  13.657  0.00  0.00    +0.000 A 
ATOM     23  C   UNL     1      46.502   5.552  12.624  0.00  0.00    +0.000 A 
ATOM     24  C   UNL     1      45.619   5.780  11.569  0.00  0.00    +0.000 A 
ATOM     25  C   UNL     1      44.377   5.153  11.577  0.00  0.00    +0.000 A 
ATOM     26  N   UNL     1      43.975   4.361  12.604  0.00  0.00    +0.000 NA
ATOM     27  C   UNL     1      44.855   4.154  13.612  0.00  0.00    +0.000 A 
BRANCH  25  28
ATOM     28  C   UNL     1      43.428   5.324  10.402  0.00  0.00    +0.000 C 
BRANCH  28  29
ATOM     29  N   UNL     1      43.788   4.578   9.194  0.00  0.00    +0.000 NA
ATOM     30  H   UNL     1      44.515   5.103   8.702  0.00  0.00    +0.000 HD
BRANCH  29  31
ATOM     31  C   UNL     1      44.352   3.248   9.493  0.00  0.00    +0.000 C 
BRANCH  31  32
ATOM     32  C   UNL     1      45.418   2.831   8.489  0.00  0.00    +0.000 A 
ATOM     33  N   UNL     1      45.848   1.549   8.532  0.00  0.00    +0.000 NA
ATOM     34  C   UNL     1      46.813   1.211   7.657  0.00  0.00    +0.000 A 
ATOM     35  C   UNL     1      47.352   2.086   6.746  0.00  0.00    +0.000 A 
ATOM     36  C   UNL     1      46.838   3.361   6.772  0.00  0.00    +0.000 A 
ATOM     37  N   UNL     1      45.874   3.760   7.622  0.00  0.00    +0.000 NA
ENDBRANCH  31  32
ENDBRANCH  29  31
ENDBRANCH  28  29
ENDBRANCH  25  28
ENDBRANCH  21  22
ENDBRANCH   3  21
TORSDOF 10
ENDMDL
MODEL 6
REMARK VINA RESULT:    -6.985      3.643      8.799
REMARK INTER + INTRA:         -12.991
REMARK INTER:                 -11.580
REMARK INTRA:                  -1.411
REMARK UNBOUND:                -1.922
REMARK  Name = 
REMARK  10 active torsions:
REMARK  status: ('A' for Active; 'I' for Inactive)
REMARK    1  A    between atoms: C_2  and  C_20
REMARK    2  A    between atoms: N_3  and  C_4
REMARK    3  A    between atoms: C_4  and  C_5
REMARK    4  A    between atoms: C_8  and  C_9
REMARK    5  A    between atoms: C_9  and  N_10
REMARK    6  A    between atoms: N_10  and  C_11
REMARK    7  A    between atoms: C_11  and  C_12
REMARK    8  A    between atoms: C_27  and  O_28
REMARK    9  A    between atoms: O_28  and  C_29
REMARK   10  A    between atoms: C_29  and  C_30
REMARK                            x       y       z     vdW  Elec       q    Type
REMARK                         _______ _______ _______ _____ _____    ______ ____
ROOT
ATOM      1  O   UNL     1      46.148   6.830  10.835  0.00  0.00    +0.000 OA
ATOM      2  C   UNL     1      45.479   6.617  11.824  0.00  0.00    +0.000 C 
ATOM      3  N   UNL     1      45.558   7.347  12.995  0.00  0.00    +0.000 N 
ATOM      4  H   UNL     1      44.710   7.361  13.547  0.00  0.00    +0.000 HD
ENDROOT
BRANCH   2   5
ATOM      5  C   UNL     1      44.325   5.726  11.854  0.00  0.00    +0.000 A 
ATOM      6  C   UNL     1      43.382   5.793  12.870  0.00  0.00    +0.000 A 
ATOM      7  N   UNL     1      42.904   4.521  13.033  0.00  0.00    +0.000 N 
ATOM      8  C   UNL     1      43.348   3.731  12.010  0.00  0.00    +0.000 A 
ATOM      9  N   UNL     1      43.143   2.411  11.946  0.00  0.00    +0.000 NA
ATOM     10  C   UNL     1      43.687   1.878  10.843  0.00  0.00    +0.000 A 
ATOM     11  N   UNL     1      44.301   2.526   9.837  0.00  0.00    +0.000 NA
ATOM     12  C   UNL     1      44.483   3.864   9.940  0.00  0.00    +0.000 A 
ATOM     13  C   UNL     1      44.072   4.515  11.121  0.00  0.00    +0.000 A 
ATOM     14  H   UNL     1      42.407   4.170  13.840  0.00  0.00    +0.000 HD
BRANCH  12  15
ATOM     15  O   UNL     1      45.189   4.394   8.882  0.00  0.00    +0.000 OA
BRANCH  15  16
ATOM     16  C   UNL     1      45.155   3.649   7.659  0.00  0.00    +0.000 C 
BRANCH  16  17
ATOM     17  C   UNL     1      46.559   3.334   7.123  0.00  0.00    +0.000 C 
ATOM     18  F   UNL     1      47.443   4.335   7.308  0.00  0.00    +0.000 F 
ATOM     19  F   UNL     1      47.069   2.230   7.721  0.00  0.00    +0.000 F 
ATOM     20  F   UNL     1      46.517   3.075   5.792  0.00  0.00    +0.000 F 
ENDBRANCH  16  17
ENDBRANCH  15  16
ENDBRANCH  12  15
ENDBRANCH   2   5
BRANCH   3  21
ATOM     21  C   UNL     1      46.360   8.532  13.055  0.00  0.00    +0.000 C 
BRANCH  21  22
ATOM     22  C   UNL     1      47.668   8.279  13.745  0.00  0.00    +0.000 A 
ATOM     23  C   UNL     1      48.317   9.268  14.487  0.00  0.00    +0.000 A 
ATOM     24  C   UNL     1      49.485   8.958  15.182  0.00  0.00    +0.000 A 
ATOM     25  C   UNL     1      49.997   7.666  15.106  0.00  0.00    +0.000 A 
ATOM     26  N   UNL     1      49.422   6.706  14.337  0.00  0.00    +0.000 NA
ATOM     27  C   UNL     1      48.286   7.035  13.677  0.00  0.00    +0.000 A 
BRANCH  25  28
ATOM     28  C   UNL     1      51.225   7.283  15.915  0.00  0.00    +0.000 C 
BRANCH  28  29
ATOM     29  N   UNL     1      51.298   5.875  16.311  0.00  0.00    +0.000 NA
ATOM     30  H   UNL     1      52.284   5.626  16.417  0.00  0.00    +0.000 HD
BRANCH  29  31
ATOM     31  C   UNL     1      50.650   5.615  17.611  0.00  0.00    +0.000 C 
BRANCH  31  32
ATOM     32  C   UNL     1      49.404   4.749  17.475  0.00  0.00    +0.000 A 
ATOM     33  N   UNL     1      48.224   5.294  17.849  0.00  0.00    +0.000 NA
ATOM     34  C   UNL     1      47.141   4.500  17.750  0.00  0.00    +0.000 A 
ATOM     35  C   UNL     1      47.186   3.208  17.290  0.00  0.00    +0.000 A 
ATOM     36  C   UNL     1      48.430   2.752  16.921  0.00  0.00    +0.000 A 
ATOM     37  N   UNL     1      49.549   3.496  16.997  0.00  0.00    +0.000 NA
ENDBRANCH  31  32
ENDBRANCH  29  31
ENDBRANCH  28  29
ENDBRANCH  25  28
ENDBRANCH  21  22
ENDBRANCH   3  21
TORSDOF 10
ENDMDL
MODEL 7
REMARK VINA RESULT:    -6.788      3.900      9.237
REMARK INTER + INTRA:         -12.678
REMARK INTER:                 -11.485
REMARK INTRA:                  -1.193
REMARK UNBOUND:                -1.922
REMARK  Name = 
REMARK  10 active torsions:
REMARK  status: ('A' for Active; 'I' for Inactive)
REMARK    1  A    between atoms: C_2  and  C_20
REMARK    2  A    between atoms: N_3  and  C_4
REMARK    3  A    between atoms: C_4  and  C_5
REMARK    4  A    between atoms: C_8  and  C_9
REMARK    5  A    between atoms: C_9  and  N_10
REMARK    6  A    between atoms: N_10  and  C_11
REMARK    7  A    between atoms: C_11  and  C_12
REMARK    8  A    between atoms: C_27  and  O_28
REMARK    9  A    between atoms: O_28  and  C_29
REMARK   10  A    between atoms: C_29  and  C_30
REMARK                            x       y       z     vdW  Elec       q    Type
REMARK                         _______ _______ _______ _____ _____    ______ ____
ROOT
ATOM      1  O   UNL     1      44.654   8.157  11.171  0.00  0.00    +0.000 OA
ATOM      2  C   UNL     1      44.878   6.970  11.070  0.00  0.00    +0.000 C 
ATOM      3  N   UNL     1      46.133   6.399  11.170  0.00  0.00    +0.000 N 
ATOM      4  H   UNL     1      46.140   5.438  11.489  0.00  0.00    +0.000 HD
ENDROOT
BRANCH   2   5
ATOM      5  C   UNL     1      43.846   5.940  11.074  0.00  0.00    +0.000 A 
ATOM      6  C   UNL     1      42.717   6.047  11.874  0.00  0.00    +0.000 A 
ATOM      7  N   UNL     1      42.358   4.767  12.201  0.00  0.00    +0.000 N 
ATOM      8  C   UNL     1      43.081   3.883  11.451  0.00  0.00    +0.000 A 
ATOM      9  N   UNL     1      43.039   2.557  11.618  0.00  0.00    +0.000 NA
ATOM     10  C   UNL     1      43.848   1.923  10.757  0.00  0.00    +0.000 A 
ATOM     11  N   UNL     1      44.576   2.467   9.766  0.00  0.00    +0.000 NA
ATOM     12  C   UNL     1      44.586   3.814   9.629  0.00  0.00    +0.000 A 
ATOM     13  C   UNL     1      43.879   4.595  10.565  0.00  0.00    +0.000 A 
ATOM     14  H   UNL     1      41.751   4.495  12.962  0.00  0.00    +0.000 HD
BRANCH  12  15
ATOM     15  O   UNL     1      45.429   4.247   8.628  0.00  0.00    +0.000 OA
BRANCH  15  16
ATOM     16  C   UNL     1      45.280   3.611   7.354  0.00  0.00    +0.000 C 
BRANCH  16  17
ATOM     17  C   UNL     1      46.613   3.096   6.794  0.00  0.00    +0.000 C 
ATOM     18  F   UNL     1      46.734   3.254   5.460  0.00  0.00    +0.000 F 
ATOM     19  F   UNL     1      47.660   3.733   7.372  0.00  0.00    +0.000 F 
ATOM     20  F   UNL     1      46.765   1.774   7.058  0.00  0.00    +0.000 F 
ENDBRANCH  16  17
ENDBRANCH  15  16
ENDBRANCH  12  15
ENDBRANCH   2   5
BRANCH   3  21
ATOM     21  C   UNL     1      47.260   7.192  11.558  0.00  0.00    +0.000 C 
BRANCH  21  22
ATOM     22  C   UNL     1      47.806   6.761  12.888  0.00  0.00    +0.000 A 
ATOM     23  C   UNL     1      48.808   7.478  13.543  0.00  0.00    +0.000 A 
ATOM     24  C   UNL     1      49.219   7.088  14.817  0.00  0.00    +0.000 A 
ATOM     25  C   UNL     1      48.633   5.972  15.407  0.00  0.00    +0.000 A 
ATOM     26  N   UNL     1      47.705   5.219  14.762  0.00  0.00    +0.000 NA
ATOM     27  C   UNL     1      47.323   5.624  13.528  0.00  0.00    +0.000 A 
BRANCH  25  28
ATOM     28  C   UNL     1      49.008   5.572  16.824  0.00  0.00    +0.000 C 
BRANCH  28  29
ATOM     29  N   UNL     1      49.565   4.224  16.966  0.00  0.00    +0.000 NA
ATOM     30  H   UNL     1      50.161   4.040  16.155  0.00  0.00    +0.000 HD
BRANCH  29  31
ATOM     31  C   UNL     1      50.416   4.083  18.162  0.00  0.00    +0.000 C 
BRANCH  31  32
ATOM     32  C   UNL     1      51.560   3.102  17.947  0.00  0.00    +0.000 A 
ATOM     33  N   UNL     1      52.820   3.580  18.058  0.00  0.00    +0.000 NA
ATOM     34  C   UNL     1      53.816   2.702  17.833  0.00  0.00    +0.000 A 
ATOM     35  C   UNL     1      53.606   1.383  17.515  0.00  0.00    +0.000 A 
ATOM     36  C   UNL     1      52.291   0.992  17.440  0.00  0.00    +0.000 A 
ATOM     37  N   UNL     1      51.253   1.821  17.654  0.00  0.00    +0.000 NA
ENDBRANCH  31  32
ENDBRANCH  29  31
ENDBRANCH  28  29
ENDBRANCH  25  28
ENDBRANCH  21  22
ENDBRANCH   3  21
TORSDOF 10
ENDMDL
MODEL 8
REMARK VINA RESULT:    -6.724      2.121      3.207
REMARK INTER + INTRA:         -12.577
REMARK INTER:                 -10.576
REMARK INTRA:                  -2.001
REMARK UNBOUND:                -1.922
REMARK  Name = 
REMARK  10 active torsions:
REMARK  status: ('A' for Active; 'I' for Inactive)
REMARK    1  A    between atoms: C_2  and  C_20
REMARK    2  A    between atoms: N_3  and  C_4
REMARK    3  A    between atoms: C_4  and  C_5
REMARK    4  A    between atoms: C_8  and  C_9
REMARK    5  A    between atoms: C_9  and  N_10
REMARK    6  A    between atoms: N_10  and  C_11
REMARK    7  A    between atoms: C_11  and  C_12
REMARK    8  A    between atoms: C_27  and  O_28
REMARK    9  A    between atoms: O_28  and  C_29
REMARK   10  A    between atoms: C_29  and  C_30
REMARK                            x       y       z     vdW  Elec       q    Type
REMARK                         _______ _______ _______ _____ _____    ______ ____
ROOT
ATOM      1  O   UNL     1      51.292   8.356  16.783  0.00  0.00    +0.000 OA
ATOM      2  C   UNL     1      50.764   7.281  16.588  0.00  0.00    +0.000 C 
ATOM      3  N   UNL     1      50.141   6.918  15.409  0.00  0.00    +0.000 N 
ATOM      4  H   UNL     1      50.131   5.924  15.220  0.00  0.00    +0.000 HD
ENDROOT
BRANCH   2   5
ATOM      5  C   UNL     1      50.914   6.125  17.464  0.00  0.00    +0.000 A 
ATOM      6  C   UNL     1      51.926   6.058  18.411  0.00  0.00    +0.000 A 
ATOM      7  N   UNL     1      52.245   4.733  18.535  0.00  0.00    +0.000 N 
ATOM      8  C   UNL     1      51.317   3.975  17.877  0.00  0.00    +0.000 A 
ATOM      9  N   UNL     1      51.413   2.650  17.722  0.00  0.00    +0.000 NA
ATOM     10  C   UNL     1      50.375   2.155  17.035  0.00  0.00    +0.000 A 
ATOM     11  N   UNL     1      49.292   2.821  16.596  0.00  0.00    +0.000 NA
ATOM     12  C   UNL     1      49.232   4.161  16.778  0.00  0.00    +0.000 A 
ATOM     13  C   UNL     1      50.333   4.813  17.370  0.00  0.00    +0.000 A 
ATOM     14  H   UNL     1      53.094   4.359  18.937  0.00  0.00    +0.000 HD
BRANCH  12  15
ATOM     15  O   UNL     1      48.111   4.732  16.217  0.00  0.00    +0.000 OA
BRANCH  15  16
ATOM     16  C   UNL     1      47.176   3.831  15.611  0.00  0.00    +0.000 C 
BRANCH  16  17
ATOM     17  C   UNL     1      46.821   4.233  14.172  0.00  0.00    +0.000 C 
ATOM     18  F   UNL     1      45.783   5.090  14.093  0.00  0.00    +0.000 F 
ATOM     19  F   UNL     1      47.877   4.821  13.559  0.00  0.00    +0.000 F 
ATOM     20  F   UNL     1      46.498   3.141  13.435  0.00  0.00    +0.000 F 
ENDBRANCH  16  17
ENDBRANCH  15  16
ENDBRANCH  12  15
ENDBRANCH   2   5
BRANCH   3  21
ATOM     21  C   UNL     1      50.217   7.769  14.259  0.00  0.00    +0.000 C 
BRANCH  21  22
ATOM     22  C   UNL     1      48.920   7.793  13.504  0.00  0.00    +0.000 A 
ATOM     23  C   UNL     1      48.832   7.390  12.171  0.00  0.00    +0.000 A 
ATOM     24  C   UNL     1      47.589   7.347  11.541  0.00  0.00    +0.000 A 
ATOM     25  C   UNL     1      46.455   7.728  12.251  0.00  0.00    +0.000 A 
ATOM     26  N   UNL     1      46.523   8.189  13.526  0.00  0.00    +0.000 NA
ATOM     27  C   UNL     1      47.743   8.215  14.114  0.00  0.00    +0.000 A 
BRANCH  25  28
ATOM     28  C   UNL     1      45.081   7.617  11.611  0.00  0.00    +0.000 C 
BRANCH  28  29
ATOM     29  N   UNL     1      44.993   6.694  10.477  0.00  0.00    +0.000 NA
ATOM     30  H   UNL     1      45.891   6.706   9.988  0.00  0.00    +0.000 HD
BRANCH  29  31
ATOM     31  C   UNL     1      44.754   5.300  10.896  0.00  0.00    +0.000 C 
BRANCH  31  32
ATOM     32  C   UNL     1      45.130   4.297   9.813  0.00  0.00    +0.000 A 
ATOM     33  N   UNL     1      44.804   3.001  10.024  0.00  0.00    +0.000 NA
ATOM     34  C   UNL     1      45.175   2.128   9.068  0.00  0.00    +0.000 A 
ATOM     35  C   UNL     1      45.839   2.492   7.923  0.00  0.00    +0.000 A 
ATOM     36  C   UNL     1      46.112   3.834   7.797  0.00  0.00    +0.000 A 
ATOM     37  N   UNL     1      45.768   4.754   8.716  0.00  0.00    +0.000 NA
ENDBRANCH  31  32
ENDBRANCH  29  31
ENDBRANCH  28  29
ENDBRANCH  25  28
ENDBRANCH  21  22
ENDBRANCH   3  21
TORSDOF 10
ENDMDL
MODEL 9
REMARK VINA RESULT:    -6.544      3.977      8.984
REMARK INTER + INTRA:         -12.292
REMARK INTER:                 -10.827
REMARK INTRA:                  -1.465
REMARK UNBOUND:                -1.922
REMARK  Name = 
REMARK  10 active torsions:
REMARK  status: ('A' for Active; 'I' for Inactive)
REMARK    1  A    between atoms: C_2  and  C_20
REMARK    2  A    between atoms: N_3  and  C_4
REMARK    3  A    between atoms: C_4  and  C_5
REMARK    4  A    between atoms: C_8  and  C_9
REMARK    5  A    between atoms: C_9  and  N_10
REMARK    6  A    between atoms: N_10  and  C_11
REMARK    7  A    between atoms: C_11  and  C_12
REMARK    8  A    between atoms: C_27  and  O_28
REMARK    9  A    between atoms: O_28  and  C_29
REMARK   10  A    between atoms: C_29  and  C_30
REMARK                            x       y       z     vdW  Elec       q    Type
REMARK                         _______ _______ _______ _____ _____    ______ ____
ROOT
ATOM      1  O   UNL     1      46.936   3.129  13.934  0.00  0.00    +0.000 OA
ATOM      2  C   UNL     1      46.998   4.222  14.457  0.00  0.00    +0.000 C 
ATOM      3  N   UNL     1      47.180   4.432  15.811  0.00  0.00    +0.000 N 
ATOM      4  H   UNL     1      47.627   5.309  16.050  0.00  0.00    +0.000 HD
ENDROOT
BRANCH   2   5
ATOM      5  C   UNL     1      47.136   5.474  13.722  0.00  0.00    +0.000 A 
ATOM      6  C   UNL     1      47.949   6.500  14.181  0.00  0.00    +0.000 A 
ATOM      7  N   UNL     1      47.369   7.665  13.759  0.00  0.00    +0.000 N 
ATOM      8  C   UNL     1      46.367   7.383  12.873  0.00  0.00    +0.000 A 
ATOM      9  N   UNL     1      45.540   8.304  12.368  0.00  0.00    +0.000 NA
ATOM     10  C   UNL     1      44.647   7.761  11.529  0.00  0.00    +0.000 A 
ATOM     11  N   UNL     1      44.576   6.481  11.125  0.00  0.00    +0.000 NA
ATOM     12  C   UNL     1      45.437   5.582  11.658  0.00  0.00    +0.000 A 
ATOM     13  C   UNL     1      46.335   6.012  12.655  0.00  0.00    +0.000 A 
ATOM     14  H   UNL     1      47.551   8.589  14.127  0.00  0.00    +0.000 HD
BRANCH  12  15
ATOM     15  O   UNL     1      45.211   4.295  11.219  0.00  0.00    +0.000 OA
BRANCH  15  16
ATOM     16  C   UNL     1      44.390   4.156  10.054  0.00  0.00    +0.000 C 
BRANCH  16  17
ATOM     17  C   UNL     1      45.198   3.771   8.807  0.00  0.00    +0.000 C 
ATOM     18  F   UNL     1      46.161   4.662   8.494  0.00  0.00    +0.000 F 
ATOM     19  F   UNL     1      45.798   2.568   8.971  0.00  0.00    +0.000 F 
ATOM     20  F   UNL     1      44.386   3.660   7.726  0.00  0.00    +0.000 F 
ENDBRANCH  16  17
ENDBRANCH  15  16
ENDBRANCH  12  15
ENDBRANCH   2   5
BRANCH   3  21
ATOM     21  C   UNL     1      47.464   3.332  16.682  0.00  0.00    +0.000 C 
BRANCH  21  22
ATOM     22  C   UNL     1      48.913   3.294  17.069  0.00  0.00    +0.000 A 
ATOM     23  C   UNL     1      49.581   4.423  17.547  0.00  0.00    +0.000 A 
ATOM     24  C   UNL     1      50.903   4.314  17.978  0.00  0.00    +0.000 A 
ATOM     25  C   UNL     1      51.542   3.081  17.903  0.00  0.00    +0.000 A 
ATOM     26  N   UNL     1      50.936   1.985  17.379  0.00  0.00    +0.000 NA
ATOM     27  C   UNL     1      49.651   2.118  16.973  0.00  0.00    +0.000 A 
BRANCH  25  28
ATOM     28  C   UNL     1      52.956   2.920  18.437  0.00  0.00    +0.000 C 
BRANCH  28  29
ATOM     29  N   UNL     1      54.021   3.086  17.445  0.00  0.00    +0.000 NA
ATOM     30  H   UNL     1      53.585   3.178  16.524  0.00  0.00    +0.000 HD
BRANCH  29  31
ATOM     31  C   UNL     1      54.818   4.307  17.665  0.00  0.00    +0.000 C 
BRANCH  31  32
ATOM     32  C   UNL     1      54.665   5.311  16.529  0.00  0.00    +0.000 A 
ATOM     33  N   UNL     1      55.569   5.258  15.525  0.00  0.00    +0.000 NA
ATOM     34  C   UNL     1      55.433   6.175  14.548  0.00  0.00    +0.000 A 
ATOM     35  C   UNL     1      54.439   7.122  14.530  0.00  0.00    +0.000 A 
ATOM     36  C   UNL     1      53.563   7.084  15.588  0.00  0.00    +0.000 A 
ATOM     37  N   UNL     1      53.646   6.194  16.594  0.00  0.00    +0.000 NA
ENDBRANCH  31  32
ENDBRANCH  29  31
ENDBRANCH  28  29
ENDBRANCH  25  28
ENDBRANCH  21  22
ENDBRANCH   3  21
TORSDOF 10
ENDMDL
