MODEL 1
REMARK VINA RESULT:    -9.008      0.000      0.000
REMARK INTER + INTRA:         -12.376
REMARK INTER:                 -11.641
REMARK INTRA:                  -0.735
REMARK UNBOUND:                -0.735
REMARK  Name = 
REMARK  9 active torsions:
REMARK  status: ('A' for Active; 'I' for Inactive)
REMARK    1  A    between atoms: C_1  and  C_2
REMARK    2  A    between atoms: C_2  and  C_3
REMARK    3  A    between atoms: C_5  and  N_6
REMARK    4  A    between atoms: C_9  and  C_10
REMARK    5  A    between atoms: C_10  and  C_11
REMARK    6  A    between atoms: C_10  and  C_12
REMARK    7  A    between atoms: C_10  and  C_13
REMARK    8  A    between atoms: C_13  and  N_14
REMARK    9  A    between atoms: C_18  and  C_19
REMARK                            x       y       z     vdW  Elec       q    Type
REMARK                         _______ _______ _______ _____ _____    ______ ____
ROOT
ATOM      1  C   UNL     1      43.740   5.839  11.596  0.00  0.00    +0.000 C 
ATOM      2  C   UNL     1      42.654   5.159  12.471  0.00  0.00    +0.000 C 
ATOM      3  C   UNL     1      43.358   7.327  11.426  0.00  0.00    +0.000 C 
ENDROOT
BRANCH   1   7
ATOM      4  N   UNL     1      46.520   4.334  15.437  0.00  0.00    +0.000 N 
ATOM      5  C   UNL     1      46.442   5.017  14.206  0.00  0.00    +0.000 A 
ATOM      6  C   UNL     1      45.201   5.139  13.582  0.00  0.00    +0.000 A 
ATOM      7  C   UNL     1      45.105   5.712  12.302  0.00  0.00    +0.000 A 
ATOM      8  C   UNL     1      46.307   6.131  11.719  0.00  0.00    +0.000 A 
ATOM      9  C   UNL     1      47.484   6.049  12.442  0.00  0.00    +0.000 A 
ATOM     10  N   UNL     1      47.573   5.499  13.662  0.00  0.00    +0.000 NA
ATOM     11  H   UNL     1      46.128   4.946  16.146  0.00  0.00    +0.000 HD
BRANCH   4  16
ATOM     12  C   UNL     1      50.149   2.761  17.465  0.00  0.00    +0.000 C 
ATOM     13  C   UNL     1      48.858   3.541  17.708  0.00  0.00    +0.000 C 
ATOM     14  C   UNL     1      48.707   3.940  19.173  0.00  0.00    +0.000 C 
ATOM     15  C   UNL     1      47.598   2.856  17.114  0.00  0.00    +0.000 C 
ATOM     16  C   UNL     1      47.762   3.743  15.853  0.00  0.00    +0.000 C 
ATOM     17  C   UNL     1      48.607   4.708  16.707  0.00  0.00    +0.000 C 
ENDBRANCH   4  16
ENDBRANCH   1   7
BRANCH   1  18
ATOM     18  C   UNL     1      43.670   5.153  10.195  0.00  0.00    +0.000 C 
BRANCH  18  19
ATOM     19  N   UNL     1      44.036   3.727  10.226  0.00  0.00    +0.000 N 
ATOM     20  C   UNL     1      44.934   3.364   9.210  0.00  0.00    +0.000 A 
ATOM     21  C   UNL     1      45.273   2.026   9.054  0.00  0.00    +0.000 A 
ATOM     22  C   UNL     1      46.201   1.662   8.072  0.00  0.00    +0.000 A 
ATOM     23  C   UNL     1      46.775   2.649   7.269  0.00  0.00    +0.000 A 
ATOM     24  C   UNL     1      46.386   3.954   7.500  0.00  0.00    +0.000 A 
ATOM     25  N   UNL     1      45.491   4.323   8.444  0.00  0.00    +0.000 NA
ATOM     26  H   UNL     1      43.240   3.101  10.217  0.00  0.00    +0.000 HD
BRANCH  23  27
ATOM     27  C   UNL     1      47.763   2.270   6.228  0.00  0.00    +0.000 C 
ATOM     28  N   UNL     1      47.787   2.959   5.052  0.00  0.00    +0.000 N 
ATOM     29  O   UNL     1      48.554   1.347   6.417  0.00  0.00    +0.000 OA
ATOM     30  H   UNL     1      47.199   3.737   4.803  0.00  0.00    +0.000 HD
ATOM     31  H   UNL     1      48.485   2.671   4.377  0.00  0.00    +0.000 HD
ENDBRANCH  23  27
ENDBRANCH  18  19
ENDBRANCH   1  18
TORSDOF 5
ENDMDL
MODEL 2
REMARK VINA RESULT:    -8.539      2.401      4.216
REMARK INTER + INTRA:         -11.769
REMARK INTER:                 -10.814
REMARK INTRA:                  -0.956
REMARK UNBOUND:                -0.735
REMARK  Name = 
REMARK  9 active torsions:
REMARK  status: ('A' for Active; 'I' for Inactive)
REMARK    1  A    between atoms: C_1  and  C_2
REMARK    2  A    between atoms: C_2  and  C_3
REMARK    3  A    between atoms: C_5  and  N_6
REMARK    4  A    between atoms: C_9  and  C_10
REMARK    5  A    between atoms: C_10  and  C_11
REMARK    6  A    between atoms: C_10  and  C_12
REMARK    7  A    between atoms: C_10  and  C_13
REMARK    8  A    between atoms: C_13  and  N_14
REMARK    9  A    between atoms: C_18  and  C_19
REMARK                            x       y       z     vdW  Elec       q    Type
REMARK                         _______ _______ _______ _____ _____    ______ ____
ROOT
ATOM      1  C   UNL     1      43.786   5.819  11.730  0.00  0.00    +0.000 C 
ATOM      2  C   UNL     1      42.952   5.051  12.789  0.00  0.00    +0.000 C 
ATOM      3  C   UNL     1      43.222   7.254  11.622  0.00  0.00    +0.000 C 
ENDROOT
BRANCH   1   7
ATOM      4  N   UNL     1      48.396   7.655  11.375  0.00  0.00    +0.000 N 
ATOM      5  C   UNL     1      47.517   6.722  11.962  0.00  0.00    +0.000 A 
ATOM      6  C   UNL     1      46.189   6.690  11.538  0.00  0.00    +0.000 A 
ATOM      7  C   UNL     1      45.260   5.853  12.181  0.00  0.00    +0.000 A 
ATOM      8  C   UNL     1      45.751   5.085  13.244  0.00  0.00    +0.000 A 
ATOM      9  C   UNL     1      47.101   5.116  13.546  0.00  0.00    +0.000 A 
ATOM     10  N   UNL     1      47.984   5.917  12.932  0.00  0.00    +0.000 NA
ATOM     11  H   UNL     1      48.612   7.319  10.442  0.00  0.00    +0.000 HD
BRANCH   4  16
ATOM     12  C   UNL     1      52.235   9.324  12.870  0.00  0.00    +0.000 C 
ATOM     13  C   UNL     1      51.364   9.200  11.621  0.00  0.00    +0.000 C 
ATOM     14  C   UNL     1      51.995   9.899  10.421  0.00  0.00    +0.000 C 
ATOM     15  C   UNL     1      49.879   9.585  11.859  0.00  0.00    +0.000 C 
ATOM     16  C   UNL     1      49.569   8.083  12.086  0.00  0.00    +0.000 C 
ATOM     17  C   UNL     1      50.865   7.755  11.319  0.00  0.00    +0.000 C 
ENDBRANCH   4  16
ENDBRANCH   1   7
BRANCH   1  18
ATOM     18  C   UNL     1      43.543   5.095  10.368  0.00  0.00    +0.000 C 
BRANCH  18  19
ATOM     19  N   UNL     1      43.943   3.677  10.384  0.00  0.00    +0.000 N 
ATOM     20  C   UNL     1      44.839   3.345   9.355  0.00  0.00    +0.000 A 
ATOM     21  C   UNL     1      45.208   2.016   9.184  0.00  0.00    +0.000 A 
ATOM     22  C   UNL     1      46.134   1.683   8.190  0.00  0.00    +0.000 A 
ATOM     23  C   UNL     1      46.676   2.690   7.389  0.00  0.00    +0.000 A 
ATOM     24  C   UNL     1      46.258   3.984   7.636  0.00  0.00    +0.000 A 
ATOM     25  N   UNL     1      45.365   4.323   8.592  0.00  0.00    +0.000 NA
ATOM     26  H   UNL     1      43.162   3.032  10.377  0.00  0.00    +0.000 HD
BRANCH  23  27
ATOM     27  C   UNL     1      47.662   2.344   6.335  0.00  0.00    +0.000 C 
ATOM     28  N   UNL     1      47.742   3.120   5.218  0.00  0.00    +0.000 N 
ATOM     29  O   UNL     1      48.402   1.369   6.461  0.00  0.00    +0.000 OA
ATOM     30  H   UNL     1      47.198   3.945   5.023  0.00  0.00    +0.000 HD
ATOM     31  H   UNL     1      48.436   2.851   4.532  0.00  0.00    +0.000 HD
ENDBRANCH  23  27
ENDBRANCH  18  19
ENDBRANCH   1  18
TORSDOF 5
ENDMDL
MODEL 3
REMARK VINA RESULT:    -7.451      2.277      3.036
REMARK INTER + INTRA:         -10.363
REMARK INTER:                  -9.780
REMARK INTRA:                  -0.584
REMARK UNBOUND:                -0.735
REMARK  Name = 
REMARK  9 active torsions:
REMARK  status: ('A' for Active; 'I' for Inactive)
REMARK    1  A    between atoms: C_1  and  C_2
REMARK    2  A    between atoms: C_2  and  C_3
REMARK    3  A    between atoms: C_5  and  N_6
REMARK    4  A    between atoms: C_9  and  C_10
REMARK    5  A    between atoms: C_10  and  C_11
REMARK    6  A    between atoms: C_10  and  C_12
REMARK    7  A    between atoms: C_10  and  C_13
REMARK    8  A    between atoms: C_13  and  N_14
REMARK    9  A    between atoms: C_18  and  C_19
REMARK                            x       y       z     vdW  Elec       q    Type
REMARK                         _______ _______ _______ _____ _____    ______ ____
ROOT
ATOM      1  C   UNL     1      43.913   5.869  11.868  0.00  0.00    +0.000 C 
ATOM      2  C   UNL     1      42.740   5.165  12.600  0.00  0.00    +0.000 C 
ATOM      3  C   UNL     1      43.573   7.372  11.749  0.00  0.00    +0.000 C 
ENDROOT
BRANCH   1   7
ATOM      4  N   UNL     1      48.183   7.616  13.728  0.00  0.00    +0.000 N 
ATOM      5  C   UNL     1      47.311   6.523  13.545  0.00  0.00    +0.000 A 
ATOM      6  C   UNL     1      46.152   6.706  12.792  0.00  0.00    +0.000 A 
ATOM      7  C   UNL     1      45.205   5.673  12.685  0.00  0.00    +0.000 A 
ATOM      8  C   UNL     1      45.501   4.489  13.372  0.00  0.00    +0.000 A 
ATOM      9  C   UNL     1      46.713   4.362  14.028  0.00  0.00    +0.000 A 
ATOM     10  N   UNL     1      47.613   5.351  14.129  0.00  0.00    +0.000 NA
ATOM     11  H   UNL     1      48.673   7.760  12.851  0.00  0.00    +0.000 HD
BRANCH   4  16
ATOM     12  C   UNL     1      51.289   8.317  16.830  0.00  0.00    +0.000 C 
ATOM     13  C   UNL     1      50.813   8.781  15.454  0.00  0.00    +0.000 C 
ATOM     14  C   UNL     1      51.685   9.906  14.905  0.00  0.00    +0.000 C 
ATOM     15  C   UNL     1      49.292   9.084  15.394  0.00  0.00    +0.000 C 
ATOM     16  C   UNL     1      49.069   7.646  14.858  0.00  0.00    +0.000 C 
ATOM     17  C   UNL     1      50.551   7.632  14.436  0.00  0.00    +0.000 C 
ENDBRANCH   4  16
ENDBRANCH   1   7
BRANCH   1  18
ATOM     18  C   UNL     1      43.960   5.263  10.429  0.00  0.00    +0.000 C 
BRANCH  18  19
ATOM     19  N   UNL     1      44.266   3.822  10.414  0.00  0.00    +0.000 N 
ATOM     20  C   UNL     1      45.056   3.437   9.320  0.00  0.00    +0.000 A 
ATOM     21  C   UNL     1      45.323   2.087   9.121  0.00  0.00    +0.000 A 
ATOM     22  C   UNL     1      46.145   1.699   8.058  0.00  0.00    +0.000 A 
ATOM     23  C   UNL     1      46.689   2.672   7.217  0.00  0.00    +0.000 A 
ATOM     24  C   UNL     1      46.377   3.989   7.494  0.00  0.00    +0.000 A 
ATOM     25  N   UNL     1      45.585   4.382   8.517  0.00  0.00    +0.000 NA
ATOM     26  H   UNL     1      43.447   3.230  10.469  0.00  0.00    +0.000 HD
BRANCH  23  27
ATOM     27  C   UNL     1      47.565   2.267   6.090  0.00  0.00    +0.000 C 
ATOM     28  N   UNL     1      47.466   2.925   4.901  0.00  0.00    +0.000 N 
ATOM     29  O   UNL     1      48.373   1.349   6.220  0.00  0.00    +0.000 OA
ATOM     30  H   UNL     1      46.852   3.696   4.693  0.00  0.00    +0.000 HD
ATOM     31  H   UNL     1      48.091   2.620   4.164  0.00  0.00    +0.000 HD
ENDBRANCH  23  27
ENDBRANCH  18  19
ENDBRANCH   1  18
TORSDOF 5
ENDMDL
MODEL 4
REMARK VINA RESULT:    -6.471      4.790      7.374
REMARK INTER + INTRA:          -9.097
REMARK INTER:                  -8.386
REMARK INTRA:                  -0.711
REMARK UNBOUND:                -0.735
REMARK  Name = 
REMARK  9 active torsions:
REMARK  status: ('A' for Active; 'I' for Inactive)
REMARK    1  A    between atoms: C_1  and  C_2
REMARK    2  A    between atoms: C_2  and  C_3
REMARK    3  A    between atoms: C_5  and  N_6
REMARK    4  A    between atoms: C_9  and  C_10
REMARK    5  A    between atoms: C_10  and  C_11
REMARK    6  A    between atoms: C_10  and  C_12
REMARK    7  A    between atoms: C_10  and  C_13
REMARK    8  A    between atoms: C_13  and  N_14
REMARK    9  A    between atoms: C_18  and  C_19
REMARK                            x       y       z     vdW  Elec       q    Type
REMARK                         _______ _______ _______ _____ _____    ______ ____
ROOT
ATOM      1  C   UNL     1      48.353   9.204  12.458  0.00  0.00    +0.000 C 
ATOM      2  C   UNL     1      48.548   8.941  13.975  0.00  0.00    +0.000 C 
ATOM      3  C   UNL     1      47.648  10.569  12.294  0.00  0.00    +0.000 C 
ENDROOT
BRANCH   1   7
ATOM      4  N   UNL     1      52.159   6.854  10.280  0.00  0.00    +0.000 N 
ATOM      5  C   UNL     1      51.607   8.061  10.757  0.00  0.00    +0.000 A 
ATOM      6  C   UNL     1      50.364   8.030  11.388  0.00  0.00    +0.000 A 
ATOM      7  C   UNL     1      49.733   9.226  11.772  0.00  0.00    +0.000 A 
ATOM      8  C   UNL     1      50.421  10.410  11.477  0.00  0.00    +0.000 A 
ATOM      9  C   UNL     1      51.687  10.348  10.923  0.00  0.00    +0.000 A 
ATOM     10  N   UNL     1      52.285   9.205  10.556  0.00  0.00    +0.000 NA
ATOM     11  H   UNL     1      52.487   6.334  11.088  0.00  0.00    +0.000 HD
BRANCH   4  16
ATOM     12  C   UNL     1      54.780   6.242   6.743  0.00  0.00    +0.000 C 
ATOM     13  C   UNL     1      53.615   5.628   7.518  0.00  0.00    +0.000 C 
ATOM     14  C   UNL     1      53.130   4.333   6.875  0.00  0.00    +0.000 C 
ATOM     15  C   UNL     1      52.477   6.637   7.829  0.00  0.00    +0.000 C 
ATOM     16  C   UNL     1      53.125   6.876   9.217  0.00  0.00    +0.000 C 
ATOM     17  C   UNL     1      53.843   5.522   9.056  0.00  0.00    +0.000 C 
ENDBRANCH   4  16
ENDBRANCH   1   7
BRANCH   1  18
ATOM     18  C   UNL     1      47.390   8.090  11.938  0.00  0.00    +0.000 C 
BRANCH  18  19
ATOM     19  N   UNL     1      47.119   7.042  12.937  0.00  0.00    +0.000 N 
ATOM     20  C   UNL     1      46.313   6.004  12.444  0.00  0.00    +0.000 A 
ATOM     21  C   UNL     1      45.886   5.008  13.314  0.00  0.00    +0.000 A 
ATOM     22  C   UNL     1      45.120   3.947  12.821  0.00  0.00    +0.000 A 
ATOM     23  C   UNL     1      44.801   3.901  11.463  0.00  0.00    +0.000 A 
ATOM     24  C   UNL     1      45.275   4.929  10.670  0.00  0.00    +0.000 A 
ATOM     25  N   UNL     1      46.017   5.961  11.130  0.00  0.00    +0.000 NA
ATOM     26  H   UNL     1      46.729   7.394  13.803  0.00  0.00    +0.000 HD
BRANCH  23  27
ATOM     27  C   UNL     1      43.991   2.776  10.933  0.00  0.00    +0.000 C 
ATOM     28  N   UNL     1      44.404   2.134   9.804  0.00  0.00    +0.000 N 
ATOM     29  O   UNL     1      42.960   2.421  11.501  0.00  0.00    +0.000 OA
ATOM     30  H   UNL     1      45.237   2.332   9.273  0.00  0.00    +0.000 HD
ATOM     31  H   UNL     1      43.825   1.366   9.486  0.00  0.00    +0.000 HD
ENDBRANCH  23  27
ENDBRANCH  18  19
ENDBRANCH   1  18
TORSDOF 5
ENDMDL
MODEL 5
REMARK VINA RESULT:    -6.428      3.151      4.818
REMARK INTER + INTRA:          -9.042
REMARK INTER:                  -8.262
REMARK INTRA:                  -0.780
REMARK UNBOUND:                -0.735
REMARK  Name = 
REMARK  9 active torsions:
REMARK  status: ('A' for Active; 'I' for Inactive)
REMARK    1  A    between atoms: C_1  and  C_2
REMARK    2  A    between atoms: C_2  and  C_3
REMARK    3  A    between atoms: C_5  and  N_6
REMARK    4  A    between atoms: C_9  and  C_10
REMARK    5  A    between atoms: C_10  and  C_11
REMARK    6  A    between atoms: C_10  and  C_12
REMARK    7  A    between atoms: C_10  and  C_13
REMARK    8  A    between atoms: C_13  and  N_14
REMARK    9  A    between atoms: C_18  and  C_19
REMARK                            x       y       z     vdW  Elec       q    Type
REMARK                         _______ _______ _______ _____ _____    ______ ____
ROOT
ATOM      1  C   UNL     1      48.080   8.480  12.570  0.00  0.00    +0.000 C 
ATOM      2  C   UNL     1      48.526   9.912  12.176  0.00  0.00    +0.000 C 
ATOM      3  C   UNL     1      48.907   7.472  11.739  0.00  0.00    +0.000 C 
ENDROOT
BRANCH   1   7
ATOM      4  N   UNL     1      49.213   5.537  16.418  0.00  0.00    +0.000 N 
ATOM      5  C   UNL     1      48.838   6.814  15.952  0.00  0.00    +0.000 A 
ATOM      6  C   UNL     1      48.597   6.990  14.590  0.00  0.00    +0.000 A 
ATOM      7  C   UNL     1      48.334   8.271  14.076  0.00  0.00    +0.000 A 
ATOM      8  C   UNL     1      48.337   9.322  15.002  0.00  0.00    +0.000 A 
ATOM      9  C   UNL     1      48.504   9.049  16.348  0.00  0.00    +0.000 A 
ATOM     10  N   UNL     1      48.756   7.825  16.835  0.00  0.00    +0.000 NA
ATOM     11  H   UNL     1      48.381   4.955  16.403  0.00  0.00    +0.000 HD
BRANCH   4  16
ATOM     12  C   UNL     1      51.861   4.524  19.841  0.00  0.00    +0.000 C 
ATOM     13  C   UNL     1      51.490   4.102  18.420  0.00  0.00    +0.000 C 
ATOM     14  C   UNL     1      52.311   2.904  17.955  0.00  0.00    +0.000 C 
ATOM     15  C   UNL     1      51.473   5.279  17.409  0.00  0.00    +0.000 C 
ATOM     16  C   UNL     1      49.946   5.408  17.646  0.00  0.00    +0.000 C 
ATOM     17  C   UNL     1      49.960   3.956  18.165  0.00  0.00    +0.000 C 
ENDBRANCH   4  16
ENDBRANCH   1   7
BRANCH   1  18
ATOM     18  C   UNL     1      46.583   8.352  12.143  0.00  0.00    +0.000 C 
BRANCH  18  19
ATOM     19  N   UNL     1      45.772   7.572  13.093  0.00  0.00    +0.000 N 
ATOM     20  C   UNL     1      45.267   6.383  12.543  0.00  0.00    +0.000 A 
ATOM     21  C   UNL     1      44.392   5.609  13.294  0.00  0.00    +0.000 A 
ATOM     22  C   UNL     1      43.920   4.401  12.769  0.00  0.00    +0.000 A 
ATOM     23  C   UNL     1      44.340   3.990  11.503  0.00  0.00    +0.000 A 
ATOM     24  C   UNL     1      45.218   4.818  10.831  0.00  0.00    +0.000 A 
ATOM     25  N   UNL     1      45.684   5.988  11.323  0.00  0.00    +0.000 NA
ATOM     26  H   UNL     1      45.017   8.099  13.515  0.00  0.00    +0.000 HD
BRANCH  23  27
ATOM     27  C   UNL     1      43.845   2.707  10.942  0.00  0.00    +0.000 C 
ATOM     28  N   UNL     1      44.446   2.190   9.834  0.00  0.00    +0.000 N 
ATOM     29  O   UNL     1      42.905   2.112  11.467  0.00  0.00    +0.000 OA
ATOM     30  H   UNL     1      45.229   2.586   9.338  0.00  0.00    +0.000 HD
ATOM     31  H   UNL     1      44.082   1.309   9.494  0.00  0.00    +0.000 HD
ENDBRANCH  23  27
ENDBRANCH  18  19
ENDBRANCH   1  18
TORSDOF 5
ENDMDL
MODEL 6
REMARK VINA RESULT:    -6.424      2.993      8.215
REMARK INTER + INTRA:          -9.037
REMARK INTER:                  -8.099
REMARK INTRA:                  -0.938
REMARK UNBOUND:                -0.735
REMARK  Name = 
REMARK  9 active torsions:
REMARK  status: ('A' for Active; 'I' for Inactive)
REMARK    1  A    between atoms: C_1  and  C_2
REMARK    2  A    between atoms: C_2  and  C_3
REMARK    3  A    between atoms: C_5  and  N_6
REMARK    4  A    between atoms: C_9  and  C_10
REMARK    5  A    between atoms: C_10  and  C_11
REMARK    6  A    between atoms: C_10  and  C_12
REMARK    7  A    between atoms: C_10  and  C_13
REMARK    8  A    between atoms: C_13  and  N_14
REMARK    9  A    between atoms: C_18  and  C_19
REMARK                            x       y       z     vdW  Elec       q    Type
REMARK                         _______ _______ _______ _____ _____    ______ ____
ROOT
ATOM      1  C   UNL     1      48.196   8.512  12.704  0.00  0.00    +0.000 C 
ATOM      2  C   UNL     1      48.729   9.205  11.422  0.00  0.00    +0.000 C 
ATOM      3  C   UNL     1      47.780   9.611  13.708  0.00  0.00    +0.000 C 
ENDROOT
BRANCH   1   7
ATOM      4  N   UNL     1      45.841   5.460   9.559  0.00  0.00    +0.000 N 
ATOM      5  C   UNL     1      45.823   6.188  10.767  0.00  0.00    +0.000 A 
ATOM      6  C   UNL     1      46.918   6.988  11.087  0.00  0.00    +0.000 A 
ATOM      7  C   UNL     1      46.983   7.636  12.333  0.00  0.00    +0.000 A 
ATOM      8  C   UNL     1      45.904   7.419  13.200  0.00  0.00    +0.000 A 
ATOM      9  C   UNL     1      44.819   6.677  12.771  0.00  0.00    +0.000 A 
ATOM     10  N   UNL     1      44.761   6.059  11.582  0.00  0.00    +0.000 NA
ATOM     11  H   UNL     1      45.686   6.123   8.806  0.00  0.00    +0.000 HD
BRANCH   4  16
ATOM     12  C   UNL     1      44.032   1.464   8.843  0.00  0.00    +0.000 C 
ATOM     13  C   UNL     1      45.328   2.260   8.695  0.00  0.00    +0.000 C 
ATOM     14  C   UNL     1      46.445   1.411   8.097  0.00  0.00    +0.000 C 
ATOM     15  C   UNL     1      45.740   3.018   9.986  0.00  0.00    +0.000 C 
ATOM     16  C   UNL     1      45.036   4.279   9.420  0.00  0.00    +0.000 C 
ATOM     17  C   UNL     1      45.161   3.652   8.017  0.00  0.00    +0.000 C 
ENDBRANCH   4  16
ENDBRANCH   1   7
BRANCH   1  18
ATOM     18  C   UNL     1      49.400   7.725  13.312  0.00  0.00    +0.000 C 
BRANCH  18  19
ATOM     19  N   UNL     1      49.542   7.910  14.766  0.00  0.00    +0.000 N 
ATOM     20  C   UNL     1      48.979   6.864  15.514  0.00  0.00    +0.000 A 
ATOM     21  C   UNL     1      48.942   6.967  16.899  0.00  0.00    +0.000 A 
ATOM     22  C   UNL     1      48.423   5.909  17.653  0.00  0.00    +0.000 A 
ATOM     23  C   UNL     1      47.956   4.765  17.003  0.00  0.00    +0.000 A 
ATOM     24  C   UNL     1      48.040   4.746  15.624  0.00  0.00    +0.000 A 
ATOM     25  N   UNL     1      48.539   5.759  14.881  0.00  0.00    +0.000 NA
ATOM     26  H   UNL     1      49.188   8.798  15.101  0.00  0.00    +0.000 HD
BRANCH  23  27
ATOM     27  C   UNL     1      47.407   3.638  17.798  0.00  0.00    +0.000 C 
ATOM     28  N   UNL     1      48.008   3.299  18.973  0.00  0.00    +0.000 N 
ATOM     29  O   UNL     1      46.422   3.014  17.408  0.00  0.00    +0.000 OA
ATOM     30  H   UNL     1      48.805   3.753  19.390  0.00  0.00    +0.000 HD
ATOM     31  H   UNL     1      47.592   2.531  19.486  0.00  0.00    +0.000 HD
ENDBRANCH  23  27
ENDBRANCH  18  19
ENDBRANCH   1  18
TORSDOF 5
ENDMDL
MODEL 7
REMARK VINA RESULT:    -6.260      3.905      8.646
REMARK INTER + INTRA:          -8.825
REMARK INTER:                  -8.124
REMARK INTRA:                  -0.701
REMARK UNBOUND:                -0.735
REMARK  Name = 
REMARK  9 active torsions:
REMARK  status: ('A' for Active; 'I' for Inactive)
REMARK    1  A    between atoms: C_1  and  C_2
REMARK    2  A    between atoms: C_2  and  C_3
REMARK    3  A    between atoms: C_5  and  N_6
REMARK    4  A    between atoms: C_9  and  C_10
REMARK    5  A    between atoms: C_10  and  C_11
REMARK    6  A    between atoms: C_10  and  C_12
REMARK    7  A    between atoms: C_10  and  C_13
REMARK    8  A    between atoms: C_13  and  N_14
REMARK    9  A    between atoms: C_18  and  C_19
REMARK                            x       y       z     vdW  Elec       q    Type
REMARK                         _______ _______ _______ _____ _____    ______ ____
ROOT
ATOM      1  C   UNL     1      49.773   8.957  17.224  0.00  0.00    +0.000 C 
ATOM      2  C   UNL     1      51.005   9.888  17.077  0.00  0.00    +0.000 C 
ATOM      3  C   UNL     1      48.555   9.828  17.607  0.00  0.00    +0.000 C 
ENDROOT
BRANCH   1   7
ATOM      4  N   UNL     1      47.158   5.795  14.411  0.00  0.00    +0.000 N 
ATOM      5  C   UNL     1      48.268   6.656  14.535  0.00  0.00    +0.000 A 
ATOM      6  C   UNL     1      48.495   7.289  15.757  0.00  0.00    +0.000 A 
ATOM      7  C   UNL     1      49.522   8.241  15.882  0.00  0.00    +0.000 A 
ATOM      8  C   UNL     1      50.270   8.500  14.727  0.00  0.00    +0.000 A 
ATOM      9  C   UNL     1      50.032   7.767  13.578  0.00  0.00    +0.000 A 
ATOM     10  N   UNL     1      49.050   6.861  13.461  0.00  0.00    +0.000 NA
ATOM     11  H   UNL     1      47.384   4.940  14.909  0.00  0.00    +0.000 HD
BRANCH   4  16
ATOM     12  C   UNL     1      44.698   4.939  10.810  0.00  0.00    +0.000 C 
ATOM     13  C   UNL     1      44.626   5.087  12.328  0.00  0.00    +0.000 C 
ATOM     14  C   UNL     1      43.205   4.888  12.847  0.00  0.00    +0.000 C 
ATOM     15  C   UNL     1      45.311   6.375  12.859  0.00  0.00    +0.000 C 
ATOM     16  C   UNL     1      46.591   5.538  13.117  0.00  0.00    +0.000 C 
ATOM     17  C   UNL     1      45.702   4.278  13.112  0.00  0.00    +0.000 C 
ENDBRANCH   4  16
ENDBRANCH   1   7
BRANCH   1  18
ATOM     18  C   UNL     1      50.084   8.001  18.419  0.00  0.00    +0.000 C 
BRANCH  18  19
ATOM     19  N   UNL     1      51.346   7.258  18.256  0.00  0.00    +0.000 N 
ATOM     20  C   UNL     1      51.153   5.893  17.994  0.00  0.00    +0.000 A 
ATOM     21  C   UNL     1      52.260   5.054  17.932  0.00  0.00    +0.000 A 
ATOM     22  C   UNL     1      52.079   3.701  17.627  0.00  0.00    +0.000 A 
ATOM     23  C   UNL     1      50.793   3.215  17.384  0.00  0.00    +0.000 A 
ATOM     24  C   UNL     1      49.754   4.122  17.458  0.00  0.00    +0.000 A 
ATOM     25  N   UNL     1      49.910   5.433  17.751  0.00  0.00    +0.000 NA
ATOM     26  H   UNL     1      51.987   7.369  19.032  0.00  0.00    +0.000 HD
BRANCH  23  27
ATOM     27  C   UNL     1      50.596   1.781  17.056  0.00  0.00    +0.000 C 
ATOM     28  N   UNL     1      51.302   0.839  17.742  0.00  0.00    +0.000 N 
ATOM     29  O   UNL     1      49.805   1.439  16.178  0.00  0.00    +0.000 OA
ATOM     30  H   UNL     1      51.960   1.009  18.486  0.00  0.00    +0.000 HD
ATOM     31  H   UNL     1      51.127  -0.126  17.491  0.00  0.00    +0.000 HD
ENDBRANCH  23  27
ENDBRANCH  18  19
ENDBRANCH   1  18
TORSDOF 5
ENDMDL
MODEL 8
REMARK VINA RESULT:    -6.121      3.485      8.629
REMARK INTER + INTRA:          -8.645
REMARK INTER:                  -8.309
REMARK INTRA:                  -0.337
REMARK UNBOUND:                -0.735
REMARK  Name = 
REMARK  9 active torsions:
REMARK  status: ('A' for Active; 'I' for Inactive)
REMARK    1  A    between atoms: C_1  and  C_2
REMARK    2  A    between atoms: C_2  and  C_3
REMARK    3  A    between atoms: C_5  and  N_6
REMARK    4  A    between atoms: C_9  and  C_10
REMARK    5  A    between atoms: C_10  and  C_11
REMARK    6  A    between atoms: C_10  and  C_12
REMARK    7  A    between atoms: C_10  and  C_13
REMARK    8  A    between atoms: C_13  and  N_14
REMARK    9  A    between atoms: C_18  and  C_19
REMARK                            x       y       z     vdW  Elec       q    Type
REMARK                         _______ _______ _______ _____ _____    ______ ____
ROOT
ATOM      1  C   UNL     1      48.280   8.194  12.749  0.00  0.00    +0.000 C 
ATOM      2  C   UNL     1      49.560   7.837  11.948  0.00  0.00    +0.000 C 
ATOM      3  C   UNL     1      47.676   9.480  12.142  0.00  0.00    +0.000 C 
ENDROOT
BRANCH   1   7
ATOM      4  N   UNL     1      44.998   5.513  10.144  0.00  0.00    +0.000 N 
ATOM      5  C   UNL     1      45.642   5.757  11.374  0.00  0.00    +0.000 A 
ATOM      6  C   UNL     1      46.535   6.824  11.466  0.00  0.00    +0.000 A 
ATOM      7  C   UNL     1      47.279   7.026  12.641  0.00  0.00    +0.000 A 
ATOM      8  C   UNL     1      47.067   6.105  13.675  0.00  0.00    +0.000 A 
ATOM      9  C   UNL     1      46.101   5.124  13.531  0.00  0.00    +0.000 A 
ATOM     10  N   UNL     1      45.394   4.933  12.407  0.00  0.00    +0.000 NA
ATOM     11  H   UNL     1      44.288   6.229  10.028  0.00  0.00    +0.000 HD
BRANCH   4  16
ATOM     12  C   UNL     1      44.171   1.350   8.823  0.00  0.00    +0.000 C 
ATOM     13  C   UNL     1      45.205   2.472   8.742  0.00  0.00    +0.000 C 
ATOM     14  C   UNL     1      46.426   2.056   7.929  0.00  0.00    +0.000 C 
ATOM     15  C   UNL     1      45.553   3.094  10.121  0.00  0.00    +0.000 C 
ATOM     16  C   UNL     1      44.502   4.199   9.842  0.00  0.00    +0.000 C 
ATOM     17  C   UNL     1      44.625   3.862   8.343  0.00  0.00    +0.000 C 
ENDBRANCH   4  16
ENDBRANCH   1   7
BRANCH   1  18
ATOM     18  C   UNL     1      48.746   8.513  14.205  0.00  0.00    +0.000 C 
BRANCH  18  19
ATOM     19  N   UNL     1      50.166   8.200  14.443  0.00  0.00    +0.000 N 
ATOM     20  C   UNL     1      50.360   7.272  15.478  0.00  0.00    +0.000 A 
ATOM     21  C   UNL     1      51.656   6.974  15.884  0.00  0.00    +0.000 A 
ATOM     22  C   UNL     1      51.859   6.017  16.884  0.00  0.00    +0.000 A 
ATOM     23  C   UNL     1      50.760   5.373  17.455  0.00  0.00    +0.000 A 
ATOM     24  C   UNL     1      49.510   5.726  16.984  0.00  0.00    +0.000 A 
ATOM     25  N   UNL     1      49.295   6.647  16.018  0.00  0.00    +0.000 NA
ATOM     26  H   UNL     1      50.742   9.017  14.605  0.00  0.00    +0.000 HD
BRANCH  23  27
ATOM     27  C   UNL     1      50.970   4.355  18.513  0.00  0.00    +0.000 C 
ATOM     28  N   UNL     1      49.918   3.980  19.294  0.00  0.00    +0.000 N 
ATOM     29  O   UNL     1      52.078   3.849  18.690  0.00  0.00    +0.000 OA
ATOM     30  H   UNL     1      48.971   4.318  19.224  0.00  0.00    +0.000 HD
ATOM     31  H   UNL     1      50.107   3.275  19.996  0.00  0.00    +0.000 HD
ENDBRANCH  23  27
ENDBRANCH  18  19
ENDBRANCH   1  18
TORSDOF 5
ENDMDL
MODEL 9
REMARK VINA RESULT:    -6.065      3.721      8.488
REMARK INTER + INTRA:          -8.572
REMARK INTER:                  -7.539
REMARK INTRA:                  -1.033
REMARK UNBOUND:                -0.735
REMARK  Name = 
REMARK  9 active torsions:
REMARK  status: ('A' for Active; 'I' for Inactive)
REMARK    1  A    between atoms: C_1  and  C_2
REMARK    2  A    between atoms: C_2  and  C_3
REMARK    3  A    between atoms: C_5  and  N_6
REMARK    4  A    between atoms: C_9  and  C_10
REMARK    5  A    between atoms: C_10  and  C_11
REMARK    6  A    between atoms: C_10  and  C_12
REMARK    7  A    between atoms: C_10  and  C_13
REMARK    8  A    between atoms: C_13  and  N_14
REMARK    9  A    between atoms: C_18  and  C_19
REMARK                            x       y       z     vdW  Elec       q    Type
REMARK                         _______ _______ _______ _____ _____    ______ ____
ROOT
ATOM      1  C   UNL     1      50.434   9.233  14.114  0.00  0.00    +0.000 C 
ATOM      2  C   UNL     1      51.504   8.295  13.496  0.00  0.00    +0.000 C 
ATOM      3  C   UNL     1      50.883  10.693  13.881  0.00  0.00    +0.000 C 
ENDROOT
BRANCH   1   7
ATOM      4  N   UNL     1      47.067   6.111  12.199  0.00  0.00    +0.000 N 
ATOM      5  C   UNL     1      47.467   7.440  12.449  0.00  0.00    +0.000 A 
ATOM      6  C   UNL     1      48.700   7.668  13.059  0.00  0.00    +0.000 A 
ATOM      7  C   UNL     1      49.079   8.971  13.427  0.00  0.00    +0.000 A 
ATOM      8  C   UNL     1      48.155   9.986  13.148  0.00  0.00    +0.000 A 
ATOM      9  C   UNL     1      46.990   9.684  12.466  0.00  0.00    +0.000 A 
ATOM     10  N   UNL     1      46.630   8.439  12.118  0.00  0.00    +0.000 NA
ATOM     11  H   UNL     1      47.614   5.775  11.413  0.00  0.00    +0.000 HD
BRANCH   4  16
ATOM     12  C   UNL     1      43.015   4.472  11.394  0.00  0.00    +0.000 C 
ATOM     13  C   UNL     1      44.502   4.221  11.149  0.00  0.00    +0.000 C 
ATOM     14  C   UNL     1      44.734   2.945  10.347  0.00  0.00    +0.000 C 
ATOM     15  C   UNL     1      45.367   4.319  12.434  0.00  0.00    +0.000 C 
ATOM     16  C   UNL     1      45.672   5.794  12.067  0.00  0.00    +0.000 C 
ATOM     17  C   UNL     1      45.288   5.455  10.613  0.00  0.00    +0.000 C 
ENDBRANCH   4  16
ENDBRANCH   1   7
BRANCH   1  18
ATOM     18  C   UNL     1      50.442   8.958  15.651  0.00  0.00    +0.000 C 
BRANCH  18  19
ATOM     19  N   UNL     1      51.177   7.735  16.020  0.00  0.00    +0.000 N 
ATOM     20  C   UNL     1      50.346   6.722  16.523  0.00  0.00    +0.000 A 
ATOM     21  C   UNL     1      50.922   5.558  17.015  0.00  0.00    +0.000 A 
ATOM     22  C   UNL     1      50.099   4.526  17.478  0.00  0.00    +0.000 A 
ATOM     23  C   UNL     1      48.712   4.679  17.433  0.00  0.00    +0.000 A 
ATOM     24  C   UNL     1      48.227   5.866  16.920  0.00  0.00    +0.000 A 
ATOM     25  N   UNL     1      49.008   6.873  16.468  0.00  0.00    +0.000 NA
ATOM     26  H   UNL     1      51.944   7.897  16.661  0.00  0.00    +0.000 HD
BRANCH  23  27
ATOM     27  C   UNL     1      47.833   3.587  17.919  0.00  0.00    +0.000 C 
ATOM     28  N   UNL     1      48.191   2.893  19.036  0.00  0.00    +0.000 N 
ATOM     29  O   UNL     1      46.792   3.305  17.327  0.00  0.00    +0.000 OA
ATOM     30  H   UNL     1      49.009   3.051  19.602  0.00  0.00    +0.000 HD
ATOM     31  H   UNL     1      47.555   2.163  19.335  0.00  0.00    +0.000 HD
ENDBRANCH  23  27
ENDBRANCH  18  19
ENDBRANCH   1  18
TORSDOF 5
ENDMDL
