MODEL 1
REMARK VINA RESULT:    -8.444      0.000      0.000
REMARK INTER + INTRA:         -12.392
REMARK INTER:                 -11.899
REMARK INTRA:                  -0.493
REMARK UNBOUND:                -0.493
REMARK  Name = 
REMARK  10 active torsions:
REMARK  status: ('A' for Active; 'I' for Inactive)
REMARK    1  A    between atoms: C_1  and  O_2
REMARK    2  A    between atoms: O_2  and  C_3
REMARK    3  A    between atoms: C_6  and  N_7
REMARK    4  A    between atoms: C_14  and  C_15
REMARK    5  A    between atoms: C_15  and  C_16
REMARK    6  A    between atoms: C_15  and  C_17
REMARK    7  A    between atoms: C_15  and  C_18
REMARK    8  A    between atoms: C_18  and  N_19
REMARK    9  A    between atoms: N_19  and  C_20
REMARK   10  A    between atoms: C_23  and  C_24
REMARK                            x       y       z     vdW  Elec       q    Type
REMARK                         _______ _______ _______ _____ _____    ______ ____
ROOT
ATOM      1  C   UNL     1      44.306   4.797  12.397  0.00  0.00    +0.000 C 
ATOM      2  C   UNL     1      44.614   3.282  12.537  0.00  0.00    +0.000 C 
ATOM      3  C   UNL     1      43.042   5.139  13.224  0.00  0.00    +0.000 C 
ENDROOT
BRANCH   1   9
ATOM      4  C   UNL     1      45.981   6.851  12.524  0.00  0.00    +0.000 A 
ATOM      5  C   UNL     1      47.140   7.410  13.078  0.00  0.00    +0.000 A 
ATOM      6  C   UNL     1      47.848   6.758  14.092  0.00  0.00    +0.000 A 
ATOM      7  C   UNL     1      47.424   5.532  14.593  0.00  0.00    +0.000 A 
ATOM      8  C   UNL     1      46.275   4.976  14.009  0.00  0.00    +0.000 A 
ATOM      9  C   UNL     1      45.527   5.591  12.969  0.00  0.00    +0.000 A 
BRANCH   7  10
ATOM     10  N   UNL     1      48.066   4.881  15.627  0.00  0.00    +0.000 N 
ATOM     11  C   UNL     1      47.770   3.491  16.005  0.00  0.00    +0.000 C 
ATOM     12  C   UNL     1      47.127   3.432  17.397  0.00  0.00    +0.000 C 
ATOM     13  O   UNL     1      47.928   4.112  18.378  0.00  0.00    +0.000 OA
ATOM     14  C   UNL     1      48.091   5.494  18.015  0.00  0.00    +0.000 C 
ATOM     15  C   UNL     1      48.791   5.647  16.654  0.00  0.00    +0.000 C 
ENDBRANCH   7  10
BRANCH   4  17
ATOM     16  C   UNL     1      45.036   8.927  11.784  0.00  0.00    +0.000 C 
ATOM     17  O   UNL     1      45.230   7.529  11.605  0.00  0.00    +0.000 OA
ENDBRANCH   4  17
ENDBRANCH   1   9
BRANCH   1  18
ATOM     18  C   UNL     1      44.017   5.080  10.889  0.00  0.00    +0.000 C 
BRANCH  18  19
ATOM     19  N   UNL     1      43.696   3.886  10.079  0.00  0.00    +0.000 N 
ATOM     20  H   UNL     1      42.828   3.999   9.564  0.00  0.00    +0.000 HD
BRANCH  19  21
ATOM     21  C   UNL     1      44.716   3.448   9.208  0.00  0.00    +0.000 A 
ATOM     22  C   UNL     1      45.075   2.101   9.069  0.00  0.00    +0.000 A 
ATOM     23  C   UNL     1      46.063   1.701   8.166  0.00  0.00    +0.000 A 
ATOM     24  C   UNL     1      46.684   2.640   7.343  0.00  0.00    +0.000 A 
ATOM     25  C   UNL     1      46.311   3.985   7.435  0.00  0.00    +0.000 A 
ATOM     26  C   UNL     1      45.321   4.376   8.348  0.00  0.00    +0.000 A 
BRANCH  24  27
ATOM     27  C   UNL     1      47.727   2.155   6.404  0.00  0.00    +0.000 C 
ATOM     28  N   UNL     1      47.962   2.901   5.284  0.00  0.00    +0.000 N 
ATOM     29  O   UNL     1      48.327   1.104   6.593  0.00  0.00    +0.000 OA
ATOM     30  H   UNL     1      47.322   3.614   4.968  0.00  0.00    +0.000 HD
ATOM     31  H   UNL     1      48.577   2.483   4.599  0.00  0.00    +0.000 HD
ENDBRANCH  24  27
ENDBRANCH  19  21
ENDBRANCH  18  19
ENDBRANCH   1  18
TORSDOF 7
ENDMDL
MODEL 2
REMARK VINA RESULT:    -7.812      2.277      4.478
REMARK INTER + INTRA:         -11.501
REMARK INTER:                 -10.655
REMARK INTRA:                  -0.846
REMARK UNBOUND:                -0.493
REMARK  Name = 
REMARK  10 active torsions:
REMARK  status: ('A' for Active; 'I' for Inactive)
REMARK    1  A    between atoms: C_1  and  O_2
REMARK    2  A    between atoms: O_2  and  C_3
REMARK    3  A    between atoms: C_6  and  N_7
REMARK    4  A    between atoms: C_14  and  C_15
REMARK    5  A    between atoms: C_15  and  C_16
REMARK    6  A    between atoms: C_15  and  C_17
REMARK    7  A    between atoms: C_15  and  C_18
REMARK    8  A    between atoms: C_18  and  N_19
REMARK    9  A    between atoms: N_19  and  C_20
REMARK   10  A    between atoms: C_23  and  C_24
REMARK                            x       y       z     vdW  Elec       q    Type
REMARK                         _______ _______ _______ _____ _____    ______ ____
ROOT
ATOM      1  C   UNL     1      43.554   5.145  12.298  0.00  0.00    +0.000 C 
ATOM      2  C   UNL     1      42.978   4.546  13.608  0.00  0.00    +0.000 C 
ATOM      3  C   UNL     1      42.552   6.177  11.726  0.00  0.00    +0.000 C 
ENDROOT
BRANCH   1   9
ATOM      4  C   UNL     1      46.065   5.254  13.148  0.00  0.00    +0.000 A 
ATOM      5  C   UNL     1      47.171   6.040  13.495  0.00  0.00    +0.000 A 
ATOM      6  C   UNL     1      47.157   7.428  13.330  0.00  0.00    +0.000 A 
ATOM      7  C   UNL     1      46.045   8.081  12.809  0.00  0.00    +0.000 A 
ATOM      8  C   UNL     1      44.938   7.280  12.490  0.00  0.00    +0.000 A 
ATOM      9  C   UNL     1      44.896   5.869  12.650  0.00  0.00    +0.000 A 
BRANCH   7  10
ATOM     10  N   UNL     1      46.010   9.442  12.584  0.00  0.00    +0.000 N 
ATOM     11  C   UNL     1      44.813  10.142  12.097  0.00  0.00    +0.000 C 
ATOM     12  C   UNL     1      45.044  10.697  10.685  0.00  0.00    +0.000 C 
ATOM     13  O   UNL     1      46.225  11.516  10.627  0.00  0.00    +0.000 OA
ATOM     14  C   UNL     1      47.380  10.748  11.005  0.00  0.00    +0.000 C 
ATOM     15  C   UNL     1      47.260  10.205  12.439  0.00  0.00    +0.000 C 
ENDBRANCH   7  10
BRANCH   4  17
ATOM     16  C   UNL     1      47.135   3.280  13.987  0.00  0.00    +0.000 C 
ATOM     17  O   UNL     1      46.110   3.890  13.213  0.00  0.00    +0.000 OA
ENDBRANCH   4  17
ENDBRANCH   1   9
BRANCH   1  18
ATOM     18  C   UNL     1      43.714   3.974  11.277  0.00  0.00    +0.000 C 
BRANCH  18  19
ATOM     19  N   UNL     1      43.631   4.369   9.855  0.00  0.00    +0.000 N 
ATOM     20  H   UNL     1      43.606   5.379   9.743  0.00  0.00    +0.000 HD
BRANCH  19  21
ATOM     21  C   UNL     1      44.617   3.817   9.011  0.00  0.00    +0.000 A 
ATOM     22  C   UNL     1      45.498   4.598   8.252  0.00  0.00    +0.000 A 
ATOM     23  C   UNL     1      46.489   4.015   7.458  0.00  0.00    +0.000 A 
ATOM     24  C   UNL     1      46.651   2.631   7.443  0.00  0.00    +0.000 A 
ATOM     25  C   UNL     1      45.811   1.833   8.225  0.00  0.00    +0.000 A 
ATOM     26  C   UNL     1      44.817   2.429   9.015  0.00  0.00    +0.000 A 
BRANCH  24  27
ATOM     27  C   UNL     1      47.721   2.069   6.578  0.00  0.00    +0.000 C 
ATOM     28  N   UNL     1      48.140   2.828   5.522  0.00  0.00    +0.000 N 
ATOM     29  O   UNL     1      48.184   0.952   6.768  0.00  0.00    +0.000 OA
ATOM     30  H   UNL     1      47.613   3.620   5.185  0.00  0.00    +0.000 HD
ATOM     31  H   UNL     1      48.768   2.371   4.875  0.00  0.00    +0.000 HD
ENDBRANCH  24  27
ENDBRANCH  19  21
ENDBRANCH  18  19
ENDBRANCH   1  18
TORSDOF 7
ENDMDL
MODEL 3
REMARK VINA RESULT:    -7.283      2.204      4.138
REMARK INTER + INTRA:         -10.756
REMARK INTER:                 -10.134
REMARK INTRA:                  -0.622
REMARK UNBOUND:                -0.493
REMARK  Name = 
REMARK  10 active torsions:
REMARK  status: ('A' for Active; 'I' for Inactive)
REMARK    1  A    between atoms: C_1  and  O_2
REMARK    2  A    between atoms: O_2  and  C_3
REMARK    3  A    between atoms: C_6  and  N_7
REMARK    4  A    between atoms: C_14  and  C_15
REMARK    5  A    between atoms: C_15  and  C_16
REMARK    6  A    between atoms: C_15  and  C_17
REMARK    7  A    between atoms: C_15  and  C_18
REMARK    8  A    between atoms: C_18  and  N_19
REMARK    9  A    between atoms: N_19  and  C_20
REMARK   10  A    between atoms: C_23  and  C_24
REMARK                            x       y       z     vdW  Elec       q    Type
REMARK                         _______ _______ _______ _____ _____    ______ ____
ROOT
ATOM      1  C   UNL     1      44.622   5.047  12.375  0.00  0.00    +0.000 C 
ATOM      2  C   UNL     1      43.637   4.927  13.568  0.00  0.00    +0.000 C 
ATOM      3  C   UNL     1      43.995   5.953  11.286  0.00  0.00    +0.000 C 
ENDROOT
BRANCH   1   9
ATOM      4  C   UNL     1      46.728   5.244  13.976  0.00  0.00    +0.000 A 
ATOM      5  C   UNL     1      47.843   5.985  14.391  0.00  0.00    +0.000 A 
ATOM      6  C   UNL     1      48.211   7.168  13.745  0.00  0.00    +0.000 A 
ATOM      7  C   UNL     1      47.489   7.651  12.660  0.00  0.00    +0.000 A 
ATOM      8  C   UNL     1      46.362   6.909  12.273  0.00  0.00    +0.000 A 
ATOM      9  C   UNL     1      45.937   5.709  12.903  0.00  0.00    +0.000 A 
BRANCH   7  10
ATOM     10  N   UNL     1      47.849   8.788  11.964  0.00  0.00    +0.000 N 
ATOM     11  C   UNL     1      49.201   9.005  11.429  0.00  0.00    +0.000 C 
ATOM     12  C   UNL     1      49.892  10.167  12.155  0.00  0.00    +0.000 C 
ATOM     13  O   UNL     1      49.089  11.360  12.126  0.00  0.00    +0.000 OA
ATOM     14  C   UNL     1      47.823  11.120  12.763  0.00  0.00    +0.000 C 
ATOM     15  C   UNL     1      47.030  10.007  12.056  0.00  0.00    +0.000 C 
ENDBRANCH   7  10
BRANCH   4  17
ATOM     16  C   UNL     1      47.351   3.456  15.446  0.00  0.00    +0.000 C 
ATOM     17  O   UNL     1      46.422   4.037  14.538  0.00  0.00    +0.000 OA
ENDBRANCH   4  17
ENDBRANCH   1   9
BRANCH   1  18
ATOM     18  C   UNL     1      44.824   3.614  11.787  0.00  0.00    +0.000 C 
BRANCH  18  19
ATOM     19  N   UNL     1      44.146   3.366  10.498  0.00  0.00    +0.000 N 
ATOM     20  H   UNL     1      43.469   4.091  10.280  0.00  0.00    +0.000 HD
BRANCH  19  21
ATOM     21  C   UNL     1      44.997   3.158   9.392  0.00  0.00    +0.000 A 
ATOM     22  C   UNL     1      45.370   1.883   8.945  0.00  0.00    +0.000 A 
ATOM     23  C   UNL     1      46.183   1.716   7.821  0.00  0.00    +0.000 A 
ATOM     24  C   UNL     1      46.603   2.824   7.087  0.00  0.00    +0.000 A 
ATOM     25  C   UNL     1      46.208   4.103   7.490  0.00  0.00    +0.000 A 
ATOM     26  C   UNL     1      45.397   4.260   8.623  0.00  0.00    +0.000 A 
BRANCH  24  27
ATOM     27  C   UNL     1      47.466   2.583   5.903  0.00  0.00    +0.000 C 
ATOM     28  N   UNL     1      48.756   2.192   6.132  0.00  0.00    +0.000 N 
ATOM     29  O   UNL     1      47.063   2.769   4.761  0.00  0.00    +0.000 OA
ATOM     30  H   UNL     1      49.192   2.280   7.037  0.00  0.00    +0.000 HD
ATOM     31  H   UNL     1      49.357   2.165   5.320  0.00  0.00    +0.000 HD
ENDBRANCH  24  27
ENDBRANCH  19  21
ENDBRANCH  18  19
ENDBRANCH   1  18
TORSDOF 7
ENDMDL
MODEL 4
REMARK VINA RESULT:    -7.071      1.696      7.750
REMARK INTER + INTRA:         -10.457
REMARK INTER:                  -9.594
REMARK INTRA:                  -0.863
REMARK UNBOUND:                -0.493
REMARK  Name = 
REMARK  10 active torsions:
REMARK  status: ('A' for Active; 'I' for Inactive)
REMARK    1  A    between atoms: C_1  and  O_2
REMARK    2  A    between atoms: O_2  and  C_3
REMARK    3  A    between atoms: C_6  and  N_7
REMARK    4  A    between atoms: C_14  and  C_15
REMARK    5  A    between atoms: C_15  and  C_16
REMARK    6  A    between atoms: C_15  and  C_17
REMARK    7  A    between atoms: C_15  and  C_18
REMARK    8  A    between atoms: C_18  and  N_19
REMARK    9  A    between atoms: N_19  and  C_20
REMARK   10  A    between atoms: C_23  and  C_24
REMARK                            x       y       z     vdW  Elec       q    Type
REMARK                         _______ _______ _______ _____ _____    ______ ____
ROOT
ATOM      1  C   UNL     1      43.922   4.231  12.202  0.00  0.00    +0.000 C 
ATOM      2  C   UNL     1      42.679   5.160  12.219  0.00  0.00    +0.000 C 
ATOM      3  C   UNL     1      43.458   2.760  12.068  0.00  0.00    +0.000 C 
ENDROOT
BRANCH   1   9
ATOM      4  C   UNL     1      45.453   5.844  10.755  0.00  0.00    +0.000 A 
ATOM      5  C   UNL     1      46.133   6.078   9.552  0.00  0.00    +0.000 A 
ATOM      6  C   UNL     1      46.197   5.103   8.552  0.00  0.00    +0.000 A 
ATOM      7  C   UNL     1      45.594   3.861   8.716  0.00  0.00    +0.000 A 
ATOM      8  C   UNL     1      44.898   3.653   9.917  0.00  0.00    +0.000 A 
ATOM      9  C   UNL     1      44.791   4.614  10.958  0.00  0.00    +0.000 A 
BRANCH   7  10
ATOM     10  N   UNL     1      45.678   2.855   7.775  0.00  0.00    +0.000 N 
ATOM     11  C   UNL     1      45.615   1.428   8.120  0.00  0.00    +0.000 C 
ATOM     12  C   UNL     1      46.959   0.741   7.842  0.00  0.00    +0.000 C 
ATOM     13  O   UNL     1      47.395   0.963   6.490  0.00  0.00    +0.000 OA
ATOM     14  C   UNL     1      47.548   2.371   6.243  0.00  0.00    +0.000 C 
ATOM     15  C   UNL     1      46.225   3.132   6.437  0.00  0.00    +0.000 C 
ENDBRANCH   7  10
BRANCH   4  17
ATOM     16  C   UNL     1      44.903   8.038  11.548  0.00  0.00    +0.000 C 
ATOM     17  O   UNL     1      45.471   6.754  11.774  0.00  0.00    +0.000 OA
ENDBRANCH   4  17
ENDBRANCH   1   9
BRANCH   1  18
ATOM     18  C   UNL     1      44.659   4.408  13.568  0.00  0.00    +0.000 C 
BRANCH  18  19
ATOM     19  N   UNL     1      46.078   3.995  13.571  0.00  0.00    +0.000 N 
ATOM     20  H   UNL     1      46.490   4.046  12.644  0.00  0.00    +0.000 HD
BRANCH  19  21
ATOM     21  C   UNL     1      46.904   4.661  14.500  0.00  0.00    +0.000 A 
ATOM     22  C   UNL     1      47.177   4.157  15.779  0.00  0.00    +0.000 A 
ATOM     23  C   UNL     1      48.033   4.826  16.656  0.00  0.00    +0.000 A 
ATOM     24  C   UNL     1      48.677   5.996  16.255  0.00  0.00    +0.000 A 
ATOM     25  C   UNL     1      48.453   6.494  14.968  0.00  0.00    +0.000 A 
ATOM     26  C   UNL     1      47.587   5.818  14.096  0.00  0.00    +0.000 A 
BRANCH  24  27
ATOM     27  C   UNL     1      49.574   6.662  17.233  0.00  0.00    +0.000 C 
ATOM     28  N   UNL     1      50.116   5.888  18.220  0.00  0.00    +0.000 N 
ATOM     29  O   UNL     1      49.791   7.867  17.193  0.00  0.00    +0.000 OA
ATOM     30  H   UNL     1      49.763   4.969  18.438  0.00  0.00    +0.000 HD
ATOM     31  H   UNL     1      50.612   6.387  18.947  0.00  0.00    +0.000 HD
ENDBRANCH  24  27
ENDBRANCH  19  21
ENDBRANCH  18  19
ENDBRANCH   1  18
TORSDOF 7
ENDMDL
MODEL 5
REMARK VINA RESULT:    -6.814      1.254      1.995
REMARK INTER + INTRA:         -10.095
REMARK INTER:                 -10.322
REMARK INTRA:                   0.227
REMARK UNBOUND:                -0.493
REMARK  Name = 
REMARK  10 active torsions:
REMARK  status: ('A' for Active; 'I' for Inactive)
REMARK    1  A    between atoms: C_1  and  O_2
REMARK    2  A    between atoms: O_2  and  C_3
REMARK    3  A    between atoms: C_6  and  N_7
REMARK    4  A    between atoms: C_14  and  C_15
REMARK    5  A    between atoms: C_15  and  C_16
REMARK    6  A    between atoms: C_15  and  C_17
REMARK    7  A    between atoms: C_15  and  C_18
REMARK    8  A    between atoms: C_18  and  N_19
REMARK    9  A    between atoms: N_19  and  C_20
REMARK   10  A    between atoms: C_23  and  C_24
REMARK                            x       y       z     vdW  Elec       q    Type
REMARK                         _______ _______ _______ _____ _____    ______ ____
ROOT
ATOM      1  C   UNL     1      45.797   6.267  11.854  0.00  0.00    +0.000 C 
ATOM      2  C   UNL     1      44.739   7.395  11.984  0.00  0.00    +0.000 C 
ATOM      3  C   UNL     1      46.598   6.467  10.544  0.00  0.00    +0.000 C 
ENDROOT
BRANCH   1   9
ATOM      4  C   UNL     1      47.732   7.390  13.280  0.00  0.00    +0.000 A 
ATOM      5  C   UNL     1      48.592   7.319  14.384  0.00  0.00    +0.000 A 
ATOM      6  C   UNL     1      48.499   6.278  15.312  0.00  0.00    +0.000 A 
ATOM      7  C   UNL     1      47.545   5.275  15.177  0.00  0.00    +0.000 A 
ATOM      8  C   UNL     1      46.709   5.349  14.053  0.00  0.00    +0.000 A 
ATOM      9  C   UNL     1      46.769   6.378  13.075  0.00  0.00    +0.000 A 
BRANCH   7  10
ATOM     10  N   UNL     1      47.389   4.258  16.098  0.00  0.00    +0.000 N 
ATOM     11  C   UNL     1      47.060   4.499  17.510  0.00  0.00    +0.000 C 
ATOM     12  C   UNL     1      48.229   4.094  18.418  0.00  0.00    +0.000 C 
ATOM     13  O   UNL     1      48.643   2.740  18.171  0.00  0.00    +0.000 OA
ATOM     14  C   UNL     1      49.061   2.590  16.804  0.00  0.00    +0.000 C 
ATOM     15  C   UNL     1      47.924   2.915  15.821  0.00  0.00    +0.000 C 
ENDBRANCH   7  10
BRANCH   4  17
ATOM     16  C   UNL     1      47.759   9.768  12.979  0.00  0.00    +0.000 C 
ATOM     17  O   UNL     1      47.751   8.456  12.427  0.00  0.00    +0.000 OA
ENDBRANCH   4  17
ENDBRANCH   1   9
BRANCH   1  18
ATOM     18  C   UNL     1      45.030   4.909  11.776  0.00  0.00    +0.000 C 
BRANCH  18  19
ATOM     19  N   UNL     1      44.360   4.643  10.486  0.00  0.00    +0.000 N 
ATOM     20  H   UNL     1      44.021   5.496  10.051  0.00  0.00    +0.000 HD
BRANCH  19  21
ATOM     21  C   UNL     1      45.111   3.896   9.553  0.00  0.00    +0.000 A 
ATOM     22  C   UNL     1      45.182   2.497   9.575  0.00  0.00    +0.000 A 
ATOM     23  C   UNL     1      45.903   1.790   8.609  0.00  0.00    +0.000 A 
ATOM     24  C   UNL     1      46.532   2.469   7.567  0.00  0.00    +0.000 A 
ATOM     25  C   UNL     1      46.438   3.862   7.500  0.00  0.00    +0.000 A 
ATOM     26  C   UNL     1      45.716   4.562   8.478  0.00  0.00    +0.000 A 
BRANCH  24  27
ATOM     27  C   UNL     1      47.285   1.663   6.571  0.00  0.00    +0.000 C 
ATOM     28  N   UNL     1      48.278   2.291   5.874  0.00  0.00    +0.000 N 
ATOM     29  O   UNL     1      47.004   0.493   6.343  0.00  0.00    +0.000 OA
ATOM     30  H   UNL     1      48.363   3.296   5.844  0.00  0.00    +0.000 HD
ATOM     31  H   UNL     1      48.682   1.762   5.113  0.00  0.00    +0.000 HD
ENDBRANCH  24  27
ENDBRANCH  19  21
ENDBRANCH  18  19
ENDBRANCH   1  18
TORSDOF 7
ENDMDL
MODEL 6
REMARK VINA RESULT:    -6.703      2.777      7.542
REMARK INTER + INTRA:          -9.938
REMARK INTER:                  -9.145
REMARK INTRA:                  -0.793
REMARK UNBOUND:                -0.493
REMARK  Name = 
REMARK  10 active torsions:
REMARK  status: ('A' for Active; 'I' for Inactive)
REMARK    1  A    between atoms: C_1  and  O_2
REMARK    2  A    between atoms: O_2  and  C_3
REMARK    3  A    between atoms: C_6  and  N_7
REMARK    4  A    between atoms: C_14  and  C_15
REMARK    5  A    between atoms: C_15  and  C_16
REMARK    6  A    between atoms: C_15  and  C_17
REMARK    7  A    between atoms: C_15  and  C_18
REMARK    8  A    between atoms: C_18  and  N_19
REMARK    9  A    between atoms: N_19  and  C_20
REMARK   10  A    between atoms: C_23  and  C_24
REMARK                            x       y       z     vdW  Elec       q    Type
REMARK                         _______ _______ _______ _____ _____    ______ ____
ROOT
ATOM      1  C   UNL     1      48.823   8.651  12.377  0.00  0.00    +0.000 C 
ATOM      2  C   UNL     1      49.714   7.517  11.803  0.00  0.00    +0.000 C 
ATOM      3  C   UNL     1      49.202   9.990  11.697  0.00  0.00    +0.000 C 
ENDROOT
BRANCH   1   9
ATOM      4  C   UNL     1      46.254   9.217  12.032  0.00  0.00    +0.000 A 
ATOM      5  C   UNL     1      44.954   8.751  11.791  0.00  0.00    +0.000 A 
ATOM      6  C   UNL     1      44.702   7.402  11.529  0.00  0.00    +0.000 A 
ATOM      7  C   UNL     1      45.734   6.470  11.491  0.00  0.00    +0.000 A 
ATOM      8  C   UNL     1      47.025   6.949  11.759  0.00  0.00    +0.000 A 
ATOM      9  C   UNL     1      47.333   8.307  12.043  0.00  0.00    +0.000 A 
BRANCH   7  10
ATOM     10  N   UNL     1      45.533   5.139  11.187  0.00  0.00    +0.000 N 
ATOM     11  C   UNL     1      45.258   4.661   9.824  0.00  0.00    +0.000 C 
ATOM     12  C   UNL     1      43.834   4.099   9.722  0.00  0.00    +0.000 C 
ATOM     13  O   UNL     1      43.590   3.092  10.719  0.00  0.00    +0.000 OA
ATOM     14  C   UNL     1      43.763   3.646  12.035  0.00  0.00    +0.000 C 
ATOM     15  C   UNL     1      45.192   4.176  12.248  0.00  0.00    +0.000 C 
ENDBRANCH   7  10
BRANCH   4  17
ATOM     16  C   UNL     1      45.583  11.491  11.679  0.00  0.00    +0.000 C 
ATOM     17  O   UNL     1      46.518  10.547  12.189  0.00  0.00    +0.000 OA
ENDBRANCH   4  17
ENDBRANCH   1   9
BRANCH   1  18
ATOM     18  C   UNL     1      49.122   8.756  13.906  0.00  0.00    +0.000 C 
BRANCH  18  19
ATOM     19  N   UNL     1      49.991   7.690  14.447  0.00  0.00    +0.000 N 
ATOM     20  H   UNL     1      50.793   8.070  14.941  0.00  0.00    +0.000 HD
BRANCH  19  21
ATOM     21  C   UNL     1      49.345   6.728  15.251  0.00  0.00    +0.000 A 
ATOM     22  C   UNL     1      48.241   5.984  14.814  0.00  0.00    +0.000 A 
ATOM     23  C   UNL     1      47.653   5.010  15.624  0.00  0.00    +0.000 A 
ATOM     24  C   UNL     1      48.188   4.724  16.879  0.00  0.00    +0.000 A 
ATOM     25  C   UNL     1      49.316   5.423  17.319  0.00  0.00    +0.000 A 
ATOM     26  C   UNL     1      49.895   6.403  16.499  0.00  0.00    +0.000 A 
BRANCH  24  27
ATOM     27  C   UNL     1      47.518   3.679  17.695  0.00  0.00    +0.000 C 
ATOM     28  N   UNL     1      48.113   3.322  18.872  0.00  0.00    +0.000 N 
ATOM     29  O   UNL     1      46.498   3.118  17.315  0.00  0.00    +0.000 OA
ATOM     30  H   UNL     1      49.068   3.565  19.089  0.00  0.00    +0.000 HD
ATOM     31  H   UNL     1      47.713   2.520  19.341  0.00  0.00    +0.000 HD
ENDBRANCH  24  27
ENDBRANCH  19  21
ENDBRANCH  18  19
ENDBRANCH   1  18
TORSDOF 7
ENDMDL
MODEL 7
REMARK VINA RESULT:    -6.634      3.483      7.975
REMARK INTER + INTRA:          -9.841
REMARK INTER:                  -9.337
REMARK INTRA:                  -0.505
REMARK UNBOUND:                -0.493
REMARK  Name = 
REMARK  10 active torsions:
REMARK  status: ('A' for Active; 'I' for Inactive)
REMARK    1  A    between atoms: C_1  and  O_2
REMARK    2  A    between atoms: O_2  and  C_3
REMARK    3  A    between atoms: C_6  and  N_7
REMARK    4  A    between atoms: C_14  and  C_15
REMARK    5  A    between atoms: C_15  and  C_16
REMARK    6  A    between atoms: C_15  and  C_17
REMARK    7  A    between atoms: C_15  and  C_18
REMARK    8  A    between atoms: C_18  and  N_19
REMARK    9  A    between atoms: N_19  and  C_20
REMARK   10  A    between atoms: C_23  and  C_24
REMARK                            x       y       z     vdW  Elec       q    Type
REMARK                         _______ _______ _______ _____ _____    ______ ____
ROOT
ATOM      1  C   UNL     1      48.742   7.142  15.297  0.00  0.00    +0.000 C 
ATOM      2  C   UNL     1      50.275   7.081  15.060  0.00  0.00    +0.000 C 
ATOM      3  C   UNL     1      48.364   8.548  15.823  0.00  0.00    +0.000 C 
ENDROOT
BRANCH   1   9
ATOM      4  C   UNL     1      48.350   7.531  12.702  0.00  0.00    +0.000 A 
ATOM      5  C   UNL     1      47.576   7.272  11.563  0.00  0.00    +0.000 A 
ATOM      6  C   UNL     1      46.509   6.372  11.598  0.00  0.00    +0.000 A 
ATOM      7  C   UNL     1      46.177   5.693  12.766  0.00  0.00    +0.000 A 
ATOM      8  C   UNL     1      46.947   5.983  13.903  0.00  0.00    +0.000 A 
ATOM      9  C   UNL     1      48.034   6.898  13.923  0.00  0.00    +0.000 A 
BRANCH   7  10
ATOM     10  N   UNL     1      45.163   4.759  12.830  0.00  0.00    +0.000 N 
ATOM     11  C   UNL     1      45.319   3.373  12.365  0.00  0.00    +0.000 C 
ATOM     12  C   UNL     1      44.436   3.108  11.138  0.00  0.00    +0.000 C 
ATOM     13  O   UNL     1      43.064   3.454  11.391  0.00  0.00    +0.000 OA
ATOM     14  C   UNL     1      42.958   4.846  11.730  0.00  0.00    +0.000 C 
ATOM     15  C   UNL     1      43.765   5.189  12.994  0.00  0.00    +0.000 C 
ENDBRANCH   7  10
BRANCH   4  17
ATOM     16  C   UNL     1      50.278   8.279  11.489  0.00  0.00    +0.000 C 
ATOM     17  O   UNL     1      49.455   8.333  12.648  0.00  0.00    +0.000 OA
ENDBRANCH   4  17
ENDBRANCH   1   9
BRANCH   1  18
ATOM     18  C   UNL     1      48.392   6.081  16.388  0.00  0.00    +0.000 C 
BRANCH  18  19
ATOM     19  N   UNL     1      49.371   5.972  17.490  0.00  0.00    +0.000 N 
ATOM     20  H   UNL     1      48.954   6.188  18.390  0.00  0.00    +0.000 HD
BRANCH  19  21
ATOM     21  C   UNL     1      50.067   4.747  17.566  0.00  0.00    +0.000 A 
ATOM     22  C   UNL     1      49.450   3.504  17.376  0.00  0.00    +0.000 A 
ATOM     23  C   UNL     1      50.181   2.314  17.420  0.00  0.00    +0.000 A 
ATOM     24  C   UNL     1      51.561   2.345  17.607  0.00  0.00    +0.000 A 
ATOM     25  C   UNL     1      52.206   3.577  17.756  0.00  0.00    +0.000 A 
ATOM     26  C   UNL     1      51.462   4.765  17.716  0.00  0.00    +0.000 A 
BRANCH  24  27
ATOM     27  C   UNL     1      52.284   1.048  17.645  0.00  0.00    +0.000 C 
ATOM     28  N   UNL     1      51.637  -0.017  18.206  0.00  0.00    +0.000 N 
ATOM     29  O   UNL     1      53.432   0.936  17.234  0.00  0.00    +0.000 OA
ATOM     30  H   UNL     1      50.813   0.094  18.779  0.00  0.00    +0.000 HD
ATOM     31  H   UNL     1      52.196  -0.849  18.341  0.00  0.00    +0.000 HD
ENDBRANCH  24  27
ENDBRANCH  19  21
ENDBRANCH  18  19
ENDBRANCH   1  18
TORSDOF 7
ENDMDL
MODEL 8
REMARK VINA RESULT:    -6.383      3.224      5.534
REMARK INTER + INTRA:          -9.487
REMARK INTER:                  -8.614
REMARK INTRA:                  -0.873
REMARK UNBOUND:                -0.493
REMARK  Name = 
REMARK  10 active torsions:
REMARK  status: ('A' for Active; 'I' for Inactive)
REMARK    1  A    between atoms: C_1  and  O_2
REMARK    2  A    between atoms: O_2  and  C_3
REMARK    3  A    between atoms: C_6  and  N_7
REMARK    4  A    between atoms: C_14  and  C_15
REMARK    5  A    between atoms: C_15  and  C_16
REMARK    6  A    between atoms: C_15  and  C_17
REMARK    7  A    between atoms: C_15  and  C_18
REMARK    8  A    between atoms: C_18  and  N_19
REMARK    9  A    between atoms: N_19  and  C_20
REMARK   10  A    between atoms: C_23  and  C_24
REMARK                            x       y       z     vdW  Elec       q    Type
REMARK                         _______ _______ _______ _____ _____    ______ ____
ROOT
ATOM      1  C   UNL     1      49.493   8.299  13.906  0.00  0.00    +0.000 C 
ATOM      2  C   UNL     1      49.429   9.790  14.331  0.00  0.00    +0.000 C 
ATOM      3  C   UNL     1      50.247   8.185  12.558  0.00  0.00    +0.000 C 
ENDROOT
BRANCH   1   9
ATOM      4  C   UNL     1      51.663   7.647  15.287  0.00  0.00    +0.000 A 
ATOM      5  C   UNL     1      52.257   6.825  16.253  0.00  0.00    +0.000 A 
ATOM      6  C   UNL     1      51.506   5.893  16.976  0.00  0.00    +0.000 A 
ATOM      7  C   UNL     1      50.138   5.752  16.767  0.00  0.00    +0.000 A 
ATOM      8  C   UNL     1      49.565   6.567  15.778  0.00  0.00    +0.000 A 
ATOM      9  C   UNL     1      50.285   7.519  15.008  0.00  0.00    +0.000 A 
BRANCH   7  10
ATOM     10  N   UNL     1      49.353   4.881  17.494  0.00  0.00    +0.000 N 
ATOM     11  C   UNL     1      49.730   3.483  17.748  0.00  0.00    +0.000 C 
ATOM     12  C   UNL     1      48.775   2.522  17.028  0.00  0.00    +0.000 C 
ATOM     13  O   UNL     1      47.403   2.793  17.363  0.00  0.00    +0.000 OA
ATOM     14  C   UNL     1      47.057   4.137  16.990  0.00  0.00    +0.000 C 
ATOM     15  C   UNL     1      47.928   5.174  17.719  0.00  0.00    +0.000 C 
ENDBRANCH   7  10
BRANCH   4  17
ATOM     16  C   UNL     1      53.611   8.282  14.043  0.00  0.00    +0.000 C 
ATOM     17  O   UNL     1      52.371   8.626  14.649  0.00  0.00    +0.000 OA
ENDBRANCH   4  17
ENDBRANCH   1   9
BRANCH   1  18
ATOM     18  C   UNL     1      48.026   7.803  13.709  0.00  0.00    +0.000 C 
BRANCH  18  19
ATOM     19  N   UNL     1      47.634   7.549  12.307  0.00  0.00    +0.000 N 
ATOM     20  H   UNL     1      48.443   7.424  11.704  0.00  0.00    +0.000 HD
BRANCH  19  21
ATOM     21  C   UNL     1      46.723   6.490  12.111  0.00  0.00    +0.000 A 
ATOM     22  C   UNL     1      46.051   6.275  10.901  0.00  0.00    +0.000 A 
ATOM     23  C   UNL     1      45.186   5.191  10.732  0.00  0.00    +0.000 A 
ATOM     24  C   UNL     1      45.010   4.267  11.761  0.00  0.00    +0.000 A 
ATOM     25  C   UNL     1      45.703   4.438  12.963  0.00  0.00    +0.000 A 
ATOM     26  C   UNL     1      46.565   5.532  13.123  0.00  0.00    +0.000 A 
BRANCH  24  27
ATOM     27  C   UNL     1      44.076   3.136  11.522  0.00  0.00    +0.000 C 
ATOM     28  N   UNL     1      43.706   2.387  12.603  0.00  0.00    +0.000 N 
ATOM     29  O   UNL     1      43.684   2.848  10.399  0.00  0.00    +0.000 OA
ATOM     30  H   UNL     1      44.201   2.427  13.482  0.00  0.00    +0.000 HD
ATOM     31  H   UNL     1      43.181   1.547  12.397  0.00  0.00    +0.000 HD
ENDBRANCH  24  27
ENDBRANCH  19  21
ENDBRANCH  18  19
ENDBRANCH   1  18
TORSDOF 7
ENDMDL
MODEL 9
REMARK VINA RESULT:    -6.251      3.961      6.181
REMARK INTER + INTRA:          -9.302
REMARK INTER:                  -8.149
REMARK INTRA:                  -1.153
REMARK UNBOUND:                -0.493
REMARK  Name = 
REMARK  10 active torsions:
REMARK  status: ('A' for Active; 'I' for Inactive)
REMARK    1  A    between atoms: C_1  and  O_2
REMARK    2  A    between atoms: O_2  and  C_3
REMARK    3  A    between atoms: C_6  and  N_7
REMARK    4  A    between atoms: C_14  and  C_15
REMARK    5  A    between atoms: C_15  and  C_16
REMARK    6  A    between atoms: C_15  and  C_17
REMARK    7  A    between atoms: C_15  and  C_18
REMARK    8  A    between atoms: C_18  and  N_19
REMARK    9  A    between atoms: N_19  and  C_20
REMARK   10  A    between atoms: C_23  and  C_24
REMARK                            x       y       z     vdW  Elec       q    Type
REMARK                         _______ _______ _______ _____ _____    ______ ____
ROOT
ATOM      1  C   UNL     1      49.398   8.379  15.817  0.00  0.00    +0.000 C 
ATOM      2  C   UNL     1      50.005   9.705  16.346  0.00  0.00    +0.000 C 
ATOM      3  C   UNL     1      50.529   7.500  15.228  0.00  0.00    +0.000 C 
ENDROOT
BRANCH   1   9
ATOM      4  C   UNL     1      48.012   8.235  18.074  0.00  0.00    +0.000 A 
ATOM      5  C   UNL     1      47.548   7.450  19.138  0.00  0.00    +0.000 A 
ATOM      6  C   UNL     1      47.768   6.070  19.174  0.00  0.00    +0.000 A 
ATOM      7  C   UNL     1      48.450   5.422  18.151  0.00  0.00    +0.000 A 
ATOM      8  C   UNL     1      48.928   6.227  17.105  0.00  0.00    +0.000 A 
ATOM      9  C   UNL     1      48.743   7.634  17.027  0.00  0.00    +0.000 A 
BRANCH   7  10
ATOM     10  N   UNL     1      48.644   4.056  18.124  0.00  0.00    +0.000 N 
ATOM     11  C   UNL     1      49.943   3.426  18.401  0.00  0.00    +0.000 C 
ATOM     12  C   UNL     1      50.499   2.750  17.140  0.00  0.00    +0.000 C 
ATOM     13  O   UNL     1      49.551   1.832  16.571  0.00  0.00    +0.000 OA
ATOM     14  C   UNL     1      48.343   2.525  16.215  0.00  0.00    +0.000 C 
ATOM     15  C   UNL     1      47.679   3.181  17.438  0.00  0.00    +0.000 C 
ENDBRANCH   7  10
BRANCH   4  17
ATOM     16  C   UNL     1      47.544  10.305  19.187  0.00  0.00    +0.000 C 
ATOM     17  O   UNL     1      47.714   9.565  17.984  0.00  0.00    +0.000 OA
ENDBRANCH   4  17
ENDBRANCH   1   9
BRANCH   1  18
ATOM     18  C   UNL     1      48.394   8.743  14.678  0.00  0.00    +0.000 C 
BRANCH  18  19
ATOM     19  N   UNL     1      48.471   7.883  13.478  0.00  0.00    +0.000 N 
ATOM     20  H   UNL     1      49.365   7.407  13.410  0.00  0.00    +0.000 HD
BRANCH  19  21
ATOM     21  C   UNL     1      47.420   6.955  13.327  0.00  0.00    +0.000 A 
ATOM     22  C   UNL     1      47.472   5.651  13.837  0.00  0.00    +0.000 A 
ATOM     23  C   UNL     1      46.395   4.772  13.702  0.00  0.00    +0.000 A 
ATOM     24  C   UNL     1      45.216   5.196  13.092  0.00  0.00    +0.000 A 
ATOM     25  C   UNL     1      45.124   6.507  12.613  0.00  0.00    +0.000 A 
ATOM     26  C   UNL     1      46.214   7.379  12.749  0.00  0.00    +0.000 A 
BRANCH  24  27
ATOM     27  C   UNL     1      44.105   4.217  12.977  0.00  0.00    +0.000 C 
ATOM     28  N   UNL     1      44.424   2.946  12.591  0.00  0.00    +0.000 N 
ATOM     29  O   UNL     1      42.939   4.536  13.173  0.00  0.00    +0.000 OA
ATOM     30  H   UNL     1      45.315   2.716  12.175  0.00  0.00    +0.000 HD
ATOM     31  H   UNL     1      43.641   2.338  12.391  0.00  0.00    +0.000 HD
ENDBRANCH  24  27
ENDBRANCH  19  21
ENDBRANCH  18  19
ENDBRANCH   1  18
TORSDOF 7
ENDMDL
