MODEL 1
REMARK VINA RESULT:    -7.666      0.000      0.000
REMARK INTER + INTRA:         -10.816
REMARK INTER:                 -10.355
REMARK INTRA:                  -0.461
REMARK UNBOUND:                -0.461
REMARK  Name = 
REMARK  7 active torsions:
REMARK  status: ('A' for Active; 'I' for Inactive)
REMARK    1  A    between atoms: C_1  and  O_2
REMARK    2  A    between atoms: O_2  and  C_3
REMARK    3  A    between atoms: C_3  and  C_4
REMARK    4  A    between atoms: C_4  and  N_5
REMARK    5  A    between atoms: C_4  and  C_15
REMARK    6  A    between atoms: N_5  and  C_6
REMARK    7  A    between atoms: C_9  and  C_10
REMARK                            x       y       z     vdW  Elec       q    Type
REMARK                         _______ _______ _______ _____ _____    ______ ____
ROOT
ATOM      1  N   UNL     1      44.336   5.094  10.158  0.00  0.00    +0.000 N 
ATOM      2  H   UNL     1      44.008   5.900   9.629  0.00  0.00    +0.000 HD
ENDROOT
BRANCH   1   3
ATOM      3  C   UNL     1      44.983   4.197   9.324  0.00  0.00    +0.000 A 
ATOM      4  C   UNL     1      45.884   4.731   8.387  0.00  0.00    +0.000 A 
ATOM      5  C   UNL     1      46.640   3.912   7.542  0.00  0.00    +0.000 A 
ATOM      6  C   UNL     1      46.532   2.525   7.638  0.00  0.00    +0.000 A 
ATOM      7  C   UNL     1      45.627   1.974   8.552  0.00  0.00    +0.000 A 
ATOM      8  C   UNL     1      44.859   2.809   9.384  0.00  0.00    +0.000 A 
BRANCH   6   9
ATOM      9  C   UNL     1      47.403   1.692   6.765  0.00  0.00    +0.000 C 
ATOM     10  N   UNL     1      48.436   2.317   6.124  0.00  0.00    +0.000 N 
ATOM     11  O   UNL     1      47.182   0.502   6.583  0.00  0.00    +0.000 OA
ATOM     12  H   UNL     1      48.497   3.322   6.046  0.00  0.00    +0.000 HD
ATOM     13  H   UNL     1      48.918   1.765   5.425  0.00  0.00    +0.000 HD
ENDBRANCH   6   9
ENDBRANCH   1   3
BRANCH   1  14
ATOM     14  C   UNL     1      44.711   5.456  11.534  0.00  0.00    +0.000 C 
BRANCH  14  15
ATOM     15  C   UNL     1      45.568   6.716  11.628  0.00  0.00    +0.000 A 
ATOM     16  C   UNL     1      44.945   7.968  11.793  0.00  0.00    +0.000 A 
ATOM     17  C   UNL     1      45.695   9.121  12.043  0.00  0.00    +0.000 A 
ATOM     18  C   UNL     1      47.082   9.050  12.121  0.00  0.00    +0.000 A 
ATOM     19  C   UNL     1      47.720   7.828  11.931  0.00  0.00    +0.000 A 
ATOM     20  C   UNL     1      46.972   6.674  11.686  0.00  0.00    +0.000 A 
ENDBRANCH  14  15
BRANCH  14  21
ATOM     21  C   UNL     1      45.165   4.219  12.350  0.00  0.00    +0.000 C 
BRANCH  21  23
ATOM     22  C   UNL     1      43.002   4.664  13.226  0.00  0.00    +0.000 C 
ATOM     23  O   UNL     1      44.063   3.726  13.128  0.00  0.00    +0.000 OA
ENDBRANCH  21  23
ENDBRANCH  14  21
ENDBRANCH   1  14
TORSDOF 6
ENDMDL
MODEL 2
REMARK VINA RESULT:    -7.407      1.648      2.603
REMARK INTER + INTRA:         -10.466
REMARK INTER:                  -9.706
REMARK INTRA:                  -0.760
REMARK UNBOUND:                -0.461
REMARK  Name = 
REMARK  7 active torsions:
REMARK  status: ('A' for Active; 'I' for Inactive)
REMARK    1  A    between atoms: C_1  and  O_2
REMARK    2  A    between atoms: O_2  and  C_3
REMARK    3  A    between atoms: C_3  and  C_4
REMARK    4  A    between atoms: C_4  and  N_5
REMARK    5  A    between atoms: C_4  and  C_15
REMARK    6  A    between atoms: N_5  and  C_6
REMARK    7  A    between atoms: C_9  and  C_10
REMARK                            x       y       z     vdW  Elec       q    Type
REMARK                         _______ _______ _______ _____ _____    ______ ____
ROOT
ATOM      1  N   UNL     1      44.152   5.045  10.131  0.00  0.00    +0.000 N 
ATOM      2  H   UNL     1      43.253   5.278   9.714  0.00  0.00    +0.000 HD
ENDROOT
BRANCH   1   3
ATOM      3  C   UNL     1      44.818   4.107   9.358  0.00  0.00    +0.000 A 
ATOM      4  C   UNL     1      45.703   4.596   8.381  0.00  0.00    +0.000 A 
ATOM      5  C   UNL     1      46.475   3.739   7.592  0.00  0.00    +0.000 A 
ATOM      6  C   UNL     1      46.401   2.360   7.784  0.00  0.00    +0.000 A 
ATOM      7  C   UNL     1      45.513   1.852   8.739  0.00  0.00    +0.000 A 
ATOM      8  C   UNL     1      44.728   2.724   9.515  0.00  0.00    +0.000 A 
BRANCH   6   9
ATOM      9  C   UNL     1      47.289   1.490   6.967  0.00  0.00    +0.000 C 
ATOM     10  N   UNL     1      48.399   2.063   6.413  0.00  0.00    +0.000 N 
ATOM     11  O   UNL     1      47.019   0.315   6.753  0.00  0.00    +0.000 OA
ATOM     12  H   UNL     1      48.520   3.064   6.354  0.00  0.00    +0.000 HD
ATOM     13  H   UNL     1      48.902   1.492   5.744  0.00  0.00    +0.000 HD
ENDBRANCH   6   9
ENDBRANCH   1   3
BRANCH   1  14
ATOM     14  C   UNL     1      44.742   6.190  10.841  0.00  0.00    +0.000 C 
BRANCH  14  15
ATOM     15  C   UNL     1      45.723   5.794  11.942  0.00  0.00    +0.000 A 
ATOM     16  C   UNL     1      46.988   6.410  11.999  0.00  0.00    +0.000 A 
ATOM     17  C   UNL     1      47.849   6.194  13.079  0.00  0.00    +0.000 A 
ATOM     18  C   UNL     1      47.469   5.349  14.118  0.00  0.00    +0.000 A 
ATOM     19  C   UNL     1      46.237   4.706  14.067  0.00  0.00    +0.000 A 
ATOM     20  C   UNL     1      45.373   4.925  12.990  0.00  0.00    +0.000 A 
ENDBRANCH  14  15
BRANCH  14  21
ATOM     21  C   UNL     1      43.680   7.265  11.182  0.00  0.00    +0.000 C 
BRANCH  21  23
ATOM     22  C   UNL     1      43.609   9.592  10.708  0.00  0.00    +0.000 C 
ATOM     23  O   UNL     1      44.320   8.540  11.343  0.00  0.00    +0.000 OA
ENDBRANCH  21  23
ENDBRANCH  14  21
ENDBRANCH   1  14
TORSDOF 6
ENDMDL
MODEL 3
REMARK VINA RESULT:    -6.805      2.728      6.500
REMARK INTER + INTRA:          -9.652
REMARK INTER:                  -8.937
REMARK INTRA:                  -0.716
REMARK UNBOUND:                -0.461
REMARK  Name = 
REMARK  7 active torsions:
REMARK  status: ('A' for Active; 'I' for Inactive)
REMARK    1  A    between atoms: C_1  and  O_2
REMARK    2  A    between atoms: O_2  and  C_3
REMARK    3  A    between atoms: C_3  and  C_4
REMARK    4  A    between atoms: C_4  and  N_5
REMARK    5  A    between atoms: C_4  and  C_15
REMARK    6  A    between atoms: N_5  and  C_6
REMARK    7  A    between atoms: C_9  and  C_10
REMARK                            x       y       z     vdW  Elec       q    Type
REMARK                         _______ _______ _______ _____ _____    ______ ____
ROOT
ATOM      1  N   UNL     1      45.672   5.764  10.523  0.00  0.00    +0.000 N 
ATOM      2  H   UNL     1      45.164   6.551  10.123  0.00  0.00    +0.000 HD
ENDROOT
BRANCH   1   3
ATOM      3  C   UNL     1      46.388   6.164  11.639  0.00  0.00    +0.000 A 
ATOM      4  C   UNL     1      46.372   5.305  12.751  0.00  0.00    +0.000 A 
ATOM      5  C   UNL     1      47.114   5.579  13.904  0.00  0.00    +0.000 A 
ATOM      6  C   UNL     1      47.919   6.715  13.961  0.00  0.00    +0.000 A 
ATOM      7  C   UNL     1      47.934   7.594  12.871  0.00  0.00    +0.000 A 
ATOM      8  C   UNL     1      47.170   7.316  11.723  0.00  0.00    +0.000 A 
BRANCH   6   9
ATOM      9  C   UNL     1      48.741   6.932  15.182  0.00  0.00    +0.000 C 
ATOM     10  N   UNL     1      48.292   7.850  16.089  0.00  0.00    +0.000 N 
ATOM     11  O   UNL     1      49.804   6.350  15.354  0.00  0.00    +0.000 OA
ATOM     12  H   UNL     1      47.570   8.521  15.870  0.00  0.00    +0.000 HD
ATOM     13  H   UNL     1      48.939   8.087  16.832  0.00  0.00    +0.000 HD
ENDBRANCH   6   9
ENDBRANCH   1   3
BRANCH   1  14
ATOM     14  C   UNL     1      44.951   4.495  10.339  0.00  0.00    +0.000 C 
BRANCH  14  15
ATOM     15  C   UNL     1      45.457   3.664   9.162  0.00  0.00    +0.000 A 
ATOM     16  C   UNL     1      46.052   4.310   8.061  0.00  0.00    +0.000 A 
ATOM     17  C   UNL     1      46.669   3.580   7.041  0.00  0.00    +0.000 A 
ATOM     18  C   UNL     1      46.694   2.189   7.094  0.00  0.00    +0.000 A 
ATOM     19  C   UNL     1      46.085   1.529   8.157  0.00  0.00    +0.000 A 
ATOM     20  C   UNL     1      45.472   2.259   9.179  0.00  0.00    +0.000 A 
ENDBRANCH  14  15
BRANCH  14  21
ATOM     21  C   UNL     1      43.419   4.678  10.479  0.00  0.00    +0.000 C 
BRANCH  21  23
ATOM     22  C   UNL     1      43.479   3.022  12.181  0.00  0.00    +0.000 C 
ATOM     23  O   UNL     1      43.010   4.307  11.805  0.00  0.00    +0.000 OA
ENDBRANCH  21  23
ENDBRANCH  14  21
ENDBRANCH   1  14
TORSDOF 6
ENDMDL
MODEL 4
REMARK VINA RESULT:    -6.525      3.185      6.683
REMARK INTER + INTRA:          -9.274
REMARK INTER:                  -8.603
REMARK INTRA:                  -0.671
REMARK UNBOUND:                -0.461
REMARK  Name = 
REMARK  7 active torsions:
REMARK  status: ('A' for Active; 'I' for Inactive)
REMARK    1  A    between atoms: C_1  and  O_2
REMARK    2  A    between atoms: O_2  and  C_3
REMARK    3  A    between atoms: C_3  and  C_4
REMARK    4  A    between atoms: C_4  and  N_5
REMARK    5  A    between atoms: C_4  and  C_15
REMARK    6  A    between atoms: N_5  and  C_6
REMARK    7  A    between atoms: C_9  and  C_10
REMARK                            x       y       z     vdW  Elec       q    Type
REMARK                         _______ _______ _______ _____ _____    ______ ____
ROOT
ATOM      1  N   UNL     1      46.062   5.887  11.504  0.00  0.00    +0.000 N 
ATOM      2  H   UNL     1      46.098   6.812  11.080  0.00  0.00    +0.000 HD
ENDROOT
BRANCH   1   3
ATOM      3  C   UNL     1      46.667   5.901  12.750  0.00  0.00    +0.000 A 
ATOM      4  C   UNL     1      46.397   4.818  13.604  0.00  0.00    +0.000 A 
ATOM      5  C   UNL     1      47.007   4.697  14.856  0.00  0.00    +0.000 A 
ATOM      6  C   UNL     1      47.934   5.652  15.275  0.00  0.00    +0.000 A 
ATOM      7  C   UNL     1      48.202   6.748  14.447  0.00  0.00    +0.000 A 
ATOM      8  C   UNL     1      47.570   6.867  13.196  0.00  0.00    +0.000 A 
BRANCH   6   9
ATOM      9  C   UNL     1      48.606   5.449  16.586  0.00  0.00    +0.000 C 
ATOM     10  N   UNL     1      47.893   5.744  17.713  0.00  0.00    +0.000 N 
ATOM     11  O   UNL     1      49.770   5.076  16.662  0.00  0.00    +0.000 OA
ATOM     12  H   UNL     1      47.039   6.283  17.689  0.00  0.00    +0.000 HD
ATOM     13  H   UNL     1      48.418   5.740  18.579  0.00  0.00    +0.000 HD
ENDBRANCH   6   9
ENDBRANCH   1   3
BRANCH   1  14
ATOM     14  C   UNL     1      44.850   5.151  11.114  0.00  0.00    +0.000 C 
BRANCH  14  15
ATOM     15  C   UNL     1      45.059   4.198   9.939  0.00  0.00    +0.000 A 
ATOM     16  C   UNL     1      45.678   4.669   8.765  0.00  0.00    +0.000 A 
ATOM     17  C   UNL     1      46.030   3.794   7.733  0.00  0.00    +0.000 A 
ATOM     18  C   UNL     1      45.762   2.434   7.848  0.00  0.00    +0.000 A 
ATOM     19  C   UNL     1      45.124   1.951   8.986  0.00  0.00    +0.000 A 
ATOM     20  C   UNL     1      44.775   2.824  10.020  0.00  0.00    +0.000 A 
ENDBRANCH  14  15
BRANCH  14  21
ATOM     21  C   UNL     1      43.605   6.072  11.075  0.00  0.00    +0.000 C 
BRANCH  21  23
ATOM     22  C   UNL     1      42.859   4.871  12.984  0.00  0.00    +0.000 C 
ATOM     23  O   UNL     1      42.503   5.419  11.724  0.00  0.00    +0.000 OA
ENDBRANCH  21  23
ENDBRANCH  14  21
ENDBRANCH   1  14
TORSDOF 6
ENDMDL
MODEL 5
REMARK VINA RESULT:    -6.287      1.363      2.173
REMARK INTER + INTRA:          -8.953
REMARK INTER:                  -8.465
REMARK INTRA:                  -0.488
REMARK UNBOUND:                -0.461
REMARK  Name = 
REMARK  7 active torsions:
REMARK  status: ('A' for Active; 'I' for Inactive)
REMARK    1  A    between atoms: C_1  and  O_2
REMARK    2  A    between atoms: O_2  and  C_3
REMARK    3  A    between atoms: C_3  and  C_4
REMARK    4  A    between atoms: C_4  and  N_5
REMARK    5  A    between atoms: C_4  and  C_15
REMARK    6  A    between atoms: N_5  and  C_6
REMARK    7  A    between atoms: C_9  and  C_10
REMARK                            x       y       z     vdW  Elec       q    Type
REMARK                         _______ _______ _______ _____ _____    ______ ____
ROOT
ATOM      1  N   UNL     1      44.113   5.371  10.445  0.00  0.00    +0.000 N 
ATOM      2  H   UNL     1      43.531   5.941   9.834  0.00  0.00    +0.000 HD
ENDROOT
BRANCH   1   3
ATOM      3  C   UNL     1      44.848   4.460   9.703  0.00  0.00    +0.000 A 
ATOM      4  C   UNL     1      44.639   3.097   9.974  0.00  0.00    +0.000 A 
ATOM      5  C   UNL     1      45.277   2.093   9.240  0.00  0.00    +0.000 A 
ATOM      6  C   UNL     1      46.126   2.433   8.187  0.00  0.00    +0.000 A 
ATOM      7  C   UNL     1      46.362   3.785   7.913  0.00  0.00    +0.000 A 
ATOM      8  C   UNL     1      45.727   4.787   8.670  0.00  0.00    +0.000 A 
BRANCH   6   9
ATOM      9  C   UNL     1      46.732   1.332   7.392  0.00  0.00    +0.000 C 
ATOM     10  N   UNL     1      47.219   1.642   6.153  0.00  0.00    +0.000 N 
ATOM     11  O   UNL     1      46.757   0.179   7.803  0.00  0.00    +0.000 OA
ATOM     12  H   UNL     1      46.994   2.507   5.683  0.00  0.00    +0.000 HD
ATOM     13  H   UNL     1      47.488   0.854   5.577  0.00  0.00    +0.000 HD
ENDBRANCH   6   9
ENDBRANCH   1   3
BRANCH   1  14
ATOM     14  C   UNL     1      44.561   6.117  11.630  0.00  0.00    +0.000 C 
BRANCH  14  15
ATOM     15  C   UNL     1      44.473   7.634  11.473  0.00  0.00    +0.000 A 
ATOM     16  C   UNL     1      43.371   8.199  10.802  0.00  0.00    +0.000 A 
ATOM     17  C   UNL     1      43.173   9.583  10.777  0.00  0.00    +0.000 A 
ATOM     18  C   UNL     1      44.077  10.430  11.411  0.00  0.00    +0.000 A 
ATOM     19  C   UNL     1      45.188   9.895  12.053  0.00  0.00    +0.000 A 
ATOM     20  C   UNL     1      45.385   8.512  12.083  0.00  0.00    +0.000 A 
ENDBRANCH  14  15
BRANCH  14  21
ATOM     21  C   UNL     1      45.871   5.533  12.216  0.00  0.00    +0.000 C 
BRANCH  21  23
ATOM     22  C   UNL     1      46.708   4.443  14.154  0.00  0.00    +0.000 C 
ATOM     23  O   UNL     1      45.703   5.293  13.622  0.00  0.00    +0.000 OA
ENDBRANCH  21  23
ENDBRANCH  14  21
ENDBRANCH   1  14
TORSDOF 6
ENDMDL
MODEL 6
REMARK VINA RESULT:    -5.939      4.102      5.835
REMARK INTER + INTRA:          -8.483
REMARK INTER:                  -7.789
REMARK INTRA:                  -0.694
REMARK UNBOUND:                -0.461
REMARK  Name = 
REMARK  7 active torsions:
REMARK  status: ('A' for Active; 'I' for Inactive)
REMARK    1  A    between atoms: C_1  and  O_2
REMARK    2  A    between atoms: O_2  and  C_3
REMARK    3  A    between atoms: C_3  and  C_4
REMARK    4  A    between atoms: C_4  and  N_5
REMARK    5  A    between atoms: C_4  and  C_15
REMARK    6  A    between atoms: N_5  and  C_6
REMARK    7  A    between atoms: C_9  and  C_10
REMARK                            x       y       z     vdW  Elec       q    Type
REMARK                         _______ _______ _______ _____ _____    ______ ____
ROOT
ATOM      1  N   UNL     1      46.841   5.987  14.335  0.00  0.00    +0.000 N 
ATOM      2  H   UNL     1      46.544   6.952  14.463  0.00  0.00    +0.000 HD
ENDROOT
BRANCH   1   3
ATOM      3  C   UNL     1      46.313   5.469  13.163  0.00  0.00    +0.000 A 
ATOM      4  C   UNL     1      45.777   4.171  13.223  0.00  0.00    +0.000 A 
ATOM      5  C   UNL     1      45.159   3.577  12.118  0.00  0.00    +0.000 A 
ATOM      6  C   UNL     1      45.035   4.288  10.924  0.00  0.00    +0.000 A 
ATOM      7  C   UNL     1      45.578   5.575  10.839  0.00  0.00    +0.000 A 
ATOM      8  C   UNL     1      46.213   6.155  11.953  0.00  0.00    +0.000 A 
BRANCH   6   9
ATOM      9  C   UNL     1      44.312   3.642   9.796  0.00  0.00    +0.000 C 
ATOM     10  N   UNL     1      44.065   4.402   8.687  0.00  0.00    +0.000 N 
ATOM     11  O   UNL     1      43.908   2.488   9.866  0.00  0.00    +0.000 OA
ATOM     12  H   UNL     1      44.153   5.408   8.689  0.00  0.00    +0.000 HD
ATOM     13  H   UNL     1      43.447   3.989   8.000  0.00  0.00    +0.000 HD
ENDBRANCH   6   9
ENDBRANCH   1   3
BRANCH   1  14
ATOM     14  C   UNL     1      48.184   5.747  14.884  0.00  0.00    +0.000 C 
BRANCH  14  15
ATOM     15  C   UNL     1      48.179   5.009  16.222  0.00  0.00    +0.000 A 
ATOM     16  C   UNL     1      47.404   3.843  16.368  0.00  0.00    +0.000 A 
ATOM     17  C   UNL     1      47.496   3.053  17.518  0.00  0.00    +0.000 A 
ATOM     18  C   UNL     1      48.356   3.418  18.549  0.00  0.00    +0.000 A 
ATOM     19  C   UNL     1      49.108   4.583  18.439  0.00  0.00    +0.000 A 
ATOM     20  C   UNL     1      49.020   5.371  17.288  0.00  0.00    +0.000 A 
ENDBRANCH  14  15
BRANCH  14  21
ATOM     21  C   UNL     1      49.088   7.000  14.762  0.00  0.00    +0.000 C 
BRANCH  21  23
ATOM     22  C   UNL     1      49.324   8.217  12.735  0.00  0.00    +0.000 C 
ATOM     23  O   UNL     1      49.674   7.043  13.452  0.00  0.00    +0.000 OA
ENDBRANCH  21  23
ENDBRANCH  14  21
ENDBRANCH   1  14
TORSDOF 6
ENDMDL
MODEL 7
REMARK VINA RESULT:    -5.937      3.520      6.774
REMARK INTER + INTRA:          -8.480
REMARK INTER:                  -7.950
REMARK INTRA:                  -0.530
REMARK UNBOUND:                -0.461
REMARK  Name = 
REMARK  7 active torsions:
REMARK  status: ('A' for Active; 'I' for Inactive)
REMARK    1  A    between atoms: C_1  and  O_2
REMARK    2  A    between atoms: O_2  and  C_3
REMARK    3  A    between atoms: C_3  and  C_4
REMARK    4  A    between atoms: C_4  and  N_5
REMARK    5  A    between atoms: C_4  and  C_15
REMARK    6  A    between atoms: N_5  and  C_6
REMARK    7  A    between atoms: C_9  and  C_10
REMARK                            x       y       z     vdW  Elec       q    Type
REMARK                         _______ _______ _______ _____ _____    ______ ____
ROOT
ATOM      1  N   UNL     1      46.058   3.590  13.138  0.00  0.00    +0.000 N 
ATOM      2  H   UNL     1      46.653   2.957  12.608  0.00  0.00    +0.000 HD
ENDROOT
BRANCH   1   3
ATOM      3  C   UNL     1      46.826   4.533  13.804  0.00  0.00    +0.000 A 
ATOM      4  C   UNL     1      47.080   4.304  15.167  0.00  0.00    +0.000 A 
ATOM      5  C   UNL     1      47.897   5.155  15.917  0.00  0.00    +0.000 A 
ATOM      6  C   UNL     1      48.509   6.249  15.307  0.00  0.00    +0.000 A 
ATOM      7  C   UNL     1      48.253   6.505  13.955  0.00  0.00    +0.000 A 
ATOM      8  C   UNL     1      47.416   5.651  13.214  0.00  0.00    +0.000 A 
BRANCH   6   9
ATOM      9  C   UNL     1      49.422   7.090  16.127  0.00  0.00    +0.000 C 
ATOM     10  N   UNL     1      50.766   6.903  15.968  0.00  0.00    +0.000 N 
ATOM     11  O   UNL     1      48.995   7.889  16.951  0.00  0.00    +0.000 OA
ATOM     12  H   UNL     1      51.149   6.096  15.497  0.00  0.00    +0.000 HD
ATOM     13  H   UNL     1      51.358   7.376  16.639  0.00  0.00    +0.000 HD
ENDBRANCH   6   9
ENDBRANCH   1   3
BRANCH   1  14
ATOM     14  C   UNL     1      44.761   3.806  12.481  0.00  0.00    +0.000 C 
BRANCH  14  15
ATOM     15  C   UNL     1      44.822   3.731  10.957  0.00  0.00    +0.000 A 
ATOM     16  C   UNL     1      45.353   4.814  10.230  0.00  0.00    +0.000 A 
ATOM     17  C   UNL     1      45.573   4.721   8.853  0.00  0.00    +0.000 A 
ATOM     18  C   UNL     1      45.257   3.550   8.172  0.00  0.00    +0.000 A 
ATOM     19  C   UNL     1      44.703   2.478   8.865  0.00  0.00    +0.000 A 
ATOM     20  C   UNL     1      44.486   2.568  10.243  0.00  0.00    +0.000 A 
ENDBRANCH  14  15
BRANCH  14  21
ATOM     21  C   UNL     1      43.988   4.994  13.109  0.00  0.00    +0.000 C 
BRANCH  21  23
ATOM     22  C   UNL     1      42.172   5.814  11.816  0.00  0.00    +0.000 C 
ATOM     23  O   UNL     1      42.591   4.877  12.796  0.00  0.00    +0.000 OA
ENDBRANCH  21  23
ENDBRANCH  14  21
ENDBRANCH   1  14
TORSDOF 6
ENDMDL
MODEL 8
REMARK VINA RESULT:    -5.848      3.767      7.020
REMARK INTER + INTRA:          -8.359
REMARK INTER:                  -7.734
REMARK INTRA:                  -0.625
REMARK UNBOUND:                -0.461
REMARK  Name = 
REMARK  7 active torsions:
REMARK  status: ('A' for Active; 'I' for Inactive)
REMARK    1  A    between atoms: C_1  and  O_2
REMARK    2  A    between atoms: O_2  and  C_3
REMARK    3  A    between atoms: C_3  and  C_4
REMARK    4  A    between atoms: C_4  and  N_5
REMARK    5  A    between atoms: C_4  and  C_15
REMARK    6  A    between atoms: N_5  and  C_6
REMARK    7  A    between atoms: C_9  and  C_10
REMARK                            x       y       z     vdW  Elec       q    Type
REMARK                         _______ _______ _______ _____ _____    ______ ____
ROOT
ATOM      1  N   UNL     1      46.770   6.006  12.237  0.00  0.00    +0.000 N 
ATOM      2  H   UNL     1      47.299   6.823  11.939  0.00  0.00    +0.000 HD
ENDROOT
BRANCH   1   3
ATOM      3  C   UNL     1      47.176   5.599  13.498  0.00  0.00    +0.000 A 
ATOM      4  C   UNL     1      48.029   6.464  14.205  0.00  0.00    +0.000 A 
ATOM      5  C   UNL     1      48.445   6.185  15.510  0.00  0.00    +0.000 A 
ATOM      6  C   UNL     1      47.988   5.036  16.156  0.00  0.00    +0.000 A 
ATOM      7  C   UNL     1      47.153   4.153  15.463  0.00  0.00    +0.000 A 
ATOM      8  C   UNL     1      46.755   4.437  14.144  0.00  0.00    +0.000 A 
BRANCH   6   9
ATOM      9  C   UNL     1      48.404   4.812  17.566  0.00  0.00    +0.000 C 
ATOM     10  N   UNL     1      47.548   4.118  18.374  0.00  0.00    +0.000 N 
ATOM     11  O   UNL     1      49.450   5.269  18.009  0.00  0.00    +0.000 OA
ATOM     12  H   UNL     1      46.585   3.948  18.125  0.00  0.00    +0.000 HD
ATOM     13  H   UNL     1      47.784   4.109  19.359  0.00  0.00    +0.000 HD
ENDBRANCH   6   9
ENDBRANCH   1   3
BRANCH   1  14
ATOM     14  C   UNL     1      45.399   6.014  11.706  0.00  0.00    +0.000 C 
BRANCH  14  15
ATOM     15  C   UNL     1      45.154   4.973  10.617  0.00  0.00    +0.000 A 
ATOM     16  C   UNL     1      45.674   5.183   9.325  0.00  0.00    +0.000 A 
ATOM     17  C   UNL     1      45.609   4.186   8.348  0.00  0.00    +0.000 A 
ATOM     18  C   UNL     1      45.013   2.962   8.638  0.00  0.00    +0.000 A 
ATOM     19  C   UNL     1      44.466   2.743   9.898  0.00  0.00    +0.000 A 
ATOM     20  C   UNL     1      44.534   3.738  10.876  0.00  0.00    +0.000 A 
ENDBRANCH  14  15
BRANCH  14  21
ATOM     21  C   UNL     1      44.892   7.455  11.445  0.00  0.00    +0.000 C 
BRANCH  21  23
ATOM     22  C   UNL     1      45.362   9.657  12.202  0.00  0.00    +0.000 C 
ATOM     23  O   UNL     1      45.224   8.292  12.564  0.00  0.00    +0.000 OA
ENDBRANCH  21  23
ENDBRANCH  14  21
ENDBRANCH   1  14
TORSDOF 6
ENDMDL
MODEL 9
REMARK VINA RESULT:    -5.741      3.203      6.531
REMARK INTER + INTRA:          -8.215
REMARK INTER:                  -7.466
REMARK INTRA:                  -0.750
REMARK UNBOUND:                -0.461
REMARK  Name = 
REMARK  7 active torsions:
REMARK  status: ('A' for Active; 'I' for Inactive)
REMARK    1  A    between atoms: C_1  and  O_2
REMARK    2  A    between atoms: O_2  and  C_3
REMARK    3  A    between atoms: C_3  and  C_4
REMARK    4  A    between atoms: C_4  and  N_5
REMARK    5  A    between atoms: C_4  and  C_15
REMARK    6  A    between atoms: N_5  and  C_6
REMARK    7  A    between atoms: C_9  and  C_10
REMARK                            x       y       z     vdW  Elec       q    Type
REMARK                         _______ _______ _______ _____ _____    ______ ____
ROOT
ATOM      1  N   UNL     1      45.226   6.733  11.795  0.00  0.00    +0.000 N 
ATOM      2  H   UNL     1      44.355   7.054  12.212  0.00  0.00    +0.000 HD
ENDROOT
BRANCH   1   3
ATOM      3  C   UNL     1      46.206   7.706  11.910  0.00  0.00    +0.000 A 
ATOM      4  C   UNL     1      47.540   7.292  11.751  0.00  0.00    +0.000 A 
ATOM      5  C   UNL     1      48.602   8.201  11.780  0.00  0.00    +0.000 A 
ATOM      6  C   UNL     1      48.348   9.563  11.941  0.00  0.00    +0.000 A 
ATOM      7  C   UNL     1      47.029   9.993  12.120  0.00  0.00    +0.000 A 
ATOM      8  C   UNL     1      45.970   9.067  12.105  0.00  0.00    +0.000 A 
BRANCH   6   9
ATOM      9  C   UNL     1      49.503  10.500  11.901  0.00  0.00    +0.000 C 
ATOM     10  N   UNL     1      50.136  10.772  13.081  0.00  0.00    +0.000 N 
ATOM     11  O   UNL     1      49.851  11.050  10.863  0.00  0.00    +0.000 OA
ATOM     12  H   UNL     1      49.733  10.545  13.978  0.00  0.00    +0.000 HD
ATOM     13  H   UNL     1      50.817  11.521  13.052  0.00  0.00    +0.000 HD
ENDBRANCH   6   9
ENDBRANCH   1   3
BRANCH   1  14
ATOM     14  C   UNL     1      45.399   5.279  11.933  0.00  0.00    +0.000 C 
BRANCH  14  15
ATOM     15  C   UNL     1      45.155   4.504  10.640  0.00  0.00    +0.000 A 
ATOM     16  C   UNL     1      45.614   5.031   9.418  0.00  0.00    +0.000 A 
ATOM     17  C   UNL     1      45.552   4.282   8.239  0.00  0.00    +0.000 A 
ATOM     18  C   UNL     1      45.020   2.996   8.255  0.00  0.00    +0.000 A 
ATOM     19  C   UNL     1      44.532   2.467   9.445  0.00  0.00    +0.000 A 
ATOM     20  C   UNL     1      44.598   3.214  10.625  0.00  0.00    +0.000 A 
ENDBRANCH  14  15
BRANCH  14  21
ATOM     21  C   UNL     1      44.736   4.741  13.226  0.00  0.00    +0.000 C 
BRANCH  21  23
ATOM     22  C   UNL     1      46.836   4.664  14.334  0.00  0.00    +0.000 C 
ATOM     23  O   UNL     1      45.679   3.936  13.951  0.00  0.00    +0.000 OA
ENDBRANCH  21  23
ENDBRANCH  14  21
ENDBRANCH   1  14
TORSDOF 6
ENDMDL
