MODEL 1
REMARK VINA RESULT:    -7.754      0.000      0.000
REMARK INTER + INTRA:         -10.230
REMARK INTER:                  -9.794
REMARK INTRA:                  -0.436
REMARK UNBOUND:                -0.436
REMARK  Name = 
REMARK  5 active torsions:
REMARK  status: ('A' for Active; 'I' for Inactive)
REMARK    1  A    between atoms: N_1  and  C_2
REMARK    2  A    between atoms: C_2  and  C_3
REMARK    3  A    between atoms: C_3  and  C_4
REMARK    4  A    between atoms: C_7  and  C_8
REMARK    5  A    between atoms: C_8  and  N_9
REMARK                            x       y       z     vdW  Elec       q    Type
REMARK                         _______ _______ _______ _____ _____    ______ ____
ROOT
ATOM      1  C   UNL     1      46.146   2.175   7.788  0.00  0.00    +0.000 A 
ATOM      2  C   UNL     1      45.347   1.603   8.775  0.00  0.00    +0.000 A 
ATOM      3  C   UNL     1      44.548   2.407   9.604  0.00  0.00    +0.000 A 
ATOM      4  C   UNL     1      44.549   3.807   9.459  0.00  0.00    +0.000 A 
ATOM      5  C   UNL     1      45.319   4.362   8.435  0.00  0.00    +0.000 A 
ATOM      6  C   UNL     1      46.103   3.563   7.597  0.00  0.00    +0.000 A 
ENDROOT
BRANCH   1   7
ATOM      7  C   UNL     1      47.045   1.306   6.943  0.00  0.00    +0.000 C 
BRANCH   7   8
ATOM      8  C   UNL     1      48.324   2.038   6.531  0.00  0.00    +0.000 C 
BRANCH   8   9
ATOM      9  N   UNL     1      48.382   2.228   5.084  0.00  0.00    +0.000 NA
ATOM     10  H   UNL     1      49.292   2.610   4.833  0.00  0.00    +0.000 HD
ATOM     11  H   UNL     1      47.692   2.928   4.804  0.00  0.00    +0.000 HD
ENDBRANCH   8   9
ENDBRANCH   7   8
ENDBRANCH   1   7
BRANCH   4  12
ATOM     12  C   UNL     1      43.755   4.716  10.375  0.00  0.00    +0.000 C 
BRANCH  12  13
ATOM     13  N   UNL     1      44.353   4.849  11.695  0.00  0.00    +0.000 N 
ATOM     14  C   UNL     1      43.924   4.231  12.840  0.00  0.00    +0.000 A 
ATOM     15  N   UNL     1      44.722   4.475  13.860  0.00  0.00    +0.000 NA
ATOM     16  C   UNL     1      45.709   5.286  13.354  0.00  0.00    +0.000 A 
ATOM     17  C   UNL     1      46.876   5.787  13.937  0.00  0.00    +0.000 A 
ATOM     18  C   UNL     1      47.713   6.543  13.116  0.00  0.00    +0.000 A 
ATOM     19 CL   UNL     1      49.205   7.143  13.725  0.00  0.00    +0.000 Cl
ATOM     20  C   UNL     1      47.339   6.794  11.796  0.00  0.00    +0.000 A 
ATOM     21  N   UNL     1      46.205   6.352  11.191  0.00  0.00    +0.000 NA
ATOM     22  C   UNL     1      45.462   5.581  12.012  0.00  0.00    +0.000 A 
ENDBRANCH  12  13
ENDBRANCH   4  12
TORSDOF 5
ENDMDL
MODEL 2
REMARK VINA RESULT:    -7.240      1.986      2.376
REMARK INTER + INTRA:          -9.581
REMARK INTER:                  -9.130
REMARK INTRA:                  -0.451
REMARK UNBOUND:                -0.436
REMARK  Name = 
REMARK  5 active torsions:
REMARK  status: ('A' for Active; 'I' for Inactive)
REMARK    1  A    between atoms: N_1  and  C_2
REMARK    2  A    between atoms: C_2  and  C_3
REMARK    3  A    between atoms: C_3  and  C_4
REMARK    4  A    between atoms: C_7  and  C_8
REMARK    5  A    between atoms: C_8  and  N_9
REMARK                            x       y       z     vdW  Elec       q    Type
REMARK                         _______ _______ _______ _____ _____    ______ ____
ROOT
ATOM      1  C   UNL     1      46.033   2.421   7.854  0.00  0.00    +0.000 A 
ATOM      2  C   UNL     1      46.075   3.813   7.855  0.00  0.00    +0.000 A 
ATOM      3  C   UNL     1      45.340   4.550   8.798  0.00  0.00    +0.000 A 
ATOM      4  C   UNL     1      44.540   3.895   9.751  0.00  0.00    +0.000 A 
ATOM      5  C   UNL     1      44.544   2.499   9.768  0.00  0.00    +0.000 A 
ATOM      6  C   UNL     1      45.288   1.762   8.841  0.00  0.00    +0.000 A 
ENDROOT
BRANCH   1   7
ATOM      7  C   UNL     1      46.780   1.640   6.800  0.00  0.00    +0.000 C 
BRANCH   7   8
ATOM      8  C   UNL     1      48.137   2.269   6.479  0.00  0.00    +0.000 C 
BRANCH   8   9
ATOM      9  N   UNL     1      48.274   2.527   5.047  0.00  0.00    +0.000 NA
ATOM     10  H   UNL     1      49.020   1.944   4.672  0.00  0.00    +0.000 HD
ATOM     11  H   UNL     1      48.568   3.495   4.902  0.00  0.00    +0.000 HD
ENDBRANCH   8   9
ENDBRANCH   7   8
ENDBRANCH   1   7
BRANCH   4  12
ATOM     12  C   UNL     1      43.678   4.653  10.742  0.00  0.00    +0.000 C 
BRANCH  12  13
ATOM     13  N   UNL     1      44.459   5.453  11.673  0.00  0.00    +0.000 N 
ATOM     14  C   UNL     1      45.292   4.971  12.647  0.00  0.00    +0.000 A 
ATOM     15  N   UNL     1      45.933   5.940  13.272  0.00  0.00    +0.000 NA
ATOM     16  C   UNL     1      45.495   7.098  12.677  0.00  0.00    +0.000 A 
ATOM     17  C   UNL     1      45.888   8.427  12.851  0.00  0.00    +0.000 A 
ATOM     18  C   UNL     1      45.278   9.376  12.031  0.00  0.00    +0.000 A 
ATOM     19 CL   UNL     1      45.748  11.027  12.124  0.00  0.00    +0.000 Cl
ATOM     20  C   UNL     1      44.298   8.972  11.123  0.00  0.00    +0.000 A 
ATOM     21  N   UNL     1      43.863   7.699  10.934  0.00  0.00    +0.000 NA
ATOM     22  C   UNL     1      44.525   6.817  11.712  0.00  0.00    +0.000 A 
ENDBRANCH  12  13
ENDBRANCH   4  12
TORSDOF 5
ENDMDL
MODEL 3
REMARK VINA RESULT:    -7.169      1.203      1.773
REMARK INTER + INTRA:          -9.492
REMARK INTER:                  -9.144
REMARK INTRA:                  -0.348
REMARK UNBOUND:                -0.436
REMARK  Name = 
REMARK  5 active torsions:
REMARK  status: ('A' for Active; 'I' for Inactive)
REMARK    1  A    between atoms: N_1  and  C_2
REMARK    2  A    between atoms: C_2  and  C_3
REMARK    3  A    between atoms: C_3  and  C_4
REMARK    4  A    between atoms: C_7  and  C_8
REMARK    5  A    between atoms: C_8  and  N_9
REMARK                            x       y       z     vdW  Elec       q    Type
REMARK                         _______ _______ _______ _____ _____    ______ ____
ROOT
ATOM      1  C   UNL     1      45.872   2.583   8.135  0.00  0.00    +0.000 A 
ATOM      2  C   UNL     1      45.119   1.995   9.148  0.00  0.00    +0.000 A 
ATOM      3  C   UNL     1      44.428   2.788  10.079  0.00  0.00    +0.000 A 
ATOM      4  C   UNL     1      44.494   4.192  10.010  0.00  0.00    +0.000 A 
ATOM      5  C   UNL     1      45.215   4.767   8.962  0.00  0.00    +0.000 A 
ATOM      6  C   UNL     1      45.890   3.979   8.023  0.00  0.00    +0.000 A 
ENDROOT
BRANCH   1   7
ATOM      7  C   UNL     1      46.657   1.721   7.176  0.00  0.00    +0.000 C 
BRANCH   7   8
ATOM      8  C   UNL     1      47.460   2.560   6.181  0.00  0.00    +0.000 C 
BRANCH   8   9
ATOM      9  N   UNL     1      48.595   1.808   5.650  0.00  0.00    +0.000 NA
ATOM     10  H   UNL     1      49.104   2.393   4.990  0.00  0.00    +0.000 HD
ATOM     11  H   UNL     1      48.253   1.006   5.117  0.00  0.00    +0.000 HD
ENDBRANCH   8   9
ENDBRANCH   7   8
ENDBRANCH   1   7
BRANCH   4  12
ATOM     12  C   UNL     1      43.821   5.084  11.033  0.00  0.00    +0.000 C 
BRANCH  12  13
ATOM     13  N   UNL     1      44.687   6.152  11.508  0.00  0.00    +0.000 N 
ATOM     14  C   UNL     1      44.534   7.488  11.248  0.00  0.00    +0.000 A 
ATOM     15  N   UNL     1      45.423   8.221  11.890  0.00  0.00    +0.000 NA
ATOM     16  C   UNL     1      46.184   7.319  12.594  0.00  0.00    +0.000 A 
ATOM     17  C   UNL     1      47.211   7.510  13.523  0.00  0.00    +0.000 A 
ATOM     18  C   UNL     1      47.744   6.365  14.114  0.00  0.00    +0.000 A 
ATOM     19 CL   UNL     1      48.962   6.504  15.319  0.00  0.00    +0.000 Cl
ATOM     20  C   UNL     1      47.271   5.109  13.732  0.00  0.00    +0.000 A 
ATOM     21  N   UNL     1      46.295   4.870  12.817  0.00  0.00    +0.000 NA
ATOM     22  C   UNL     1      45.777   6.012  12.320  0.00  0.00    +0.000 A 
ENDBRANCH  12  13
ENDBRANCH   4  12
TORSDOF 5
ENDMDL
MODEL 4
REMARK VINA RESULT:    -7.059      1.271      2.079
REMARK INTER + INTRA:          -9.353
REMARK INTER:                  -9.090
REMARK INTRA:                  -0.263
REMARK UNBOUND:                -0.436
REMARK  Name = 
REMARK  5 active torsions:
REMARK  status: ('A' for Active; 'I' for Inactive)
REMARK    1  A    between atoms: N_1  and  C_2
REMARK    2  A    between atoms: C_2  and  C_3
REMARK    3  A    between atoms: C_3  and  C_4
REMARK    4  A    between atoms: C_7  and  C_8
REMARK    5  A    between atoms: C_8  and  N_9
REMARK                            x       y       z     vdW  Elec       q    Type
REMARK                         _______ _______ _______ _____ _____    ______ ____
ROOT
ATOM      1  C   UNL     1      46.136   2.261   7.742  0.00  0.00    +0.000 A 
ATOM      2  C   UNL     1      46.223   3.649   7.677  0.00  0.00    +0.000 A 
ATOM      3  C   UNL     1      45.480   4.454   8.557  0.00  0.00    +0.000 A 
ATOM      4  C   UNL     1      44.627   3.871   9.512  0.00  0.00    +0.000 A 
ATOM      5  C   UNL     1      44.586   2.478   9.595  0.00  0.00    +0.000 A 
ATOM      6  C   UNL     1      45.337   1.674   8.732  0.00  0.00    +0.000 A 
ENDROOT
BRANCH   1   7
ATOM      7  C   UNL     1      46.894   1.408   6.754  0.00  0.00    +0.000 C 
BRANCH   7   8
ATOM      8  C   UNL     1      48.250   2.017   6.394  0.00  0.00    +0.000 C 
BRANCH   8   9
ATOM      9  N   UNL     1      48.271   2.481   5.009  0.00  0.00    +0.000 NA
ATOM     10  H   UNL     1      48.591   1.724   4.408  0.00  0.00    +0.000 HD
ATOM     11  H   UNL     1      48.957   3.232   4.912  0.00  0.00    +0.000 HD
ENDBRANCH   8   9
ENDBRANCH   7   8
ENDBRANCH   1   7
BRANCH   4  12
ATOM     12  C   UNL     1      43.757   4.702  10.433  0.00  0.00    +0.000 C 
BRANCH  12  13
ATOM     13  N   UNL     1      44.530   5.534  11.342  0.00  0.00    +0.000 N 
ATOM     14  C   UNL     1      44.477   6.900  11.426  0.00  0.00    +0.000 A 
ATOM     15  N   UNL     1      45.227   7.364  12.407  0.00  0.00    +0.000 NA
ATOM     16  C   UNL     1      45.789   6.250  12.981  0.00  0.00    +0.000 A 
ATOM     17  C   UNL     1      46.594   6.107  14.114  0.00  0.00    +0.000 A 
ATOM     18  C   UNL     1      46.952   4.807  14.470  0.00  0.00    +0.000 A 
ATOM     19 CL   UNL     1      47.883   4.526  15.888  0.00  0.00    +0.000 Cl
ATOM     20  C   UNL     1      46.536   3.736  13.677  0.00  0.00    +0.000 A 
ATOM     21  N   UNL     1      45.776   3.825  12.555  0.00  0.00    +0.000 NA
ATOM     22  C   UNL     1      45.412   5.097  12.289  0.00  0.00    +0.000 A 
ENDBRANCH  12  13
ENDBRANCH   4  12
TORSDOF 5
ENDMDL
MODEL 5
REMARK VINA RESULT:    -6.429      2.875      6.571
REMARK INTER + INTRA:          -8.556
REMARK INTER:                  -8.282
REMARK INTRA:                  -0.274
REMARK UNBOUND:                -0.436
REMARK  Name = 
REMARK  5 active torsions:
REMARK  status: ('A' for Active; 'I' for Inactive)
REMARK    1  A    between atoms: N_1  and  C_2
REMARK    2  A    between atoms: C_2  and  C_3
REMARK    3  A    between atoms: C_3  and  C_4
REMARK    4  A    between atoms: C_7  and  C_8
REMARK    5  A    between atoms: C_8  and  N_9
REMARK                            x       y       z     vdW  Elec       q    Type
REMARK                         _______ _______ _______ _____ _____    ______ ____
ROOT
ATOM      1  C   UNL     1      47.199   7.840  13.100  0.00  0.00    +0.000 A 
ATOM      2  C   UNL     1      46.340   8.645  12.357  0.00  0.00    +0.000 A 
ATOM      3  C   UNL     1      45.192   8.104  11.755  0.00  0.00    +0.000 A 
ATOM      4  C   UNL     1      44.896   6.734  11.884  0.00  0.00    +0.000 A 
ATOM      5  C   UNL     1      45.741   5.949  12.670  0.00  0.00    +0.000 A 
ATOM      6  C   UNL     1      46.876   6.489  13.284  0.00  0.00    +0.000 A 
ENDROOT
BRANCH   1   7
ATOM      7  C   UNL     1      48.460   8.420  13.692  0.00  0.00    +0.000 C 
BRANCH   7   8
ATOM      8  C   UNL     1      48.508   8.249  15.211  0.00  0.00    +0.000 C 
BRANCH   8   9
ATOM      9  N   UNL     1      47.605   9.184  15.878  0.00  0.00    +0.000 NA
ATOM     10  H   UNL     1      47.563   8.960  16.870  0.00  0.00    +0.000 HD
ATOM     11  H   UNL     1      46.657   9.059  15.517  0.00  0.00    +0.000 HD
ENDBRANCH   8   9
ENDBRANCH   7   8
ENDBRANCH   1   7
BRANCH   4  12
ATOM     12  C   UNL     1      43.707   6.096  11.195  0.00  0.00    +0.000 C 
BRANCH  12  13
ATOM     13  N   UNL     1      43.956   4.718  10.799  0.00  0.00    +0.000 N 
ATOM     14  C   UNL     1      43.363   3.606  11.334  0.00  0.00    +0.000 A 
ATOM     15  N   UNL     1      43.724   2.504  10.707  0.00  0.00    +0.000 NA
ATOM     16  C   UNL     1      44.588   2.921   9.724  0.00  0.00    +0.000 A 
ATOM     17  C   UNL     1      45.215   2.219   8.692  0.00  0.00    +0.000 A 
ATOM     18  C   UNL     1      45.997   2.963   7.809  0.00  0.00    +0.000 A 
ATOM     19 CL   UNL     1      46.751   2.198   6.467  0.00  0.00    +0.000 Cl
ATOM     20  C   UNL     1      46.149   4.336   8.014  0.00  0.00    +0.000 A 
ATOM     21  N   UNL     1      45.583   5.059   9.015  0.00  0.00    +0.000 NA
ATOM     22  C   UNL     1      44.794   4.300   9.804  0.00  0.00    +0.000 A 
ENDBRANCH  12  13
ENDBRANCH   4  12
TORSDOF 5
ENDMDL
MODEL 6
REMARK VINA RESULT:    -5.489      3.782      5.783
REMARK INTER + INTRA:          -7.370
REMARK INTER:                  -6.951
REMARK INTRA:                  -0.419
REMARK UNBOUND:                -0.436
REMARK  Name = 
REMARK  5 active torsions:
REMARK  status: ('A' for Active; 'I' for Inactive)
REMARK    1  A    between atoms: N_1  and  C_2
REMARK    2  A    between atoms: C_2  and  C_3
REMARK    3  A    between atoms: C_3  and  C_4
REMARK    4  A    between atoms: C_7  and  C_8
REMARK    5  A    between atoms: C_8  and  N_9
REMARK                            x       y       z     vdW  Elec       q    Type
REMARK                         _______ _______ _______ _____ _____    ______ ____
ROOT
ATOM      1  C   UNL     1      44.845   5.149  11.912  0.00  0.00    +0.000 A 
ATOM      2  C   UNL     1      45.379   4.767  13.139  0.00  0.00    +0.000 A 
ATOM      3  C   UNL     1      46.604   5.294  13.582  0.00  0.00    +0.000 A 
ATOM      4  C   UNL     1      47.317   6.209  12.786  0.00  0.00    +0.000 A 
ATOM      5  C   UNL     1      46.746   6.618  11.580  0.00  0.00    +0.000 A 
ATOM      6  C   UNL     1      45.519   6.108  11.144  0.00  0.00    +0.000 A 
ENDROOT
BRANCH   1   7
ATOM      7  C   UNL     1      43.558   4.532  11.420  0.00  0.00    +0.000 C 
BRANCH   7   8
ATOM      8  C   UNL     1      43.770   3.113  10.892  0.00  0.00    +0.000 C 
BRANCH   8   9
ATOM      9  N   UNL     1      43.067   2.132  11.716  0.00  0.00    +0.000 NA
ATOM     10  H   UNL     1      43.322   2.269  12.691  0.00  0.00    +0.000 HD
ATOM     11  H   UNL     1      43.381   1.191  11.468  0.00  0.00    +0.000 HD
ENDBRANCH   8   9
ENDBRANCH   7   8
ENDBRANCH   1   7
BRANCH   4  12
ATOM     12  C   UNL     1      48.673   6.749  13.194  0.00  0.00    +0.000 C 
BRANCH  12  13
ATOM     13  N   UNL     1      48.633   7.492  14.445  0.00  0.00    +0.000 N 
ATOM     14  C   UNL     1      48.223   8.790  14.598  0.00  0.00    +0.000 A 
ATOM     15  N   UNL     1      48.213   9.158  15.864  0.00  0.00    +0.000 NA
ATOM     16  C   UNL     1      48.634   8.050  16.559  0.00  0.00    +0.000 A 
ATOM     17  C   UNL     1      48.732   7.808  17.932  0.00  0.00    +0.000 A 
ATOM     18  C   UNL     1      49.144   6.533  18.318  0.00  0.00    +0.000 A 
ATOM     19 CL   UNL     1      49.227   6.121  19.985  0.00  0.00    +0.000 Cl
ATOM     20  C   UNL     1      49.472   5.591  17.342  0.00  0.00    +0.000 A 
ATOM     21  N   UNL     1      49.419   5.785  15.998  0.00  0.00    +0.000 NA
ATOM     22  C   UNL     1      48.960   7.014  15.682  0.00  0.00    +0.000 A 
ENDBRANCH  12  13
ENDBRANCH   4  12
TORSDOF 5
ENDMDL
MODEL 7
REMARK VINA RESULT:    -5.142      4.935      7.327
REMARK INTER + INTRA:          -6.931
REMARK INTER:                  -6.606
REMARK INTRA:                  -0.325
REMARK UNBOUND:                -0.436
REMARK  Name = 
REMARK  5 active torsions:
REMARK  status: ('A' for Active; 'I' for Inactive)
REMARK    1  A    between atoms: N_1  and  C_2
REMARK    2  A    between atoms: C_2  and  C_3
REMARK    3  A    between atoms: C_3  and  C_4
REMARK    4  A    between atoms: C_7  and  C_8
REMARK    5  A    between atoms: C_8  and  N_9
REMARK                            x       y       z     vdW  Elec       q    Type
REMARK                         _______ _______ _______ _____ _____    ______ ____
ROOT
ATOM      1  C   UNL     1      47.120   5.950  13.026  0.00  0.00    +0.000 A 
ATOM      2  C   UNL     1      48.022   6.586  13.875  0.00  0.00    +0.000 A 
ATOM      3  C   UNL     1      48.288   6.069  15.153  0.00  0.00    +0.000 A 
ATOM      4  C   UNL     1      47.639   4.905  15.603  0.00  0.00    +0.000 A 
ATOM      5  C   UNL     1      46.772   4.253  14.724  0.00  0.00    +0.000 A 
ATOM      6  C   UNL     1      46.518   4.756  13.444  0.00  0.00    +0.000 A 
ENDROOT
BRANCH   1   7
ATOM      7  C   UNL     1      46.798   6.547  11.678  0.00  0.00    +0.000 C 
BRANCH   7   8
ATOM      8  C   UNL     1      45.418   6.116  11.178  0.00  0.00    +0.000 C 
BRANCH   8   9
ATOM      9  N   UNL     1      45.478   5.651   9.794  0.00  0.00    +0.000 NA
ATOM     10  H   UNL     1      46.362   5.172   9.640  0.00  0.00    +0.000 HD
ATOM     11  H   UNL     1      45.475   6.455   9.164  0.00  0.00    +0.000 HD
ENDBRANCH   8   9
ENDBRANCH   7   8
ENDBRANCH   1   7
BRANCH   4  12
ATOM     12  C   UNL     1      47.845   4.352  16.999  0.00  0.00    +0.000 C 
BRANCH  12  13
ATOM     13  N   UNL     1      48.952   3.411  17.076  0.00  0.00    +0.000 N 
ATOM     14  C   UNL     1      49.026   2.202  16.438  0.00  0.00    +0.000 A 
ATOM     15  N   UNL     1      50.191   1.614  16.629  0.00  0.00    +0.000 NA
ATOM     16  C   UNL     1      50.900   2.481  17.425  0.00  0.00    +0.000 A 
ATOM     17  C   UNL     1      52.222   2.443  17.875  0.00  0.00    +0.000 A 
ATOM     18  C   UNL     1      52.660   3.530  18.631  0.00  0.00    +0.000 A 
ATOM     19 CL   UNL     1      54.291   3.606  19.169  0.00  0.00    +0.000 Cl
ATOM     20  C   UNL     1      51.770   4.562  18.931  0.00  0.00    +0.000 A 
ATOM     21  N   UNL     1      50.471   4.633  18.540  0.00  0.00    +0.000 NA
ATOM     22  C   UNL     1      50.118   3.585  17.766  0.00  0.00    +0.000 A 
ENDBRANCH  12  13
ENDBRANCH   4  12
TORSDOF 5
ENDMDL
MODEL 8
REMARK VINA RESULT:    -5.100      3.349      6.185
REMARK INTER + INTRA:          -6.878
REMARK INTER:                  -6.625
REMARK INTRA:                  -0.253
REMARK UNBOUND:                -0.436
REMARK  Name = 
REMARK  5 active torsions:
REMARK  status: ('A' for Active; 'I' for Inactive)
REMARK    1  A    between atoms: N_1  and  C_2
REMARK    2  A    between atoms: C_2  and  C_3
REMARK    3  A    between atoms: C_3  and  C_4
REMARK    4  A    between atoms: C_7  and  C_8
REMARK    5  A    between atoms: C_8  and  N_9
REMARK                            x       y       z     vdW  Elec       q    Type
REMARK                         _______ _______ _______ _____ _____    ______ ____
ROOT
ATOM      1  C   UNL     1      49.867   8.730  12.076  0.00  0.00    +0.000 A 
ATOM      2  C   UNL     1      49.578   7.399  12.361  0.00  0.00    +0.000 A 
ATOM      3  C   UNL     1      48.248   6.965  12.483  0.00  0.00    +0.000 A 
ATOM      4  C   UNL     1      47.183   7.873  12.331  0.00  0.00    +0.000 A 
ATOM      5  C   UNL     1      47.487   9.195  12.000  0.00  0.00    +0.000 A 
ATOM      6  C   UNL     1      48.811   9.625  11.861  0.00  0.00    +0.000 A 
ENDROOT
BRANCH   1   7
ATOM      7  C   UNL     1      51.301   9.197  12.005  0.00  0.00    +0.000 C 
BRANCH   7   8
ATOM      8  C   UNL     1      52.000   8.701  10.738  0.00  0.00    +0.000 C 
BRANCH   8   9
ATOM      9  N   UNL     1      53.261   8.035  11.056  0.00  0.00    +0.000 NA
ATOM     10  H   UNL     1      53.872   8.069  10.242  0.00  0.00    +0.000 HD
ATOM     11  H   UNL     1      53.087   7.046  11.241  0.00  0.00    +0.000 HD
ENDBRANCH   8   9
ENDBRANCH   7   8
ENDBRANCH   1   7
BRANCH   4  12
ATOM     12  C   UNL     1      45.737   7.462  12.522  0.00  0.00    +0.000 C 
BRANCH  12  13
ATOM     13  N   UNL     1      45.554   6.019  12.513  0.00  0.00    +0.000 N 
ATOM     14  C   UNL     1      45.400   5.220  13.615  0.00  0.00    +0.000 A 
ATOM     15  N   UNL     1      45.163   3.965  13.285  0.00  0.00    +0.000 NA
ATOM     16  C   UNL     1      45.164   3.952  11.911  0.00  0.00    +0.000 A 
ATOM     17  C   UNL     1      44.877   2.932  11.001  0.00  0.00    +0.000 A 
ATOM     18  C   UNL     1      44.909   3.269   9.648  0.00  0.00    +0.000 A 
ATOM     19 CL   UNL     1      44.501   2.099   8.457  0.00  0.00    +0.000 Cl
ATOM     20  C   UNL     1      45.257   4.567   9.270  0.00  0.00    +0.000 A 
ATOM     21  N   UNL     1      45.569   5.586  10.113  0.00  0.00    +0.000 NA
ATOM     22  C   UNL     1      45.467   5.219  11.408  0.00  0.00    +0.000 A 
ENDBRANCH  12  13
ENDBRANCH   4  12
TORSDOF 5
ENDMDL
MODEL 9
REMARK VINA RESULT:    -4.922      4.177      8.543
REMARK INTER + INTRA:          -6.654
REMARK INTER:                  -6.245
REMARK INTRA:                  -0.409
REMARK UNBOUND:                -0.436
REMARK  Name = 
REMARK  5 active torsions:
REMARK  status: ('A' for Active; 'I' for Inactive)
REMARK    1  A    between atoms: N_1  and  C_2
REMARK    2  A    between atoms: C_2  and  C_3
REMARK    3  A    between atoms: C_3  and  C_4
REMARK    4  A    between atoms: C_7  and  C_8
REMARK    5  A    between atoms: C_8  and  N_9
REMARK                            x       y       z     vdW  Elec       q    Type
REMARK                         _______ _______ _______ _____ _____    ______ ____
ROOT
ATOM      1  C   UNL     1      48.606   6.386  18.471  0.00  0.00    +0.000 A 
ATOM      2  C   UNL     1      48.802   7.650  17.922  0.00  0.00    +0.000 A 
ATOM      3  C   UNL     1      48.797   7.835  16.530  0.00  0.00    +0.000 A 
ATOM      4  C   UNL     1      48.603   6.743  15.665  0.00  0.00    +0.000 A 
ATOM      5  C   UNL     1      48.362   5.489  16.230  0.00  0.00    +0.000 A 
ATOM      6  C   UNL     1      48.350   5.305  17.617  0.00  0.00    +0.000 A 
ENDROOT
BRANCH   1   7
ATOM      7  C   UNL     1      48.673   6.189  19.966  0.00  0.00    +0.000 C 
BRANCH   7   8
ATOM      8  C   UNL     1      49.358   4.874  20.339  0.00  0.00    +0.000 C 
BRANCH   8   9
ATOM      9  N   UNL     1      48.393   3.897  20.839  0.00  0.00    +0.000 NA
ATOM     10  H   UNL     1      47.818   4.332  21.557  0.00  0.00    +0.000 HD
ATOM     11  H   UNL     1      48.890   3.131  21.296  0.00  0.00    +0.000 HD
ENDBRANCH   8   9
ENDBRANCH   7   8
ENDBRANCH   1   7
BRANCH   4  12
ATOM     12  C   UNL     1      48.658   6.886  14.157  0.00  0.00    +0.000 C 
BRANCH  12  13
ATOM     13  N   UNL     1      47.356   7.163  13.568  0.00  0.00    +0.000 N 
ATOM     14  C   UNL     1      46.831   8.404  13.322  0.00  0.00    +0.000 A 
ATOM     15  N   UNL     1      45.671   8.333  12.699  0.00  0.00    +0.000 NA
ATOM     16  C   UNL     1      45.436   6.990  12.536  0.00  0.00    +0.000 A 
ATOM     17  C   UNL     1      44.416   6.309  11.865  0.00  0.00    +0.000 A 
ATOM     18  C   UNL     1      44.504   4.918  11.834  0.00  0.00    +0.000 A 
ATOM     19 CL   UNL     1      43.334   3.999  10.973  0.00  0.00    +0.000 Cl
ATOM     20  C   UNL     1      45.556   4.280  12.493  0.00  0.00    +0.000 A 
ATOM     21  N   UNL     1      46.555   4.893  13.179  0.00  0.00    +0.000 NA
ATOM     22  C   UNL     1      46.452   6.238  13.129  0.00  0.00    +0.000 A 
ENDBRANCH  12  13
ENDBRANCH   4  12
TORSDOF 5
ENDMDL
