MODEL 1
REMARK VINA RESULT:    -7.347      0.000      0.000
REMARK INTER + INTRA:          -9.634
REMARK INTER:                  -9.065
REMARK INTRA:                  -0.569
REMARK UNBOUND:                -0.569
REMARK  Name = 
REMARK  5 active torsions:
REMARK  status: ('A' for Active; 'I' for Inactive)
REMARK    1  A    between atoms: C_1  and  N_2
REMARK    2  A    between atoms: C_4  and  N_5
REMARK    3  A    between atoms: C_4  and  C_15
REMARK    4  A    between atoms: N_5  and  C_6
REMARK    5  A    between atoms: C_9  and  C_10
REMARK                            x       y       z     vdW  Elec       q    Type
REMARK                         _______ _______ _______ _____ _____    ______ ____
ROOT
ATOM      1  N   UNL     1      44.319   5.174  10.000  0.00  0.00    +0.000 N 
ATOM      2  H   UNL     1      43.876   5.896   9.441  0.00  0.00    +0.000 HD
ENDROOT
BRANCH   1   3
ATOM      3  C   UNL     1      45.082   4.296   9.203  0.00  0.00    +0.000 A 
ATOM      4  C   UNL     1      44.945   2.909   9.236  0.00  0.00    +0.000 A 
ATOM      5  C   UNL     1      45.733   2.089   8.414  0.00  0.00    +0.000 A 
ATOM      6  C   UNL     1      46.641   2.648   7.508  0.00  0.00    +0.000 A 
ATOM      7  C   UNL     1      46.747   4.037   7.420  0.00  0.00    +0.000 A 
ATOM      8  C   UNL     1      45.966   4.848   8.258  0.00  0.00    +0.000 A 
BRANCH   6   9
ATOM      9  C   UNL     1      47.489   1.728   6.703  0.00  0.00    +0.000 C 
ATOM     10  N   UNL     1      48.586   2.253   6.077  0.00  0.00    +0.000 N 
ATOM     11  O   UNL     1      47.210   0.541   6.583  0.00  0.00    +0.000 OA
ATOM     12  H   UNL     1      48.734   3.245   5.962  0.00  0.00    +0.000 HD
ATOM     13  H   UNL     1      49.089   1.624   5.454  0.00  0.00    +0.000 HD
ENDBRANCH   6   9
ENDBRANCH   1   3
BRANCH   1  17
ATOM     14  C   UNL     1      42.998   3.693  13.885  0.00  0.00    +0.000 C 
ATOM     15  N   UNL     1      43.816   4.741  13.293  0.00  0.00    +0.000 NA
ATOM     16  C   UNL     1      43.085   5.455  12.210  0.00  0.00    +0.000 C 
ATOM     17  C   UNL     1      44.437   5.505  11.411  0.00  0.00    +0.000 C 
ATOM     18  C   UNL     1      44.728   4.196  12.259  0.00  0.00    +0.000 C 
BRANCH  17  19
ATOM     19  C   UNL     1      45.453   6.740  11.604  0.00  0.00    +0.000 A 
ATOM     20  C   UNL     1      44.988   8.065  11.758  0.00  0.00    +0.000 A 
ATOM     21  C   UNL     1      45.858   9.144  11.958  0.00  0.00    +0.000 A 
ATOM     22  C   UNL     1      47.228   8.928  12.013  0.00  0.00    +0.000 A 
ATOM     23 CL   UNL     1      48.299  10.240  12.299  0.00  0.00    +0.000 Cl
ATOM     24  C   UNL     1      47.734   7.644  11.845  0.00  0.00    +0.000 A 
ATOM     25  C   UNL     1      46.856   6.575  11.636  0.00  0.00    +0.000 A 
ENDBRANCH  17  19
ENDBRANCH   1  17
TORSDOF 4
ENDMDL
MODEL 2
REMARK VINA RESULT:    -6.570      4.022      6.702
REMARK INTER + INTRA:          -8.676
REMARK INTER:                  -8.481
REMARK INTRA:                  -0.194
REMARK UNBOUND:                -0.569
REMARK  Name = 
REMARK  5 active torsions:
REMARK  status: ('A' for Active; 'I' for Inactive)
REMARK    1  A    between atoms: C_1  and  N_2
REMARK    2  A    between atoms: C_4  and  N_5
REMARK    3  A    between atoms: C_4  and  C_15
REMARK    4  A    between atoms: N_5  and  C_6
REMARK    5  A    between atoms: C_9  and  C_10
REMARK                            x       y       z     vdW  Elec       q    Type
REMARK                         _______ _______ _______ _____ _____    ______ ____
ROOT
ATOM      1  N   UNL     1      45.594   3.695  12.265  0.00  0.00    +0.000 N 
ATOM      2  H   UNL     1      45.933   2.743  12.167  0.00  0.00    +0.000 HD
ENDROOT
BRANCH   1   3
ATOM      3  C   UNL     1      46.433   4.461  13.099  0.00  0.00    +0.000 A 
ATOM      4  C   UNL     1      47.083   5.622  12.684  0.00  0.00    +0.000 A 
ATOM      5  C   UNL     1      47.903   6.342  13.565  0.00  0.00    +0.000 A 
ATOM      6  C   UNL     1      48.049   5.938  14.897  0.00  0.00    +0.000 A 
ATOM      7  C   UNL     1      47.357   4.811  15.345  0.00  0.00    +0.000 A 
ATOM      8  C   UNL     1      46.552   4.088  14.451  0.00  0.00    +0.000 A 
BRANCH   6   9
ATOM      9  C   UNL     1      48.975   6.707  15.770  0.00  0.00    +0.000 C 
ATOM     10  N   UNL     1      48.435   7.649  16.602  0.00  0.00    +0.000 N 
ATOM     11  O   UNL     1      50.186   6.525  15.736  0.00  0.00    +0.000 OA
ATOM     12  H   UNL     1      47.489   7.990  16.511  0.00  0.00    +0.000 HD
ATOM     13  H   UNL     1      49.100   8.228  17.112  0.00  0.00    +0.000 HD
ENDBRANCH   6   9
ENDBRANCH   1   3
BRANCH   1  17
ATOM     14  C   UNL     1      41.921   5.994  11.757  0.00  0.00    +0.000 C 
ATOM     15  N   UNL     1      42.918   5.270  10.982  0.00  0.00    +0.000 NA
ATOM     16  C   UNL     1      43.161   3.912  11.542  0.00  0.00    +0.000 C 
ATOM     17  C   UNL     1      44.685   4.112  11.210  0.00  0.00    +0.000 C 
ATOM     18  C   UNL     1      44.295   5.639  11.394  0.00  0.00    +0.000 C 
BRANCH  17  19
ATOM     19  C   UNL     1      45.270   3.676   9.774  0.00  0.00    +0.000 A 
ATOM     20  C   UNL     1      45.736   4.632   8.843  0.00  0.00    +0.000 A 
ATOM     21  C   UNL     1      46.276   4.267   7.604  0.00  0.00    +0.000 A 
ATOM     22  C   UNL     1      46.369   2.925   7.258  0.00  0.00    +0.000 A 
ATOM     23 CL   UNL     1      47.068   2.467   5.757  0.00  0.00    +0.000 Cl
ATOM     24  C   UNL     1      45.904   1.950   8.132  0.00  0.00    +0.000 A 
ATOM     25  C   UNL     1      45.358   2.327   9.364  0.00  0.00    +0.000 A 
ENDBRANCH  17  19
ENDBRANCH   1  17
TORSDOF 4
ENDMDL
MODEL 3
REMARK VINA RESULT:    -6.337      3.866      6.713
REMARK INTER + INTRA:          -8.387
REMARK INTER:                  -7.920
REMARK INTRA:                  -0.467
REMARK UNBOUND:                -0.569
REMARK  Name = 
REMARK  5 active torsions:
REMARK  status: ('A' for Active; 'I' for Inactive)
REMARK    1  A    between atoms: C_1  and  N_2
REMARK    2  A    between atoms: C_4  and  N_5
REMARK    3  A    between atoms: C_4  and  C_15
REMARK    4  A    between atoms: N_5  and  C_6
REMARK    5  A    between atoms: C_9  and  C_10
REMARK                            x       y       z     vdW  Elec       q    Type
REMARK                         _______ _______ _______ _____ _____    ______ ____
ROOT
ATOM      1  N   UNL     1      45.074   5.811  10.433  0.00  0.00    +0.000 N 
ATOM      2  H   UNL     1      44.293   6.294  10.001  0.00  0.00    +0.000 HD
ENDROOT
BRANCH   1   3
ATOM      3  C   UNL     1      45.787   6.654  11.309  0.00  0.00    +0.000 A 
ATOM      4  C   UNL     1      47.177   6.676  11.398  0.00  0.00    +0.000 A 
ATOM      5  C   UNL     1      47.828   7.543  12.289  0.00  0.00    +0.000 A 
ATOM      6  C   UNL     1      47.096   8.441  13.074  0.00  0.00    +0.000 A 
ATOM      7  C   UNL     1      45.706   8.474  12.953  0.00  0.00    +0.000 A 
ATOM      8  C   UNL     1      45.064   7.591  12.071  0.00  0.00    +0.000 A 
BRANCH   6   9
ATOM      9  C   UNL     1      47.835   9.296  14.041  0.00  0.00    +0.000 C 
ATOM     10  N   UNL     1      47.500   9.202  15.364  0.00  0.00    +0.000 N 
ATOM     11  O   UNL     1      48.704  10.076  13.671  0.00  0.00    +0.000 OA
ATOM     12  H   UNL     1      46.658   8.750  15.690  0.00  0.00    +0.000 HD
ATOM     13  H   UNL     1      47.951   9.870  15.988  0.00  0.00    +0.000 HD
ENDBRANCH   6   9
ENDBRANCH   1   3
BRANCH   1  17
ATOM     14  C   UNL     1      43.237   2.584  12.723  0.00  0.00    +0.000 C 
ATOM     15  N   UNL     1      44.021   2.811  11.518  0.00  0.00    +0.000 NA
ATOM     16  C   UNL     1      45.210   3.663  11.796  0.00  0.00    +0.000 C 
ATOM     17  C   UNL     1      44.960   4.361  10.410  0.00  0.00    +0.000 C 
ATOM     18  C   UNL     1      43.465   3.925  10.713  0.00  0.00    +0.000 C 
BRANCH  17  19
ATOM     19  C   UNL     1      45.633   3.777   9.069  0.00  0.00    +0.000 A 
ATOM     20  C   UNL     1      46.170   4.628   8.078  0.00  0.00    +0.000 A 
ATOM     21  C   UNL     1      46.786   4.134   6.921  0.00  0.00    +0.000 A 
ATOM     22  C   UNL     1      46.887   2.763   6.723  0.00  0.00    +0.000 A 
ATOM     23 CL   UNL     1      47.678   2.149   5.328  0.00  0.00    +0.000 Cl
ATOM     24  C   UNL     1      46.355   1.886   7.661  0.00  0.00    +0.000 A 
ATOM     25  C   UNL     1      45.733   2.392   8.808  0.00  0.00    +0.000 A 
ENDBRANCH  17  19
ENDBRANCH   1  17
TORSDOF 4
ENDMDL
MODEL 4
REMARK VINA RESULT:    -6.138      4.060      5.445
REMARK INTER + INTRA:          -8.142
REMARK INTER:                  -7.718
REMARK INTRA:                  -0.424
REMARK UNBOUND:                -0.569
REMARK  Name = 
REMARK  5 active torsions:
REMARK  status: ('A' for Active; 'I' for Inactive)
REMARK    1  A    between atoms: C_1  and  N_2
REMARK    2  A    between atoms: C_4  and  N_5
REMARK    3  A    between atoms: C_4  and  C_15
REMARK    4  A    between atoms: N_5  and  C_6
REMARK    5  A    between atoms: C_9  and  C_10
REMARK                            x       y       z     vdW  Elec       q    Type
REMARK                         _______ _______ _______ _____ _____    ______ ____
ROOT
ATOM      1  N   UNL     1      46.269   6.094  13.531  0.00  0.00    +0.000 N 
ATOM      2  H   UNL     1      45.566   6.784  13.776  0.00  0.00    +0.000 HD
ENDROOT
BRANCH   1   3
ATOM      3  C   UNL     1      45.851   5.288  12.453  0.00  0.00    +0.000 A 
ATOM      4  C   UNL     1      45.435   3.965  12.596  0.00  0.00    +0.000 A 
ATOM      5  C   UNL     1      45.026   3.215  11.483  0.00  0.00    +0.000 A 
ATOM      6  C   UNL     1      44.980   3.794  10.209  0.00  0.00    +0.000 A 
ATOM      7  C   UNL     1      45.336   5.135  10.059  0.00  0.00    +0.000 A 
ATOM      8  C   UNL     1      45.759   5.872  11.177  0.00  0.00    +0.000 A 
BRANCH   6   9
ATOM      9  C   UNL     1      44.593   2.935   9.059  0.00  0.00    +0.000 C 
ATOM     10  N   UNL     1      44.279   3.551   7.878  0.00  0.00    +0.000 N 
ATOM     11  O   UNL     1      44.536   1.716   9.161  0.00  0.00    +0.000 OA
ATOM     12  H   UNL     1      44.097   4.541   7.803  0.00  0.00    +0.000 HD
ATOM     13  H   UNL     1      43.921   2.947   7.140  0.00  0.00    +0.000 HD
ENDBRANCH   6   9
ENDBRANCH   1   3
BRANCH   1  17
ATOM     14  C   UNL     1      49.619   8.682  12.474  0.00  0.00    +0.000 C 
ATOM     15  N   UNL     1      49.209   7.720  13.486  0.00  0.00    +0.000 NA
ATOM     16  C   UNL     1      48.701   6.464  12.867  0.00  0.00    +0.000 C 
ATOM     17  C   UNL     1      47.607   6.420  13.996  0.00  0.00    +0.000 C 
ATOM     18  C   UNL     1      47.831   7.991  13.964  0.00  0.00    +0.000 C 
BRANCH  17  19
ATOM     19  C   UNL     1      47.904   5.670  15.390  0.00  0.00    +0.000 A 
ATOM     20  C   UNL     1      48.770   6.223  16.360  0.00  0.00    +0.000 A 
ATOM     21  C   UNL     1      49.014   5.597  17.588  0.00  0.00    +0.000 A 
ATOM     22  C   UNL     1      48.390   4.393  17.888  0.00  0.00    +0.000 A 
ATOM     23 CL   UNL     1      48.650   3.641  19.410  0.00  0.00    +0.000 Cl
ATOM     24  C   UNL     1      47.545   3.800  16.957  0.00  0.00    +0.000 A 
ATOM     25  C   UNL     1      47.318   4.430  15.728  0.00  0.00    +0.000 A 
ENDBRANCH  17  19
ENDBRANCH   1  17
TORSDOF 4
ENDMDL
MODEL 5
REMARK VINA RESULT:    -5.875      4.344      6.104
REMARK INTER + INTRA:          -7.818
REMARK INTER:                  -7.226
REMARK INTRA:                  -0.591
REMARK UNBOUND:                -0.569
REMARK  Name = 
REMARK  5 active torsions:
REMARK  status: ('A' for Active; 'I' for Inactive)
REMARK    1  A    between atoms: C_1  and  N_2
REMARK    2  A    between atoms: C_4  and  N_5
REMARK    3  A    between atoms: C_4  and  C_15
REMARK    4  A    between atoms: N_5  and  C_6
REMARK    5  A    between atoms: C_9  and  C_10
REMARK                            x       y       z     vdW  Elec       q    Type
REMARK                         _______ _______ _______ _____ _____    ______ ____
ROOT
ATOM      1  N   UNL     1      46.901   7.137  13.908  0.00  0.00    +0.000 N 
ATOM      2  H   UNL     1      46.348   7.951  14.158  0.00  0.00    +0.000 HD
ENDROOT
BRANCH   1   3
ATOM      3  C   UNL     1      46.253   6.351  12.933  0.00  0.00    +0.000 A 
ATOM      4  C   UNL     1      46.103   6.740  11.603  0.00  0.00    +0.000 A 
ATOM      5  C   UNL     1      45.450   5.909  10.680  0.00  0.00    +0.000 A 
ATOM      6  C   UNL     1      44.977   4.649  11.063  0.00  0.00    +0.000 A 
ATOM      7  C   UNL     1      45.172   4.220  12.377  0.00  0.00    +0.000 A 
ATOM      8  C   UNL     1      45.812   5.065  13.297  0.00  0.00    +0.000 A 
BRANCH   6   9
ATOM      9  C   UNL     1      44.243   3.837  10.056  0.00  0.00    +0.000 C 
ATOM     10  N   UNL     1      44.121   4.344   8.791  0.00  0.00    +0.000 N 
ATOM     11  O   UNL     1      43.744   2.756  10.346  0.00  0.00    +0.000 OA
ATOM     12  H   UNL     1      44.314   5.308   8.561  0.00  0.00    +0.000 HD
ATOM     13  H   UNL     1      43.529   3.814   8.153  0.00  0.00    +0.000 HD
ENDBRANCH   6   9
ENDBRANCH   1   3
BRANCH   1  17
ATOM     14  C   UNL     1      50.536   8.956  12.324  0.00  0.00    +0.000 C 
ATOM     15  N   UNL     1      50.061   8.185  13.464  0.00  0.00    +0.000 NA
ATOM     16  C   UNL     1      49.287   6.990  13.027  0.00  0.00    +0.000 C 
ATOM     17  C   UNL     1      48.313   7.255  14.233  0.00  0.00    +0.000 C 
ATOM     18  C   UNL     1      48.803   8.748  14.011  0.00  0.00    +0.000 C 
BRANCH  17  19
ATOM     19  C   UNL     1      48.603   6.599  15.675  0.00  0.00    +0.000 A 
ATOM     20  C   UNL     1      49.205   7.338  16.718  0.00  0.00    +0.000 A 
ATOM     21  C   UNL     1      49.436   6.790  17.986  0.00  0.00    +0.000 A 
ATOM     22  C   UNL     1      49.064   5.479  18.251  0.00  0.00    +0.000 A 
ATOM     23 CL   UNL     1      49.304   4.814  19.816  0.00  0.00    +0.000 Cl
ATOM     24  C   UNL     1      48.486   4.706  17.250  0.00  0.00    +0.000 A 
ATOM     25  C   UNL     1      48.270   5.261  15.984  0.00  0.00    +0.000 A 
ENDBRANCH  17  19
ENDBRANCH   1  17
TORSDOF 4
ENDMDL
MODEL 6
REMARK VINA RESULT:    -5.865      4.139      5.903
REMARK INTER + INTRA:          -7.805
REMARK INTER:                  -7.077
REMARK INTRA:                  -0.728
REMARK UNBOUND:                -0.569
REMARK  Name = 
REMARK  5 active torsions:
REMARK  status: ('A' for Active; 'I' for Inactive)
REMARK    1  A    between atoms: C_1  and  N_2
REMARK    2  A    between atoms: C_4  and  N_5
REMARK    3  A    between atoms: C_4  and  C_15
REMARK    4  A    between atoms: N_5  and  C_6
REMARK    5  A    between atoms: C_9  and  C_10
REMARK                            x       y       z     vdW  Elec       q    Type
REMARK                         _______ _______ _______ _____ _____    ______ ____
ROOT
ATOM      1  N   UNL     1      46.828   7.418  13.437  0.00  0.00    +0.000 N 
ATOM      2  H   UNL     1      46.295   8.280  13.369  0.00  0.00    +0.000 HD
ENDROOT
BRANCH   1   3
ATOM      3  C   UNL     1      46.171   6.351  12.791  0.00  0.00    +0.000 A 
ATOM      4  C   UNL     1      45.739   6.400  11.466  0.00  0.00    +0.000 A 
ATOM      5  C   UNL     1      45.094   5.301  10.879  0.00  0.00    +0.000 A 
ATOM      6  C   UNL     1      44.912   4.113  11.595  0.00  0.00    +0.000 A 
ATOM      7  C   UNL     1      45.392   4.027  12.903  0.00  0.00    +0.000 A 
ATOM      8  C   UNL     1      46.022   5.138  13.487  0.00  0.00    +0.000 A 
BRANCH   6   9
ATOM      9  C   UNL     1      44.171   3.002  10.941  0.00  0.00    +0.000 C 
ATOM     10  N   UNL     1      44.773   2.363   9.891  0.00  0.00    +0.000 N 
ATOM     11  O   UNL     1      43.050   2.676  11.310  0.00  0.00    +0.000 OA
ATOM     12  H   UNL     1      45.584   2.730   9.413  0.00  0.00    +0.000 HD
ATOM     13  H   UNL     1      44.203   1.677   9.400  0.00  0.00    +0.000 HD
ENDBRANCH   6   9
ENDBRANCH   1   3
BRANCH   1  17
ATOM     14  C   UNL     1      50.506   8.638  11.432  0.00  0.00    +0.000 C 
ATOM     15  N   UNL     1      50.008   8.250  12.743  0.00  0.00    +0.000 NA
ATOM     16  C   UNL     1      49.220   6.988  12.675  0.00  0.00    +0.000 C 
ATOM     17  C   UNL     1      48.238   7.614  13.731  0.00  0.00    +0.000 C 
ATOM     18  C   UNL     1      48.752   8.965  13.078  0.00  0.00    +0.000 C 
BRANCH  17  19
ATOM     19  C   UNL     1      48.504   7.418  15.308  0.00  0.00    +0.000 A 
ATOM     20  C   UNL     1      48.614   8.522  16.183  0.00  0.00    +0.000 A 
ATOM     21  C   UNL     1      48.815   8.367  17.560  0.00  0.00    +0.000 A 
ATOM     22  C   UNL     1      48.906   7.094  18.107  0.00  0.00    +0.000 A 
ATOM     23 CL   UNL     1      49.109   6.895  19.801  0.00  0.00    +0.000 Cl
ATOM     24  C   UNL     1      48.824   5.978  17.283  0.00  0.00    +0.000 A 
ATOM     25  C   UNL     1      48.634   6.146  15.907  0.00  0.00    +0.000 A 
ENDBRANCH  17  19
ENDBRANCH   1  17
TORSDOF 4
ENDMDL
MODEL 7
REMARK VINA RESULT:    -5.749      3.257      4.931
REMARK INTER + INTRA:          -7.662
REMARK INTER:                  -6.905
REMARK INTRA:                  -0.757
REMARK UNBOUND:                -0.569
REMARK  Name = 
REMARK  5 active torsions:
REMARK  status: ('A' for Active; 'I' for Inactive)
REMARK    1  A    between atoms: C_1  and  N_2
REMARK    2  A    between atoms: C_4  and  N_5
REMARK    3  A    between atoms: C_4  and  C_15
REMARK    4  A    between atoms: N_5  and  C_6
REMARK    5  A    between atoms: C_9  and  C_10
REMARK                            x       y       z     vdW  Elec       q    Type
REMARK                         _______ _______ _______ _____ _____    ______ ____
ROOT
ATOM      1  N   UNL     1      46.741   7.659  13.586  0.00  0.00    +0.000 N 
ATOM      2  H   UNL     1      46.323   8.582  13.530  0.00  0.00    +0.000 HD
ENDROOT
BRANCH   1   3
ATOM      3  C   UNL     1      46.085   6.741  12.742  0.00  0.00    +0.000 A 
ATOM      4  C   UNL     1      45.141   5.819  13.190  0.00  0.00    +0.000 A 
ATOM      5  C   UNL     1      44.520   4.933  12.297  0.00  0.00    +0.000 A 
ATOM      6  C   UNL     1      44.799   4.987  10.927  0.00  0.00    +0.000 A 
ATOM      7  C   UNL     1      45.698   5.945  10.453  0.00  0.00    +0.000 A 
ATOM      8  C   UNL     1      46.326   6.816  11.357  0.00  0.00    +0.000 A 
BRANCH   6   9
ATOM      9  C   UNL     1      44.154   3.986  10.036  0.00  0.00    +0.000 C 
ATOM     10  N   UNL     1      44.150   4.235   8.691  0.00  0.00    +0.000 N 
ATOM     11  O   UNL     1      43.624   2.977  10.486  0.00  0.00    +0.000 OA
ATOM     12  H   UNL     1      44.370   5.138   8.295  0.00  0.00    +0.000 HD
ATOM     13  H   UNL     1      43.614   3.585   8.118  0.00  0.00    +0.000 HD
ENDBRANCH   6   9
ENDBRANCH   1   3
BRANCH   1  17
ATOM     14  C   UNL     1      48.942   6.349  17.118  0.00  0.00    +0.000 C 
ATOM     15  N   UNL     1      49.155   6.969  15.819  0.00  0.00    +0.000 NA
ATOM     16  C   UNL     1      48.227   8.114  15.604  0.00  0.00    +0.000 C 
ATOM     17  C   UNL     1      48.098   7.653  14.107  0.00  0.00    +0.000 C 
ATOM     18  C   UNL     1      48.434   6.240  14.747  0.00  0.00    +0.000 C 
BRANCH  17  19
ATOM     19  C   UNL     1      49.119   8.209  12.992  0.00  0.00    +0.000 A 
ATOM     20  C   UNL     1      49.342   9.593  12.816  0.00  0.00    +0.000 A 
ATOM     21  C   UNL     1      50.249  10.091  11.872  0.00  0.00    +0.000 A 
ATOM     22  C   UNL     1      50.968   9.211  11.073  0.00  0.00    +0.000 A 
ATOM     23 CL   UNL     1      52.113   9.811   9.942  0.00  0.00    +0.000 Cl
ATOM     24  C   UNL     1      50.767   7.841  11.195  0.00  0.00    +0.000 A 
ATOM     25  C   UNL     1      49.851   7.357  12.135  0.00  0.00    +0.000 A 
ENDBRANCH  17  19
ENDBRANCH   1  17
TORSDOF 4
ENDMDL
MODEL 8
REMARK VINA RESULT:    -5.721      4.544      6.709
REMARK INTER + INTRA:          -7.628
REMARK INTER:                  -6.973
REMARK INTRA:                  -0.655
REMARK UNBOUND:                -0.569
REMARK  Name = 
REMARK  5 active torsions:
REMARK  status: ('A' for Active; 'I' for Inactive)
REMARK    1  A    between atoms: C_1  and  N_2
REMARK    2  A    between atoms: C_4  and  N_5
REMARK    3  A    between atoms: C_4  and  C_15
REMARK    4  A    between atoms: N_5  and  C_6
REMARK    5  A    between atoms: C_9  and  C_10
REMARK                            x       y       z     vdW  Elec       q    Type
REMARK                         _______ _______ _______ _____ _____    ______ ____
ROOT
ATOM      1  N   UNL     1      48.412   6.349  13.224  0.00  0.00    +0.000 N 
ATOM      2  H   UNL     1      49.035   5.553  13.131  0.00  0.00    +0.000 HD
ENDROOT
BRANCH   1   3
ATOM      3  C   UNL     1      47.103   6.033  12.808  0.00  0.00    +0.000 A 
ATOM      4  C   UNL     1      46.536   6.497  11.623  0.00  0.00    +0.000 A 
ATOM      5  C   UNL     1      45.227   6.143  11.264  0.00  0.00    +0.000 A 
ATOM      6  C   UNL     1      44.476   5.275  12.065  0.00  0.00    +0.000 A 
ATOM      7  C   UNL     1      45.051   4.753  13.225  0.00  0.00    +0.000 A 
ATOM      8  C   UNL     1      46.356   5.126  13.584  0.00  0.00    +0.000 A 
BRANCH   6   9
ATOM      9  C   UNL     1      43.075   4.980  11.663  0.00  0.00    +0.000 C 
ATOM     10  N   UNL     1      42.166   6.000  11.717  0.00  0.00    +0.000 N 
ATOM     11  O   UNL     1      42.733   3.857  11.313  0.00  0.00    +0.000 OA
ATOM     12  H   UNL     1      42.339   6.870  12.200  0.00  0.00    +0.000 HD
ATOM     13  H   UNL     1      41.197   5.746  11.534  0.00  0.00    +0.000 HD
ENDBRANCH   6   9
ENDBRANCH   1   3
BRANCH   1  17
ATOM     14  C   UNL     1      48.672  10.694  13.525  0.00  0.00    +0.000 C 
ATOM     15  N   UNL     1      48.962   9.488  14.287  0.00  0.00    +0.000 NA
ATOM     16  C   UNL     1      49.739   8.508  13.478  0.00  0.00    +0.000 C 
ATOM     17  C   UNL     1      48.885   7.369  14.145  0.00  0.00    +0.000 C 
ATOM     18  C   UNL     1      47.821   8.541  14.258  0.00  0.00    +0.000 C 
BRANCH  17  19
ATOM     19  C   UNL     1      49.367   6.688  15.522  0.00  0.00    +0.000 A 
ATOM     20  C   UNL     1      50.692   6.828  15.993  0.00  0.00    +0.000 A 
ATOM     21  C   UNL     1      51.118   6.267  17.204  0.00  0.00    +0.000 A 
ATOM     22  C   UNL     1      50.224   5.547  17.986  0.00  0.00    +0.000 A 
ATOM     23 CL   UNL     1      50.727   4.892  19.491  0.00  0.00    +0.000 Cl
ATOM     24  C   UNL     1      48.915   5.365  17.553  0.00  0.00    +0.000 A 
ATOM     25  C   UNL     1      48.504   5.922  16.337  0.00  0.00    +0.000 A 
ENDBRANCH  17  19
ENDBRANCH   1  17
TORSDOF 4
ENDMDL
MODEL 9
REMARK VINA RESULT:    -5.598      4.962      7.444
REMARK INTER + INTRA:          -7.476
REMARK INTER:                  -6.855
REMARK INTRA:                  -0.621
REMARK UNBOUND:                -0.569
REMARK  Name = 
REMARK  5 active torsions:
REMARK  status: ('A' for Active; 'I' for Inactive)
REMARK    1  A    between atoms: C_1  and  N_2
REMARK    2  A    between atoms: C_4  and  N_5
REMARK    3  A    between atoms: C_4  and  C_15
REMARK    4  A    between atoms: N_5  and  C_6
REMARK    5  A    between atoms: C_9  and  C_10
REMARK                            x       y       z     vdW  Elec       q    Type
REMARK                         _______ _______ _______ _____ _____    ______ ____
ROOT
ATOM      1  N   UNL     1      47.507   6.045  12.968  0.00  0.00    +0.000 N 
ATOM      2  H   UNL     1      48.387   6.399  12.606  0.00  0.00    +0.000 HD
ENDROOT
BRANCH   1   3
ATOM      3  C   UNL     1      47.626   5.636  14.312  0.00  0.00    +0.000 A 
ATOM      4  C   UNL     1      47.008   4.500  14.830  0.00  0.00    +0.000 A 
ATOM      5  C   UNL     1      47.168   4.145  16.178  0.00  0.00    +0.000 A 
ATOM      6  C   UNL     1      47.993   4.897  17.022  0.00  0.00    +0.000 A 
ATOM      7  C   UNL     1      48.667   6.004  16.503  0.00  0.00    +0.000 A 
ATOM      8  C   UNL     1      48.486   6.361  15.157  0.00  0.00    +0.000 A 
BRANCH   6   9
ATOM      9  C   UNL     1      48.080   4.506  18.454  0.00  0.00    +0.000 C 
ATOM     10  N   UNL     1      48.390   3.205  18.744  0.00  0.00    +0.000 N 
ATOM     11  O   UNL     1      47.864   5.311  19.351  0.00  0.00    +0.000 OA
ATOM     12  H   UNL     1      48.359   2.464  18.059  0.00  0.00    +0.000 HD
ATOM     13  H   UNL     1      48.344   2.944  19.727  0.00  0.00    +0.000 HD
ENDBRANCH   6   9
ENDBRANCH   1   3
BRANCH   1  17
ATOM     14  C   UNL     1      45.147   9.649  12.278  0.00  0.00    +0.000 C 
ATOM     15  N   UNL     1      45.231   8.256  11.865  0.00  0.00    +0.000 NA
ATOM     16  C   UNL     1      45.317   7.344  13.040  0.00  0.00    +0.000 C 
ATOM     17  C   UNL     1      46.340   6.478  12.218  0.00  0.00    +0.000 C 
ATOM     18  C   UNL     1      46.623   7.876  11.522  0.00  0.00    +0.000 C 
BRANCH  17  19
ATOM     19  C   UNL     1      45.820   5.284  11.270  0.00  0.00    +0.000 A 
ATOM     20  C   UNL     1      45.355   4.062  11.805  0.00  0.00    +0.000 A 
ATOM     21  C   UNL     1      44.871   3.027  10.995  0.00  0.00    +0.000 A 
ATOM     22  C   UNL     1      44.834   3.187   9.616  0.00  0.00    +0.000 A 
ATOM     23 CL   UNL     1      44.204   1.938   8.619  0.00  0.00    +0.000 Cl
ATOM     24  C   UNL     1      45.301   4.364   9.042  0.00  0.00    +0.000 A 
ATOM     25  C   UNL     1      45.791   5.387   9.861  0.00  0.00    +0.000 A 
ENDBRANCH  17  19
ENDBRANCH   1  17
TORSDOF 4
ENDMDL
