MODEL 1
REMARK VINA RESULT:    -8.541      0.000      0.000
REMARK INTER + INTRA:         -14.065
REMARK INTER:                 -12.535
REMARK INTRA:                  -1.530
REMARK UNBOUND:                -1.530
REMARK  Name = 
REMARK  9 active torsions:
REMARK  status: ('A' for Active; 'I' for Inactive)
REMARK    1  A    between atoms: C_1  and  O_2
REMARK    2  A    between atoms: O_2  and  C_3
REMARK    3  A    between atoms: C_10  and  C_11
REMARK    4  A    between atoms: N_13  and  C_14
REMARK    5  A    between atoms: C_14  and  C_15
REMARK    6  A    between atoms: C_18  and  C_19
REMARK    7  A    between atoms: C_19  and  O_20
REMARK    8  A    between atoms: O_20  and  C_21
REMARK    9  A    between atoms: C_21  and  C_22
REMARK                            x       y       z     vdW  Elec       q    Type
REMARK                         _______ _______ _______ _____ _____    ______ ____
ROOT
ATOM      1  C   UNL     1      47.091   7.994  13.236  0.00  0.00    +0.000 C 
ENDROOT
BRANCH   1   2
ATOM      2  C   UNL     1      46.148   7.112  12.454  0.00  0.00    +0.000 A 
ATOM      3  C   UNL     1      44.920   6.718  13.001  0.00  0.00    +0.000 A 
ATOM      4  C   UNL     1      44.059   5.873  12.289  0.00  0.00    +0.000 A 
ATOM      5  C   UNL     1      44.414   5.394  11.020  0.00  0.00    +0.000 A 
ATOM      6  C   UNL     1      45.647   5.780  10.478  0.00  0.00    +0.000 A 
ATOM      7  C   UNL     1      46.506   6.626  11.188  0.00  0.00    +0.000 A 
BRANCH   5   8
ATOM      8  C   UNL     1      43.492   4.468  10.263  0.00  0.00    +0.000 C 
BRANCH   8   9
ATOM      9  O   UNL     1      44.124   4.068   9.052  0.00  0.00    +0.000 OA
BRANCH   9  10
ATOM     10  C   UNL     1      44.591   2.721   9.112  0.00  0.00    +0.000 C 
BRANCH  10  11
ATOM     11  C   UNL     1      45.701   2.508   8.110  0.00  0.00    +0.000 A 
ATOM     12  C   UNL     1      46.392   1.288   8.042  0.00  0.00    +0.000 A 
ATOM     13  C   UNL     1      47.391   1.085   7.089  0.00  0.00    +0.000 A 
ATOM     14  C   UNL     1      47.705   2.094   6.182  0.00  0.00    +0.000 A 
ATOM     15  C   UNL     1      47.018   3.306   6.227  0.00  0.00    +0.000 A 
ATOM     16  C   UNL     1      46.019   3.511   7.181  0.00  0.00    +0.000 A 
ENDBRANCH  10  11
ENDBRANCH   9  10
ENDBRANCH   8   9
ENDBRANCH   5   8
ENDBRANCH   1   2
BRANCH   1  19
ATOM     17  C   UNL     1      48.748   6.863  14.670  0.00  0.00    +0.000 C 
ATOM     18  O   UNL     1      49.617   6.951  13.802  0.00  0.00    +0.000 OA
ATOM     19  N   UNL     1      47.489   7.355  14.467  0.00  0.00    +0.000 N 
ATOM     20  H   UNL     1      46.786   7.259  15.183  0.00  0.00    +0.000 HD
BRANCH  17  28
ATOM     21  C   UNL     1      47.299   4.225  16.343  0.00  0.00    +0.000 A 
ATOM     22  N   UNL     1      46.959   3.220  17.173  0.00  0.00    +0.000 NA
ATOM     23  C   UNL     1      47.668   3.066  18.295  0.00  0.00    +0.000 A 
ATOM     24  N   UNL     1      48.691   3.812  18.704  0.00  0.00    +0.000 NA
ATOM     25  C   UNL     1      49.001   4.796  17.842  0.00  0.00    +0.000 A 
ATOM     26  S   UNL     1      50.279   5.854  18.206  0.00  0.00    +0.000 S 
ATOM     27  C   UNL     1      50.052   6.704  16.753  0.00  0.00    +0.000 A 
ATOM     28  C   UNL     1      49.021   6.211  15.964  0.00  0.00    +0.000 A 
ATOM     29  C   UNL     1      48.380   5.077  16.630  0.00  0.00    +0.000 A 
BRANCH  21  31
ATOM     30  C   UNL     1      47.129   3.636  14.085  0.00  0.00    +0.000 C 
ATOM     31  O   UNL     1      46.580   4.372  15.175  0.00  0.00    +0.000 OA
ENDBRANCH  21  31
ENDBRANCH  17  28
ENDBRANCH   1  19
TORSDOF 8
ENDMDL
MODEL 2
REMARK VINA RESULT:    -8.212      1.491      2.031
REMARK INTER + INTRA:         -13.582
REMARK INTER:                 -12.239
REMARK INTRA:                  -1.343
REMARK UNBOUND:                -1.530
REMARK  Name = 
REMARK  9 active torsions:
REMARK  status: ('A' for Active; 'I' for Inactive)
REMARK    1  A    between atoms: C_1  and  O_2
REMARK    2  A    between atoms: O_2  and  C_3
REMARK    3  A    between atoms: C_10  and  C_11
REMARK    4  A    between atoms: N_13  and  C_14
REMARK    5  A    between atoms: C_14  and  C_15
REMARK    6  A    between atoms: C_18  and  C_19
REMARK    7  A    between atoms: C_19  and  O_20
REMARK    8  A    between atoms: O_20  and  C_21
REMARK    9  A    between atoms: C_21  and  C_22
REMARK                            x       y       z     vdW  Elec       q    Type
REMARK                         _______ _______ _______ _____ _____    ______ ____
ROOT
ATOM      1  C   UNL     1      48.040   6.848  13.145  0.00  0.00    +0.000 C 
ENDROOT
BRANCH   1   2
ATOM      2  C   UNL     1      46.917   6.004  12.594  0.00  0.00    +0.000 A 
ATOM      3  C   UNL     1      46.318   6.324  11.369  0.00  0.00    +0.000 A 
ATOM      4  C   UNL     1      45.255   5.560  10.872  0.00  0.00    +0.000 A 
ATOM      5  C   UNL     1      44.759   4.467  11.597  0.00  0.00    +0.000 A 
ATOM      6  C   UNL     1      45.351   4.154  12.827  0.00  0.00    +0.000 A 
ATOM      7  C   UNL     1      46.415   4.916  13.322  0.00  0.00    +0.000 A 
BRANCH   5   8
ATOM      8  C   UNL     1      43.600   3.657  11.068  0.00  0.00    +0.000 C 
BRANCH   8   9
ATOM      9  O   UNL     1      43.835   3.349   9.698  0.00  0.00    +0.000 OA
BRANCH   9  10
ATOM     10  C   UNL     1      44.566   2.133   9.540  0.00  0.00    +0.000 C 
BRANCH  10  11
ATOM     11  C   UNL     1      45.570   2.270   8.420  0.00  0.00    +0.000 A 
ATOM     12  C   UNL     1      45.738   3.487   7.742  0.00  0.00    +0.000 A 
ATOM     13  C   UNL     1      46.693   3.617   6.733  0.00  0.00    +0.000 A 
ATOM     14  C   UNL     1      47.504   2.536   6.397  0.00  0.00    +0.000 A 
ATOM     15  C   UNL     1      47.360   1.325   7.071  0.00  0.00    +0.000 A 
ATOM     16  C   UNL     1      46.403   1.193   8.080  0.00  0.00    +0.000 A 
ENDBRANCH  10  11
ENDBRANCH   9  10
ENDBRANCH   8   9
ENDBRANCH   5   8
ENDBRANCH   1   2
BRANCH   1  19
ATOM     17  C   UNL     1      49.056   6.947  15.390  0.00  0.00    +0.000 C 
ATOM     18  O   UNL     1      50.192   6.876  14.922  0.00  0.00    +0.000 OA
ATOM     19  N   UNL     1      47.953   6.944  14.582  0.00  0.00    +0.000 N 
ATOM     20  H   UNL     1      47.030   6.987  14.985  0.00  0.00    +0.000 HD
BRANCH  17  28
ATOM     21  C   UNL     1      48.885   4.585  17.889  0.00  0.00    +0.000 A 
ATOM     22  N   UNL     1      48.819   3.890  19.042  0.00  0.00    +0.000 NA
ATOM     23  C   UNL     1      48.627   4.571  20.175  0.00  0.00    +0.000 A 
ATOM     24  N   UNL     1      48.480   5.887  20.303  0.00  0.00    +0.000 NA
ATOM     25  C   UNL     1      48.562   6.541  19.131  0.00  0.00    +0.000 A 
ATOM     26  S   UNL     1      48.390   8.230  19.102  0.00  0.00    +0.000 S 
ATOM     27  C   UNL     1      48.615   8.273  17.419  0.00  0.00    +0.000 A 
ATOM     28  C   UNL     1      48.829   7.025  16.845  0.00  0.00    +0.000 A 
ATOM     29  C   UNL     1      48.778   5.987  17.874  0.00  0.00    +0.000 A 
BRANCH  21  31
ATOM     30  C   UNL     1      47.980   3.105  16.320  0.00  0.00    +0.000 C 
ATOM     31  O   UNL     1      49.103   3.884  16.722  0.00  0.00    +0.000 OA
ENDBRANCH  21  31
ENDBRANCH  17  28
ENDBRANCH   1  19
TORSDOF 8
ENDMDL
MODEL 3
REMARK VINA RESULT:    -7.750      2.266      2.901
REMARK INTER + INTRA:         -12.904
REMARK INTER:                 -11.804
REMARK INTRA:                  -1.100
REMARK UNBOUND:                -1.530
REMARK  Name = 
REMARK  9 active torsions:
REMARK  status: ('A' for Active; 'I' for Inactive)
REMARK    1  A    between atoms: C_1  and  O_2
REMARK    2  A    between atoms: O_2  and  C_3
REMARK    3  A    between atoms: C_10  and  C_11
REMARK    4  A    between atoms: N_13  and  C_14
REMARK    5  A    between atoms: C_14  and  C_15
REMARK    6  A    between atoms: C_18  and  C_19
REMARK    7  A    between atoms: C_19  and  O_20
REMARK    8  A    between atoms: O_20  and  C_21
REMARK    9  A    between atoms: C_21  and  C_22
REMARK                            x       y       z     vdW  Elec       q    Type
REMARK                         _______ _______ _______ _____ _____    ______ ____
ROOT
ATOM      1  C   UNL     1      47.999   6.460  13.714  0.00  0.00    +0.000 C 
ENDROOT
BRANCH   1   2
ATOM      2  C   UNL     1      46.827   5.827  13.002  0.00  0.00    +0.000 A 
ATOM      3  C   UNL     1      46.208   4.684  13.525  0.00  0.00    +0.000 A 
ATOM      4  C   UNL     1      45.142   4.078  12.850  0.00  0.00    +0.000 A 
ATOM      5  C   UNL     1      44.681   4.592  11.629  0.00  0.00    +0.000 A 
ATOM      6  C   UNL     1      45.309   5.729  11.102  0.00  0.00    +0.000 A 
ATOM      7  C   UNL     1      46.372   6.337  11.779  0.00  0.00    +0.000 A 
BRANCH   5   8
ATOM      8  C   UNL     1      43.545   3.924  10.894  0.00  0.00    +0.000 C 
BRANCH   8   9
ATOM      9  O   UNL     1      43.962   3.624   9.567  0.00  0.00    +0.000 OA
BRANCH   9  10
ATOM     10  C   UNL     1      44.611   2.355   9.483  0.00  0.00    +0.000 C 
BRANCH  10  11
ATOM     11  C   UNL     1      45.651   2.372   8.388  0.00  0.00    +0.000 A 
ATOM     12  C   UNL     1      46.403   1.227   8.085  0.00  0.00    +0.000 A 
ATOM     13  C   UNL     1      47.336   1.238   7.047  0.00  0.00    +0.000 A 
ATOM     14  C   UNL     1      47.520   2.390   6.289  0.00  0.00    +0.000 A 
ATOM     15  C   UNL     1      46.771   3.532   6.566  0.00  0.00    +0.000 A 
ATOM     16  C   UNL     1      45.838   3.523   7.606  0.00  0.00    +0.000 A 
ENDBRANCH  10  11
ENDBRANCH   9  10
ENDBRANCH   8   9
ENDBRANCH   5   8
ENDBRANCH   1   2
BRANCH   1  19
ATOM     17  C   UNL     1      48.996   6.344  15.966  0.00  0.00    +0.000 C 
ATOM     18  O   UNL     1      50.109   6.641  15.531  0.00  0.00    +0.000 OA
ATOM     19  N   UNL     1      47.914   6.242  15.137  0.00  0.00    +0.000 N 
ATOM     20  H   UNL     1      47.014   5.981  15.509  0.00  0.00    +0.000 HD
BRANCH  17  28
ATOM     21  C   UNL     1      48.005   8.296  18.624  0.00  0.00    +0.000 A 
ATOM     22  N   UNL     1      47.602   8.808  19.803  0.00  0.00    +0.000 NA
ATOM     23  C   UNL     1      47.553   7.989  20.858  0.00  0.00    +0.000 A 
ATOM     24  N   UNL     1      47.871   6.698  20.885  0.00  0.00    +0.000 NA
ATOM     25  C   UNL     1      48.259   6.228  19.687  0.00  0.00    +0.000 A 
ATOM     26  S   UNL     1      48.711   4.598  19.535  0.00  0.00    +0.000 S 
ATOM     27  C   UNL     1      49.017   4.788  17.874  0.00  0.00    +0.000 A 
ATOM     28  C   UNL     1      48.781   6.072  17.399  0.00  0.00    +0.000 A 
ATOM     29  C   UNL     1      48.344   6.938  18.494  0.00  0.00    +0.000 A 
BRANCH  21  31
ATOM     30  C   UNL     1      47.788  10.499  17.865  0.00  0.00    +0.000 C 
ATOM     31  O   UNL     1      48.036   9.136  17.530  0.00  0.00    +0.000 OA
ENDBRANCH  21  31
ENDBRANCH  17  28
ENDBRANCH   1  19
TORSDOF 8
ENDMDL
MODEL 4
REMARK VINA RESULT:    -7.097      2.334      3.556
REMARK INTER + INTRA:         -11.946
REMARK INTER:                 -10.852
REMARK INTRA:                  -1.094
REMARK UNBOUND:                -1.530
REMARK  Name = 
REMARK  9 active torsions:
REMARK  status: ('A' for Active; 'I' for Inactive)
REMARK    1  A    between atoms: C_1  and  O_2
REMARK    2  A    between atoms: O_2  and  C_3
REMARK    3  A    between atoms: C_10  and  C_11
REMARK    4  A    between atoms: N_13  and  C_14
REMARK    5  A    between atoms: C_14  and  C_15
REMARK    6  A    between atoms: C_18  and  C_19
REMARK    7  A    between atoms: C_19  and  O_20
REMARK    8  A    between atoms: O_20  and  C_21
REMARK    9  A    between atoms: C_21  and  C_22
REMARK                            x       y       z     vdW  Elec       q    Type
REMARK                         _______ _______ _______ _____ _____    ______ ____
ROOT
ATOM      1  C   UNL     1      47.500   3.952  15.317  0.00  0.00    +0.000 C 
ENDROOT
BRANCH   1   2
ATOM      2  C   UNL     1      46.739   4.341  14.072  0.00  0.00    +0.000 A 
ATOM      3  C   UNL     1      46.106   3.366  13.289  0.00  0.00    +0.000 A 
ATOM      4  C   UNL     1      45.427   3.722  12.118  0.00  0.00    +0.000 A 
ATOM      5  C   UNL     1      45.378   5.059  11.696  0.00  0.00    +0.000 A 
ATOM      6  C   UNL     1      46.020   6.031  12.474  0.00  0.00    +0.000 A 
ATOM      7  C   UNL     1      46.696   5.675  13.646  0.00  0.00    +0.000 A 
BRANCH   5   8
ATOM      8  C   UNL     1      44.661   5.435  10.422  0.00  0.00    +0.000 C 
BRANCH   8   9
ATOM      9  O   UNL     1      45.414   4.966   9.308  0.00  0.00    +0.000 OA
BRANCH   9  10
ATOM     10  C   UNL     1      44.735   3.928   8.602  0.00  0.00    +0.000 C 
BRANCH  10  11
ATOM     11  C   UNL     1      45.732   3.018   7.925  0.00  0.00    +0.000 A 
ATOM     12  C   UNL     1      45.910   1.693   8.352  0.00  0.00    +0.000 A 
ATOM     13  C   UNL     1      46.806   0.845   7.698  0.00  0.00    +0.000 A 
ATOM     14  C   UNL     1      47.528   1.307   6.601  0.00  0.00    +0.000 A 
ATOM     15  C   UNL     1      47.352   2.616   6.155  0.00  0.00    +0.000 A 
ATOM     16  C   UNL     1      46.457   3.466   6.810  0.00  0.00    +0.000 A 
ENDBRANCH  10  11
ENDBRANCH   9  10
ENDBRANCH   8   9
ENDBRANCH   5   8
ENDBRANCH   1   2
BRANCH   1  19
ATOM     17  C   UNL     1      48.548   5.473  16.951  0.00  0.00    +0.000 C 
ATOM     18  O   UNL     1      49.667   5.021  16.712  0.00  0.00    +0.000 OA
ATOM     19  N   UNL     1      47.439   5.002  16.304  0.00  0.00    +0.000 N 
ATOM     20  H   UNL     1      46.528   5.374  16.525  0.00  0.00    +0.000 HD
BRANCH  17  28
ATOM     21  C   UNL     1      48.407   8.909  16.774  0.00  0.00    +0.000 A 
ATOM     22  N   UNL     1      48.265  10.233  16.979  0.00  0.00    +0.000 NA
ATOM     23  C   UNL     1      48.022  10.652  18.224  0.00  0.00    +0.000 A 
ATOM     24  N   UNL     1      47.910   9.899  19.315  0.00  0.00    +0.000 NA
ATOM     25  C   UNL     1      48.049   8.586  19.063  0.00  0.00    +0.000 A 
ATOM     26  S   UNL     1      47.942   7.474  20.342  0.00  0.00    +0.000 S 
ATOM     27  C   UNL     1      48.187   6.164  19.287  0.00  0.00    +0.000 A 
ATOM     28  C   UNL     1      48.347   6.532  17.957  0.00  0.00    +0.000 A 
ATOM     29  C   UNL     1      48.282   7.988  17.829  0.00  0.00    +0.000 A 
BRANCH  21  31
ATOM     30  C   UNL     1      50.021   8.434  15.148  0.00  0.00    +0.000 C 
ATOM     31  O   UNL     1      48.637   8.474  15.486  0.00  0.00    +0.000 OA
ENDBRANCH  21  31
ENDBRANCH  17  28
ENDBRANCH   1  19
TORSDOF 8
ENDMDL
MODEL 5
REMARK VINA RESULT:    -7.058      1.636      2.145
REMARK INTER + INTRA:         -11.889
REMARK INTER:                 -10.640
REMARK INTRA:                  -1.249
REMARK UNBOUND:                -1.530
REMARK  Name = 
REMARK  9 active torsions:
REMARK  status: ('A' for Active; 'I' for Inactive)
REMARK    1  A    between atoms: C_1  and  O_2
REMARK    2  A    between atoms: O_2  and  C_3
REMARK    3  A    between atoms: C_10  and  C_11
REMARK    4  A    between atoms: N_13  and  C_14
REMARK    5  A    between atoms: C_14  and  C_15
REMARK    6  A    between atoms: C_18  and  C_19
REMARK    7  A    between atoms: C_19  and  O_20
REMARK    8  A    between atoms: O_20  and  C_21
REMARK    9  A    between atoms: C_21  and  C_22
REMARK                            x       y       z     vdW  Elec       q    Type
REMARK                         _______ _______ _______ _____ _____    ______ ____
ROOT
ATOM      1  C   UNL     1      47.289   8.251  12.862  0.00  0.00    +0.000 C 
ENDROOT
BRANCH   1   2
ATOM      2  C   UNL     1      46.471   7.076  12.384  0.00  0.00    +0.000 A 
ATOM      3  C   UNL     1      46.136   6.944  11.030  0.00  0.00    +0.000 A 
ATOM      4  C   UNL     1      45.350   5.872  10.590  0.00  0.00    +0.000 A 
ATOM      5  C   UNL     1      44.870   4.916  11.497  0.00  0.00    +0.000 A 
ATOM      6  C   UNL     1      45.198   5.055  12.852  0.00  0.00    +0.000 A 
ATOM      7  C   UNL     1      45.985   6.124  13.291  0.00  0.00    +0.000 A 
BRANCH   5   8
ATOM      8  C   UNL     1      44.007   3.772  11.022  0.00  0.00    +0.000 C 
BRANCH   8   9
ATOM      9  O   UNL     1      44.844   2.693  10.620  0.00  0.00    +0.000 OA
BRANCH   9  10
ATOM     10  C   UNL     1      44.443   2.142   9.366  0.00  0.00    +0.000 C 
BRANCH  10  11
ATOM     11  C   UNL     1      45.557   2.276   8.356  0.00  0.00    +0.000 A 
ATOM     12  C   UNL     1      46.375   1.182   8.030  0.00  0.00    +0.000 A 
ATOM     13  C   UNL     1      47.379   1.303   7.068  0.00  0.00    +0.000 A 
ATOM     14  C   UNL     1      47.571   2.514   6.409  0.00  0.00    +0.000 A 
ATOM     15  C   UNL     1      46.759   3.605   6.711  0.00  0.00    +0.000 A 
ATOM     16  C   UNL     1      45.754   3.487   7.675  0.00  0.00    +0.000 A 
ENDBRANCH  10  11
ENDBRANCH   9  10
ENDBRANCH   8   9
ENDBRANCH   5   8
ENDBRANCH   1   2
BRANCH   1  19
ATOM     17  C   UNL     1      48.690   8.203  14.891  0.00  0.00    +0.000 C 
ATOM     18  O   UNL     1      47.927   8.966  15.483  0.00  0.00    +0.000 OA
ATOM     19  N   UNL     1      48.441   7.805  13.607  0.00  0.00    +0.000 N 
ATOM     20  H   UNL     1      49.086   7.191  13.133  0.00  0.00    +0.000 HD
BRANCH  17  28
ATOM     21  C   UNL     1      49.426   5.330  16.641  0.00  0.00    +0.000 A 
ATOM     22  N   UNL     1      49.987   4.300  17.304  0.00  0.00    +0.000 NA
ATOM     23  C   UNL     1      51.285   4.382  17.610  0.00  0.00    +0.000 A 
ATOM     24  N   UNL     1      52.109   5.391  17.339  0.00  0.00    +0.000 NA
ATOM     25  C   UNL     1      51.511   6.392  16.670  0.00  0.00    +0.000 A 
ATOM     26  S   UNL     1      52.411   7.768  16.245  0.00  0.00    +0.000 S 
ATOM     27  C   UNL     1      51.063   8.475  15.489  0.00  0.00    +0.000 A 
ATOM     28  C   UNL     1      49.915   7.694  15.534  0.00  0.00    +0.000 A 
ATOM     29  C   UNL     1      50.183   6.452  16.260  0.00  0.00    +0.000 A 
BRANCH  21  31
ATOM     30  C   UNL     1      47.554   3.933  16.515  0.00  0.00    +0.000 C 
ATOM     31  O   UNL     1      48.092   5.237  16.307  0.00  0.00    +0.000 OA
ENDBRANCH  21  31
ENDBRANCH  17  28
ENDBRANCH   1  19
TORSDOF 8
ENDMDL
MODEL 6
REMARK VINA RESULT:    -6.801      2.422      3.132
REMARK INTER + INTRA:         -11.512
REMARK INTER:                 -10.570
REMARK INTRA:                  -0.942
REMARK UNBOUND:                -1.530
REMARK  Name = 
REMARK  9 active torsions:
REMARK  status: ('A' for Active; 'I' for Inactive)
REMARK    1  A    between atoms: C_1  and  O_2
REMARK    2  A    between atoms: O_2  and  C_3
REMARK    3  A    between atoms: C_10  and  C_11
REMARK    4  A    between atoms: N_13  and  C_14
REMARK    5  A    between atoms: C_14  and  C_15
REMARK    6  A    between atoms: C_18  and  C_19
REMARK    7  A    between atoms: C_19  and  O_20
REMARK    8  A    between atoms: O_20  and  C_21
REMARK    9  A    between atoms: C_21  and  C_22
REMARK                            x       y       z     vdW  Elec       q    Type
REMARK                         _______ _______ _______ _____ _____    ______ ____
ROOT
ATOM      1  C   UNL     1      47.914   4.863  14.400  0.00  0.00    +0.000 C 
ENDROOT
BRANCH   1   2
ATOM      2  C   UNL     1      46.804   4.859  13.377  0.00  0.00    +0.000 A 
ATOM      3  C   UNL     1      46.424   6.043  12.732  0.00  0.00    +0.000 A 
ATOM      4  C   UNL     1      45.374   6.047  11.807  0.00  0.00    +0.000 A 
ATOM      5  C   UNL     1      44.670   4.869  11.517  0.00  0.00    +0.000 A 
ATOM      6  C   UNL     1      45.044   3.687  12.171  0.00  0.00    +0.000 A 
ATOM      7  C   UNL     1      46.096   3.684  13.093  0.00  0.00    +0.000 A 
BRANCH   5   8
ATOM      8  C   UNL     1      43.526   4.880  10.533  0.00  0.00    +0.000 C 
BRANCH   8   9
ATOM      9  O   UNL     1      43.933   4.226   9.337  0.00  0.00    +0.000 OA
BRANCH   9  10
ATOM     10  C   UNL     1      45.268   4.569   8.966  0.00  0.00    +0.000 C 
BRANCH  10  11
ATOM     11  C   UNL     1      45.908   3.431   8.208  0.00  0.00    +0.000 A 
ATOM     12  C   UNL     1      46.743   3.672   7.106  0.00  0.00    +0.000 A 
ATOM     13  C   UNL     1      47.362   2.618   6.433  0.00  0.00    +0.000 A 
ATOM     14  C   UNL     1      47.166   1.308   6.861  0.00  0.00    +0.000 A 
ATOM     15  C   UNL     1      46.353   1.051   7.963  0.00  0.00    +0.000 A 
ATOM     16  C   UNL     1      45.731   2.106   8.636  0.00  0.00    +0.000 A 
ENDBRANCH  10  11
ENDBRANCH   9  10
ENDBRANCH   8   9
ENDBRANCH   5   8
ENDBRANCH   1   2
BRANCH   1  19
ATOM     17  C   UNL     1      48.808   6.773  15.679  0.00  0.00    +0.000 C 
ATOM     18  O   UNL     1      49.939   6.596  15.228  0.00  0.00    +0.000 OA
ATOM     19  N   UNL     1      47.764   5.968  15.316  0.00  0.00    +0.000 N 
ATOM     20  H   UNL     1      46.848   6.119  15.709  0.00  0.00    +0.000 HD
BRANCH  17  28
ATOM     21  C   UNL     1      47.816   6.806  18.976  0.00  0.00    +0.000 A 
ATOM     22  N   UNL     1      47.485   7.101  20.249  0.00  0.00    +0.000 NA
ATOM     23  C   UNL     1      47.429   8.389  20.599  0.00  0.00    +0.000 A 
ATOM     24  N   UNL     1      47.659   9.442  19.820  0.00  0.00    +0.000 NA
ATOM     25  C   UNL     1      47.995   9.102  18.564  0.00  0.00    +0.000 A 
ATOM     26  S   UNL     1      48.318  10.320  17.425  0.00  0.00    +0.000 S 
ATOM     27  C   UNL     1      48.646   9.171  16.217  0.00  0.00    +0.000 A 
ATOM     28  C   UNL     1      48.527   7.853  16.642  0.00  0.00    +0.000 A 
ATOM     29  C   UNL     1      48.118   7.816  18.046  0.00  0.00    +0.000 A 
BRANCH  21  31
ATOM     30  C   UNL     1      49.163   4.894  18.905  0.00  0.00    +0.000 C 
ATOM     31  O   UNL     1      47.894   5.477  18.619  0.00  0.00    +0.000 OA
ENDBRANCH  21  31
ENDBRANCH  17  28
ENDBRANCH   1  19
TORSDOF 8
ENDMDL
MODEL 7
REMARK VINA RESULT:    -6.687      2.401      3.361
REMARK INTER + INTRA:         -11.345
REMARK INTER:                 -10.646
REMARK INTRA:                  -0.698
REMARK UNBOUND:                -1.530
REMARK  Name = 
REMARK  9 active torsions:
REMARK  status: ('A' for Active; 'I' for Inactive)
REMARK    1  A    between atoms: C_1  and  O_2
REMARK    2  A    between atoms: O_2  and  C_3
REMARK    3  A    between atoms: C_10  and  C_11
REMARK    4  A    between atoms: N_13  and  C_14
REMARK    5  A    between atoms: C_14  and  C_15
REMARK    6  A    between atoms: C_18  and  C_19
REMARK    7  A    between atoms: C_19  and  O_20
REMARK    8  A    between atoms: O_20  and  C_21
REMARK    9  A    between atoms: C_21  and  C_22
REMARK                            x       y       z     vdW  Elec       q    Type
REMARK                         _______ _______ _______ _____ _____    ______ ____
ROOT
ATOM      1  C   UNL     1      49.500   7.839  15.475  0.00  0.00    +0.000 C 
ENDROOT
BRANCH   1   2
ATOM      2  C   UNL     1      48.683   7.336  14.309  0.00  0.00    +0.000 A 
ATOM      3  C   UNL     1      48.697   8.014  13.083  0.00  0.00    +0.000 A 
ATOM      4  C   UNL     1      47.915   7.567  12.011  0.00  0.00    +0.000 A 
ATOM      5  C   UNL     1      47.092   6.440  12.146  0.00  0.00    +0.000 A 
ATOM      6  C   UNL     1      47.071   5.769  13.375  0.00  0.00    +0.000 A 
ATOM      7  C   UNL     1      47.854   6.214  14.446  0.00  0.00    +0.000 A 
BRANCH   5   8
ATOM      8  C   UNL     1      46.236   5.972  10.994  0.00  0.00    +0.000 C 
BRANCH   8   9
ATOM      9  O   UNL     1      45.182   5.159  11.497  0.00  0.00    +0.000 OA
BRANCH   9  10
ATOM     10  C   UNL     1      44.265   4.776  10.472  0.00  0.00    +0.000 C 
BRANCH  10  11
ATOM     11  C   UNL     1      44.957   3.905   9.451  0.00  0.00    +0.000 A 
ATOM     12  C   UNL     1      45.638   4.467   8.361  0.00  0.00    +0.000 A 
ATOM     13  C   UNL     1      46.308   3.659   7.441  0.00  0.00    +0.000 A 
ATOM     14  C   UNL     1      46.318   2.276   7.607  0.00  0.00    +0.000 A 
ATOM     15  C   UNL     1      45.659   1.702   8.693  0.00  0.00    +0.000 A 
ATOM     16  C   UNL     1      44.987   2.511   9.613  0.00  0.00    +0.000 A 
ENDBRANCH  10  11
ENDBRANCH   9  10
ENDBRANCH   8   9
ENDBRANCH   5   8
ENDBRANCH   1   2
BRANCH   1  19
ATOM     17  C   UNL     1      50.196   6.171  17.153  0.00  0.00    +0.000 C 
ATOM     18  O   UNL     1      49.237   6.440  17.875  0.00  0.00    +0.000 OA
ATOM     19  N   UNL     1      50.388   6.811  15.960  0.00  0.00    +0.000 N 
ATOM     20  H   UNL     1      51.189   6.589  15.389  0.00  0.00    +0.000 HD
BRANCH  17  28
ATOM     21  C   UNL     1      50.233   2.729  17.053  0.00  0.00    +0.000 A 
ATOM     22  N   UNL     1      50.526   1.414  17.084  0.00  0.00    +0.000 NA
ATOM     23  C   UNL     1      51.726   1.050  17.545  0.00  0.00    +0.000 A 
ATOM     24  N   UNL     1      52.687   1.850  17.998  0.00  0.00    +0.000 NA
ATOM     25  C   UNL     1      52.356   3.152  17.941  0.00  0.00    +0.000 A 
ATOM     26  S   UNL     1      53.462   4.320  18.486  0.00  0.00    +0.000 S 
ATOM     27  C   UNL     1      52.394   5.583  18.096  0.00  0.00    +0.000 A 
ATOM     28  C   UNL     1      51.191   5.157  17.546  0.00  0.00    +0.000 A 
ATOM     29  C   UNL     1      51.165   3.696  17.472  0.00  0.00    +0.000 A 
BRANCH  21  31
ATOM     30  C   UNL     1      47.973   3.084  17.543  0.00  0.00    +0.000 C 
ATOM     31  O   UNL     1      49.004   3.108  16.558  0.00  0.00    +0.000 OA
ENDBRANCH  21  31
ENDBRANCH  17  28
ENDBRANCH   1  19
TORSDOF 8
ENDMDL
MODEL 8
REMARK VINA RESULT:    -6.622      1.784      2.482
REMARK INTER + INTRA:         -11.249
REMARK INTER:                  -9.698
REMARK INTRA:                  -1.551
REMARK UNBOUND:                -1.530
REMARK  Name = 
REMARK  9 active torsions:
REMARK  status: ('A' for Active; 'I' for Inactive)
REMARK    1  A    between atoms: C_1  and  O_2
REMARK    2  A    between atoms: O_2  and  C_3
REMARK    3  A    between atoms: C_10  and  C_11
REMARK    4  A    between atoms: N_13  and  C_14
REMARK    5  A    between atoms: C_14  and  C_15
REMARK    6  A    between atoms: C_18  and  C_19
REMARK    7  A    between atoms: C_19  and  O_20
REMARK    8  A    between atoms: O_20  and  C_21
REMARK    9  A    between atoms: C_21  and  C_22
REMARK                            x       y       z     vdW  Elec       q    Type
REMARK                         _______ _______ _______ _____ _____    ______ ____
ROOT
ATOM      1  C   UNL     1      48.539   7.360  13.552  0.00  0.00    +0.000 C 
ENDROOT
BRANCH   1   2
ATOM      2  C   UNL     1      47.282   6.535  13.416  0.00  0.00    +0.000 A 
ATOM      3  C   UNL     1      47.307   5.153  13.644  0.00  0.00    +0.000 A 
ATOM      4  C   UNL     1      46.149   4.382  13.487  0.00  0.00    +0.000 A 
ATOM      5  C   UNL     1      44.943   4.974  13.085  0.00  0.00    +0.000 A 
ATOM      6  C   UNL     1      44.922   6.355  12.847  0.00  0.00    +0.000 A 
ATOM      7  C   UNL     1      46.078   7.126  13.007  0.00  0.00    +0.000 A 
BRANCH   5   8
ATOM      8  C   UNL     1      43.702   4.137  12.899  0.00  0.00    +0.000 C 
BRANCH   8   9
ATOM      9  O   UNL     1      43.999   3.050  12.029  0.00  0.00    +0.000 OA
BRANCH   9  10
ATOM     10  C   UNL     1      43.433   3.232  10.731  0.00  0.00    +0.000 C 
BRANCH  10  11
ATOM     11  C   UNL     1      44.518   3.213   9.681  0.00  0.00    +0.000 A 
ATOM     12  C   UNL     1      44.998   2.002   9.157  0.00  0.00    +0.000 A 
ATOM     13  C   UNL     1      45.974   1.992   8.160  0.00  0.00    +0.000 A 
ATOM     14  C   UNL     1      46.474   3.192   7.662  0.00  0.00    +0.000 A 
ATOM     15  C   UNL     1      45.998   4.403   8.160  0.00  0.00    +0.000 A 
ATOM     16  C   UNL     1      45.022   4.415   9.160  0.00  0.00    +0.000 A 
ENDBRANCH  10  11
ENDBRANCH   9  10
ENDBRANCH   8   9
ENDBRANCH   5   8
ENDBRANCH   1   2
BRANCH   1  19
ATOM     17  C   UNL     1      48.874   8.022  15.903  0.00  0.00    +0.000 C 
ATOM     18  O   UNL     1      48.108   8.978  15.784  0.00  0.00    +0.000 OA
ATOM     19  N   UNL     1      49.131   7.183  14.855  0.00  0.00    +0.000 N 
ATOM     20  H   UNL     1      49.774   6.415  14.968  0.00  0.00    +0.000 HD
BRANCH  17  28
ATOM     21  C   UNL     1      48.653   5.474  18.208  0.00  0.00    +0.000 A 
ATOM     22  N   UNL     1      48.801   4.601  19.224  0.00  0.00    +0.000 NA
ATOM     23  C   UNL     1      49.707   4.881  20.164  0.00  0.00    +0.000 A 
ATOM     24  N   UNL     1      50.496   5.950  20.223  0.00  0.00    +0.000 NA
ATOM     25  C   UNL     1      50.322   6.788  19.187  0.00  0.00    +0.000 A 
ATOM     26  S   UNL     1      51.241   8.214  19.101  0.00  0.00    +0.000 S 
ATOM     27  C   UNL     1      50.505   8.658  17.635  0.00  0.00    +0.000 A 
ATOM     28  C   UNL     1      49.562   7.746  17.178  0.00  0.00    +0.000 A 
ATOM     29  C   UNL     1      49.441   6.635  18.122  0.00  0.00    +0.000 A 
BRANCH  21  31
ATOM     30  C   UNL     1      47.519   3.775  17.066  0.00  0.00    +0.000 C 
ATOM     31  O   UNL     1      47.732   5.176  17.227  0.00  0.00    +0.000 OA
ENDBRANCH  21  31
ENDBRANCH  17  28
ENDBRANCH   1  19
TORSDOF 8
ENDMDL
MODEL 9
REMARK VINA RESULT:    -6.566      4.689      9.177
REMARK INTER + INTRA:         -11.166
REMARK INTER:                 -10.103
REMARK INTRA:                  -1.063
REMARK UNBOUND:                -1.530
REMARK  Name = 
REMARK  9 active torsions:
REMARK  status: ('A' for Active; 'I' for Inactive)
REMARK    1  A    between atoms: C_1  and  O_2
REMARK    2  A    between atoms: O_2  and  C_3
REMARK    3  A    between atoms: C_10  and  C_11
REMARK    4  A    between atoms: N_13  and  C_14
REMARK    5  A    between atoms: C_14  and  C_15
REMARK    6  A    between atoms: C_18  and  C_19
REMARK    7  A    between atoms: C_19  and  O_20
REMARK    8  A    between atoms: O_20  and  C_21
REMARK    9  A    between atoms: C_21  and  C_22
REMARK                            x       y       z     vdW  Elec       q    Type
REMARK                         _______ _______ _______ _____ _____    ______ ____
ROOT
ATOM      1  C   UNL     1      47.392   3.210  17.018  0.00  0.00    +0.000 C 
ENDROOT
BRANCH   1   2
ATOM      2  C   UNL     1      48.853   3.248  17.394  0.00  0.00    +0.000 A 
ATOM      3  C   UNL     1      49.401   4.377  18.017  0.00  0.00    +0.000 A 
ATOM      4  C   UNL     1      50.763   4.425  18.337  0.00  0.00    +0.000 A 
ATOM      5  C   UNL     1      51.610   3.351  18.029  0.00  0.00    +0.000 A 
ATOM      6  C   UNL     1      51.063   2.227  17.396  0.00  0.00    +0.000 A 
ATOM      7  C   UNL     1      49.702   2.177  17.079  0.00  0.00    +0.000 A 
BRANCH   5   8
ATOM      8  C   UNL     1      53.082   3.415  18.358  0.00  0.00    +0.000 C 
BRANCH   8   9
ATOM      9  O   UNL     1      53.414   2.332  19.221  0.00  0.00    +0.000 OA
BRANCH   9  10
ATOM     10  C   UNL     1      54.786   1.958  19.107  0.00  0.00    +0.000 C 
BRANCH  10  11
ATOM     11  C   UNL     1      54.936   0.809  18.140  0.00  0.00    +0.000 A 
ATOM     12  C   UNL     1      54.627  -0.506  18.522  0.00  0.00    +0.000 A 
ATOM     13  C   UNL     1      54.732  -1.559  17.612  0.00  0.00    +0.000 A 
ATOM     14  C   UNL     1      55.133  -1.310  16.302  0.00  0.00    +0.000 A 
ATOM     15  C   UNL     1      55.429  -0.009  15.902  0.00  0.00    +0.000 A 
ATOM     16  C   UNL     1      55.326   1.046  16.813  0.00  0.00    +0.000 A 
ENDBRANCH  10  11
ENDBRANCH   9  10
ENDBRANCH   8   9
ENDBRANCH   5   8
ENDBRANCH   1   2
BRANCH   1  19
ATOM     17  C   UNL     1      47.093   4.112  14.742  0.00  0.00    +0.000 C 
ATOM     18  O   UNL     1      47.384   3.030  14.233  0.00  0.00    +0.000 OA
ATOM     19  N   UNL     1      47.071   4.275  16.099  0.00  0.00    +0.000 N 
ATOM     20  H   UNL     1      46.846   5.174  16.497  0.00  0.00    +0.000 HD
BRANCH  17  28
ATOM     21  C   UNL     1      44.488   4.864  12.619  0.00  0.00    +0.000 A 
ATOM     22  N   UNL     1      43.585   5.422  11.789  0.00  0.00    +0.000 NA
ATOM     23  C   UNL     1      43.821   6.660  11.347  0.00  0.00    +0.000 A 
ATOM     24  N   UNL     1      44.872   7.425  11.630  0.00  0.00    +0.000 NA
ATOM     25  C   UNL     1      45.741   6.833  12.467  0.00  0.00    +0.000 A 
ATOM     26  S   UNL     1      47.150   7.661  12.933  0.00  0.00    +0.000 S 
ATOM     27  C   UNL     1      47.648   6.363  13.910  0.00  0.00    +0.000 A 
ATOM     28  C   UNL     1      46.768   5.287  13.912  0.00  0.00    +0.000 A 
ATOM     29  C   UNL     1      45.635   5.566  13.030  0.00  0.00    +0.000 A 
BRANCH  21  31
ATOM     30  C   UNL     1      43.494   2.793  12.173  0.00  0.00    +0.000 C 
ATOM     31  O   UNL     1      44.235   3.593  13.091  0.00  0.00    +0.000 OA
ENDBRANCH  21  31
ENDBRANCH  17  28
ENDBRANCH   1  19
TORSDOF 8
ENDMDL
