MODEL 1
REMARK VINA RESULT:    -7.808      0.000      0.000
REMARK INTER + INTRA:         -11.193
REMARK INTER:                 -10.547
REMARK INTRA:                  -0.645
REMARK UNBOUND:                -0.645
REMARK  Name = 
REMARK  7 active torsions:
REMARK  status: ('A' for Active; 'I' for Inactive)
REMARK    1  A    between atoms: N_1  and  C_2
REMARK    2  A    between atoms: C_2  and  C_3
REMARK    3  A    between atoms: C_6  and  N_7
REMARK    4  A    between atoms: N_7  and  C_8
REMARK    5  A    between atoms: C_8  and  C_9
REMARK    6  A    between atoms: C_13  and  C_14
REMARK    7  A    between atoms: C_14  and  O_15
REMARK                            x       y       z     vdW  Elec       q    Type
REMARK                         _______ _______ _______ _____ _____    ______ ____
ROOT
ATOM      1  N   UNL     1      43.926   4.746   9.594  0.00  0.00    +0.000 N 
ATOM      2  H   UNL     1      43.013   4.741   9.141  0.00  0.00    +0.000 HD
ENDROOT
BRANCH   1   6
ATOM      3  C   UNL     1      46.575   2.075   7.650  0.00  0.00    +0.000 A 
ATOM      4  C   UNL     1      45.629   1.578   8.557  0.00  0.00    +0.000 A 
ATOM      5  C   UNL     1      44.733   2.439   9.204  0.00  0.00    +0.000 A 
ATOM      6  C   UNL     1      44.778   3.817   8.979  0.00  0.00    +0.000 A 
ATOM      7  C   UNL     1      45.675   4.300   8.019  0.00  0.00    +0.000 A 
ATOM      8  C   UNL     1      46.576   3.445   7.375  0.00  0.00    +0.000 A 
BRANCH   3   9
ATOM      9  C   UNL     1      47.583   1.159   7.005  0.00  0.00    +0.000 C 
BRANCH   9  10
ATOM     10  N   UNL     1      48.339   1.834   5.958  0.00  0.00    +0.000 NA
ATOM     11  H   UNL     1      48.863   1.140   5.429  0.00  0.00    +0.000 HD
ATOM     12  H   UNL     1      49.030   2.442   6.397  0.00  0.00    +0.000 HD
ENDBRANCH   9  10
ENDBRANCH   3   9
ENDBRANCH   1   6
BRANCH   1  13
ATOM     13  C   UNL     1      43.800   4.691  11.046  0.00  0.00    +0.000 C 
BRANCH  13  14
ATOM     14  C   UNL     1      45.078   5.186  11.689  0.00  0.00    +0.000 A 
ATOM     15  C   UNL     1      45.736   6.320  11.202  0.00  0.00    +0.000 A 
ATOM     16  C   UNL     1      46.855   6.824  11.867  0.00  0.00    +0.000 A 
ATOM     17  C   UNL     1      47.320   6.209  13.031  0.00  0.00    +0.000 A 
ATOM     18  C   UNL     1      46.692   5.061  13.530  0.00  0.00    +0.000 A 
ATOM     19  C   UNL     1      45.573   4.559  12.846  0.00  0.00    +0.000 A 
BRANCH  18  20
ATOM     20  C   UNL     1      47.110   4.431  14.835  0.00  0.00    +0.000 C 
BRANCH  20  21
ATOM     21  O   UNL     1      47.502   3.073  14.678  0.00  0.00    +0.000 OA
ATOM     22  H   UNL     1      47.914   2.810  15.519  0.00  0.00    +0.000 HD
ENDBRANCH  20  21
ENDBRANCH  18  20
ENDBRANCH  13  14
ENDBRANCH   1  13
TORSDOF 7
ENDMDL
MODEL 2
REMARK VINA RESULT:    -7.362      1.797      2.563
REMARK INTER + INTRA:         -10.590
REMARK INTER:                  -9.925
REMARK INTRA:                  -0.664
REMARK UNBOUND:                -0.645
REMARK  Name = 
REMARK  7 active torsions:
REMARK  status: ('A' for Active; 'I' for Inactive)
REMARK    1  A    between atoms: N_1  and  C_2
REMARK    2  A    between atoms: C_2  and  C_3
REMARK    3  A    between atoms: C_6  and  N_7
REMARK    4  A    between atoms: N_7  and  C_8
REMARK    5  A    between atoms: C_8  and  C_9
REMARK    6  A    between atoms: C_13  and  C_14
REMARK    7  A    between atoms: C_14  and  O_15
REMARK                            x       y       z     vdW  Elec       q    Type
REMARK                         _______ _______ _______ _____ _____    ______ ____
ROOT
ATOM      1  N   UNL     1      43.772   4.795   9.765  0.00  0.00    +0.000 N 
ATOM      2  H   UNL     1      42.900   4.869   9.243  0.00  0.00    +0.000 HD
ENDROOT
BRANCH   1   6
ATOM      3  C   UNL     1      46.416   2.132   7.805  0.00  0.00    +0.000 A 
ATOM      4  C   UNL     1      46.516   3.510   7.567  0.00  0.00    +0.000 A 
ATOM      5  C   UNL     1      45.660   4.413   8.213  0.00  0.00    +0.000 A 
ATOM      6  C   UNL     1      44.672   3.960   9.089  0.00  0.00    +0.000 A 
ATOM      7  C   UNL     1      44.625   2.590   9.379  0.00  0.00    +0.000 A 
ATOM      8  C   UNL     1      45.472   1.684   8.732  0.00  0.00    +0.000 A 
BRANCH   3   9
ATOM      9  C   UNL     1      47.290   1.156   7.061  0.00  0.00    +0.000 C 
BRANCH   9  10
ATOM     10  N   UNL     1      48.338   1.830   6.307  0.00  0.00    +0.000 NA
ATOM     11  H   UNL     1      48.398   1.415   5.379  0.00  0.00    +0.000 HD
ATOM     12  H   UNL     1      49.233   1.649   6.760  0.00  0.00    +0.000 HD
ENDBRANCH   9  10
ENDBRANCH   3   9
ENDBRANCH   1   6
BRANCH   1  13
ATOM     13  C   UNL     1      43.525   4.525  11.177  0.00  0.00    +0.000 C 
BRANCH  13  14
ATOM     14  C   UNL     1      44.642   5.112  12.012  0.00  0.00    +0.000 A 
ATOM     15  C   UNL     1      45.584   4.287  12.637  0.00  0.00    +0.000 A 
ATOM     16  C   UNL     1      46.666   4.845  13.318  0.00  0.00    +0.000 A 
ATOM     17  C   UNL     1      46.828   6.231  13.371  0.00  0.00    +0.000 A 
ATOM     18  C   UNL     1      45.891   7.081  12.771  0.00  0.00    +0.000 A 
ATOM     19  C   UNL     1      44.801   6.506  12.096  0.00  0.00    +0.000 A 
BRANCH  18  20
ATOM     20  C   UNL     1      46.087   8.575  12.727  0.00  0.00    +0.000 C 
BRANCH  20  21
ATOM     21  O   UNL     1      44.871   9.287  12.922  0.00  0.00    +0.000 OA
ATOM     22  H   UNL     1      44.377   8.800  13.603  0.00  0.00    +0.000 HD
ENDBRANCH  20  21
ENDBRANCH  18  20
ENDBRANCH  13  14
ENDBRANCH   1  13
TORSDOF 7
ENDMDL
MODEL 3
REMARK VINA RESULT:    -7.052      2.900      6.319
REMARK INTER + INTRA:         -10.171
REMARK INTER:                  -9.635
REMARK INTRA:                  -0.536
REMARK UNBOUND:                -0.645
REMARK  Name = 
REMARK  7 active torsions:
REMARK  status: ('A' for Active; 'I' for Inactive)
REMARK    1  A    between atoms: N_1  and  C_2
REMARK    2  A    between atoms: C_2  and  C_3
REMARK    3  A    between atoms: C_6  and  N_7
REMARK    4  A    between atoms: N_7  and  C_8
REMARK    5  A    between atoms: C_8  and  C_9
REMARK    6  A    between atoms: C_13  and  C_14
REMARK    7  A    between atoms: C_14  and  O_15
REMARK                            x       y       z     vdW  Elec       q    Type
REMARK                         _______ _______ _______ _____ _____    ______ ____
ROOT
ATOM      1  N   UNL     1      44.008   4.366  10.264  0.00  0.00    +0.000 N 
ATOM      2  H   UNL     1      43.099   4.766  10.495  0.00  0.00    +0.000 HD
ENDROOT
BRANCH   1   6
ATOM      3  C   UNL     1      46.945   5.757  12.978  0.00  0.00    +0.000 A 
ATOM      4  C   UNL     1      46.281   4.549  13.232  0.00  0.00    +0.000 A 
ATOM      5  C   UNL     1      45.314   4.061  12.343  0.00  0.00    +0.000 A 
ATOM      6  C   UNL     1      44.971   4.779  11.196  0.00  0.00    +0.000 A 
ATOM      7  C   UNL     1      45.688   5.947  10.909  0.00  0.00    +0.000 A 
ATOM      8  C   UNL     1      46.650   6.442  11.797  0.00  0.00    +0.000 A 
BRANCH   3   9
ATOM      9  C   UNL     1      47.936   6.316  13.966  0.00  0.00    +0.000 C 
BRANCH   9  10
ATOM     10  N   UNL     1      47.884   5.615  15.243  0.00  0.00    +0.000 NA
ATOM     11  H   UNL     1      47.121   4.940  15.218  0.00  0.00    +0.000 HD
ATOM     12  H   UNL     1      47.649   6.286  15.973  0.00  0.00    +0.000 HD
ENDBRANCH   9  10
ENDBRANCH   3   9
ENDBRANCH   1   6
BRANCH   1  13
ATOM     13  C   UNL     1      44.319   4.533   8.849  0.00  0.00    +0.000 C 
BRANCH  13  14
ATOM     14  C   UNL     1      45.197   3.392   8.381  0.00  0.00    +0.000 A 
ATOM     15  C   UNL     1      45.111   2.128   8.974  0.00  0.00    +0.000 A 
ATOM     16  C   UNL     1      45.851   1.060   8.465  0.00  0.00    +0.000 A 
ATOM     17  C   UNL     1      46.673   1.239   7.351  0.00  0.00    +0.000 A 
ATOM     18  C   UNL     1      46.792   2.499   6.748  0.00  0.00    +0.000 A 
ATOM     19  C   UNL     1      46.049   3.567   7.276  0.00  0.00    +0.000 A 
BRANCH  18  20
ATOM     20  C   UNL     1      47.595   2.703   5.488  0.00  0.00    +0.000 C 
BRANCH  20  21
ATOM     21  O   UNL     1      48.640   1.749   5.351  0.00  0.00    +0.000 OA
ATOM     22  H   UNL     1      49.461   2.206   5.601  0.00  0.00    +0.000 HD
ENDBRANCH  20  21
ENDBRANCH  18  20
ENDBRANCH  13  14
ENDBRANCH   1  13
TORSDOF 7
ENDMDL
MODEL 4
REMARK VINA RESULT:    -6.863      2.701      6.191
REMARK INTER + INTRA:          -9.915
REMARK INTER:                  -9.469
REMARK INTRA:                  -0.446
REMARK UNBOUND:                -0.645
REMARK  Name = 
REMARK  7 active torsions:
REMARK  status: ('A' for Active; 'I' for Inactive)
REMARK    1  A    between atoms: N_1  and  C_2
REMARK    2  A    between atoms: C_2  and  C_3
REMARK    3  A    between atoms: C_6  and  N_7
REMARK    4  A    between atoms: N_7  and  C_8
REMARK    5  A    between atoms: C_8  and  C_9
REMARK    6  A    between atoms: C_13  and  C_14
REMARK    7  A    between atoms: C_14  and  O_15
REMARK                            x       y       z     vdW  Elec       q    Type
REMARK                         _______ _______ _______ _____ _____    ______ ____
ROOT
ATOM      1  N   UNL     1      44.776   3.139  11.756  0.00  0.00    +0.000 N 
ATOM      2  H   UNL     1      44.388   2.659  12.567  0.00  0.00    +0.000 HD
ENDROOT
BRANCH   1   6
ATOM      3  C   UNL     1      45.699   7.156  12.725  0.00  0.00    +0.000 A 
ATOM      4  C   UNL     1      44.415   6.829  12.267  0.00  0.00    +0.000 A 
ATOM      5  C   UNL     1      44.081   5.506  11.952  0.00  0.00    +0.000 A 
ATOM      6  C   UNL     1      45.027   4.484  12.062  0.00  0.00    +0.000 A 
ATOM      7  C   UNL     1      46.284   4.804  12.588  0.00  0.00    +0.000 A 
ATOM      8  C   UNL     1      46.625   6.125  12.898  0.00  0.00    +0.000 A 
BRANCH   3   9
ATOM      9  C   UNL     1      46.079   8.588  12.999  0.00  0.00    +0.000 C 
BRANCH   9  10
ATOM     10  N   UNL     1      46.852   8.718  14.228  0.00  0.00    +0.000 NA
ATOM     11  H   UNL     1      47.534   7.962  14.270  0.00  0.00    +0.000 HD
ATOM     12  H   UNL     1      46.227   8.585  15.021  0.00  0.00    +0.000 HD
ENDBRANCH   9  10
ENDBRANCH   3   9
ENDBRANCH   1   6
BRANCH   1  13
ATOM     13  C   UNL     1      44.009   2.850  10.550  0.00  0.00    +0.000 C 
BRANCH  13  14
ATOM     14  C   UNL     1      44.901   2.980   9.334  0.00  0.00    +0.000 A 
ATOM     15  C   UNL     1      45.204   4.235   8.794  0.00  0.00    +0.000 A 
ATOM     16  C   UNL     1      46.110   4.346   7.738  0.00  0.00    +0.000 A 
ATOM     17  C   UNL     1      46.731   3.209   7.218  0.00  0.00    +0.000 A 
ATOM     18  C   UNL     1      46.432   1.939   7.727  0.00  0.00    +0.000 A 
ATOM     19  C   UNL     1      45.513   1.840   8.784  0.00  0.00    +0.000 A 
BRANCH  18  20
ATOM     20  C   UNL     1      47.156   0.703   7.254  0.00  0.00    +0.000 C 
BRANCH  20  21
ATOM     21  O   UNL     1      46.729  -0.469   7.936  0.00  0.00    +0.000 OA
ATOM     22  H   UNL     1      47.322  -0.571   8.700  0.00  0.00    +0.000 HD
ENDBRANCH  20  21
ENDBRANCH  18  20
ENDBRANCH  13  14
ENDBRANCH   1  13
TORSDOF 7
ENDMDL
MODEL 5
REMARK VINA RESULT:    -6.066      3.049      5.946
REMARK INTER + INTRA:          -8.838
REMARK INTER:                  -8.113
REMARK INTRA:                  -0.726
REMARK UNBOUND:                -0.645
REMARK  Name = 
REMARK  7 active torsions:
REMARK  status: ('A' for Active; 'I' for Inactive)
REMARK    1  A    between atoms: N_1  and  C_2
REMARK    2  A    between atoms: C_2  and  C_3
REMARK    3  A    between atoms: C_6  and  N_7
REMARK    4  A    between atoms: N_7  and  C_8
REMARK    5  A    between atoms: C_8  and  C_9
REMARK    6  A    between atoms: C_13  and  C_14
REMARK    7  A    between atoms: C_14  and  O_15
REMARK                            x       y       z     vdW  Elec       q    Type
REMARK                         _______ _______ _______ _____ _____    ______ ____
ROOT
ATOM      1  N   UNL     1      43.512   5.916  12.556  0.00  0.00    +0.000 N 
ATOM      2  H   UNL     1      42.901   6.566  13.047  0.00  0.00    +0.000 HD
ENDROOT
BRANCH   1   6
ATOM      3  C   UNL     1      47.542   6.914  13.389  0.00  0.00    +0.000 A 
ATOM      4  C   UNL     1      47.066   5.632  13.697  0.00  0.00    +0.000 A 
ATOM      5  C   UNL     1      45.740   5.274  13.420  0.00  0.00    +0.000 A 
ATOM      6  C   UNL     1      44.855   6.192  12.853  0.00  0.00    +0.000 A 
ATOM      7  C   UNL     1      45.354   7.446  12.480  0.00  0.00    +0.000 A 
ATOM      8  C   UNL     1      46.675   7.812  12.760  0.00  0.00    +0.000 A 
BRANCH   3   9
ATOM      9  C   UNL     1      48.947   7.323  13.747  0.00  0.00    +0.000 C 
BRANCH   9  10
ATOM     10  N   UNL     1      49.910   6.903  12.737  0.00  0.00    +0.000 NA
ATOM     11  H   UNL     1      49.757   5.918  12.524  0.00  0.00    +0.000 HD
ATOM     12  H   UNL     1      50.846   6.968  13.133  0.00  0.00    +0.000 HD
ENDBRANCH   9  10
ENDBRANCH   3   9
ENDBRANCH   1   6
BRANCH   1  13
ATOM     13  C   UNL     1      43.141   5.794  11.151  0.00  0.00    +0.000 C 
BRANCH  13  14
ATOM     14  C   UNL     1      43.779   4.555  10.559  0.00  0.00    +0.000 A 
ATOM     15  C   UNL     1      43.550   3.293  11.116  0.00  0.00    +0.000 A 
ATOM     16  C   UNL     1      44.059   2.149  10.499  0.00  0.00    +0.000 A 
ATOM     17  C   UNL     1      44.790   2.253   9.314  0.00  0.00    +0.000 A 
ATOM     18  C   UNL     1      45.050   3.506   8.745  0.00  0.00    +0.000 A 
ATOM     19  C   UNL     1      44.540   4.649   9.380  0.00  0.00    +0.000 A 
BRANCH  18  20
ATOM     20  C   UNL     1      45.753   3.645   7.417  0.00  0.00    +0.000 C 
BRANCH  20  21
ATOM     21  O   UNL     1      46.878   4.512   7.489  0.00  0.00    +0.000 OA
ATOM     22  H   UNL     1      47.611   4.043   7.055  0.00  0.00    +0.000 HD
ENDBRANCH  20  21
ENDBRANCH  18  20
ENDBRANCH  13  14
ENDBRANCH   1  13
TORSDOF 7
ENDMDL
MODEL 6
REMARK VINA RESULT:    -5.693      4.094      7.816
REMARK INTER + INTRA:          -8.334
REMARK INTER:                  -7.953
REMARK INTRA:                  -0.382
REMARK UNBOUND:                -0.645
REMARK  Name = 
REMARK  7 active torsions:
REMARK  status: ('A' for Active; 'I' for Inactive)
REMARK    1  A    between atoms: N_1  and  C_2
REMARK    2  A    between atoms: C_2  and  C_3
REMARK    3  A    between atoms: C_6  and  N_7
REMARK    4  A    between atoms: N_7  and  C_8
REMARK    5  A    between atoms: C_8  and  C_9
REMARK    6  A    between atoms: C_13  and  C_14
REMARK    7  A    between atoms: C_14  and  O_15
REMARK                            x       y       z     vdW  Elec       q    Type
REMARK                         _______ _______ _______ _____ _____    ______ ____
ROOT
ATOM      1  N   UNL     1      46.805   4.245  14.794  0.00  0.00    +0.000 N 
ATOM      2  H   UNL     1      45.806   4.064  14.888  0.00  0.00    +0.000 HD
ENDROOT
BRANCH   1   6
ATOM      3  C   UNL     1      48.701   4.514  18.570  0.00  0.00    +0.000 A 
ATOM      4  C   UNL     1      47.997   3.351  18.227  0.00  0.00    +0.000 A 
ATOM      5  C   UNL     1      47.372   3.233  16.979  0.00  0.00    +0.000 A 
ATOM      6  C   UNL     1      47.413   4.280  16.057  0.00  0.00    +0.000 A 
ATOM      7  C   UNL     1      48.177   5.410  16.375  0.00  0.00    +0.000 A 
ATOM      8  C   UNL     1      48.798   5.536  17.622  0.00  0.00    +0.000 A 
BRANCH   3   9
ATOM      9  C   UNL     1      49.316   4.669  19.937  0.00  0.00    +0.000 C 
BRANCH   9  10
ATOM     10  N   UNL     1      48.526   4.007  20.966  0.00  0.00    +0.000 NA
ATOM     11  H   UNL     1      47.723   3.558  20.529  0.00  0.00    +0.000 HD
ATOM     12  H   UNL     1      48.150   4.716  21.595  0.00  0.00    +0.000 HD
ENDBRANCH   9  10
ENDBRANCH   3   9
ENDBRANCH   1   6
BRANCH   1  13
ATOM     13  C   UNL     1      47.060   5.359  13.888  0.00  0.00    +0.000 C 
BRANCH  13  14
ATOM     14  C   UNL     1      46.171   5.242  12.669  0.00  0.00    +0.000 A 
ATOM     15  C   UNL     1      46.391   6.037  11.539  0.00  0.00    +0.000 A 
ATOM     16  C   UNL     1      45.630   5.846  10.385  0.00  0.00    +0.000 A 
ATOM     17  C   UNL     1      44.651   4.851  10.343  0.00  0.00    +0.000 A 
ATOM     18  C   UNL     1      44.397   4.053  11.465  0.00  0.00    +0.000 A 
ATOM     19  C   UNL     1      45.164   4.262  12.623  0.00  0.00    +0.000 A 
BRANCH  18  20
ATOM     20  C   UNL     1      43.416   2.909  11.421  0.00  0.00    +0.000 C 
BRANCH  20  21
ATOM     21  O   UNL     1      43.506   2.074  12.568  0.00  0.00    +0.000 OA
ATOM     22  H   UNL     1      43.095   2.567  13.298  0.00  0.00    +0.000 HD
ENDBRANCH  20  21
ENDBRANCH  18  20
ENDBRANCH  13  14
ENDBRANCH   1  13
TORSDOF 7
ENDMDL
MODEL 7
REMARK VINA RESULT:    -5.509      2.373      4.050
REMARK INTER + INTRA:          -8.087
REMARK INTER:                  -7.658
REMARK INTRA:                  -0.429
REMARK UNBOUND:                -0.645
REMARK  Name = 
REMARK  7 active torsions:
REMARK  status: ('A' for Active; 'I' for Inactive)
REMARK    1  A    between atoms: N_1  and  C_2
REMARK    2  A    between atoms: C_2  and  C_3
REMARK    3  A    between atoms: C_6  and  N_7
REMARK    4  A    between atoms: N_7  and  C_8
REMARK    5  A    between atoms: C_8  and  C_9
REMARK    6  A    between atoms: C_13  and  C_14
REMARK    7  A    between atoms: C_14  and  O_15
REMARK                            x       y       z     vdW  Elec       q    Type
REMARK                         _______ _______ _______ _____ _____    ______ ____
ROOT
ATOM      1  N   UNL     1      46.017   5.622  13.624  0.00  0.00    +0.000 N 
ATOM      2  H   UNL     1      45.917   4.889  14.324  0.00  0.00    +0.000 HD
ENDROOT
BRANCH   1   6
ATOM      3  C   UNL     1      45.088   4.279   9.717  0.00  0.00    +0.000 A 
ATOM      4  C   UNL     1      44.817   3.455  10.818  0.00  0.00    +0.000 A 
ATOM      5  C   UNL     1      45.104   3.881  12.121  0.00  0.00    +0.000 A 
ATOM      6  C   UNL     1      45.689   5.127  12.353  0.00  0.00    +0.000 A 
ATOM      7  C   UNL     1      45.891   5.976  11.258  0.00  0.00    +0.000 A 
ATOM      8  C   UNL     1      45.613   5.552   9.953  0.00  0.00    +0.000 A 
BRANCH   3   9
ATOM      9  C   UNL     1      44.843   3.795   8.311  0.00  0.00    +0.000 C 
BRANCH   9  10
ATOM     10  N   UNL     1      45.992   4.034   7.447  0.00  0.00    +0.000 NA
ATOM     11  H   UNL     1      46.732   3.379   7.693  0.00  0.00    +0.000 HD
ATOM     12  H   UNL     1      46.357   4.965   7.642  0.00  0.00    +0.000 HD
ENDBRANCH   9  10
ENDBRANCH   3   9
ENDBRANCH   1   6
BRANCH   1  13
ATOM     13  C   UNL     1      47.284   6.329  13.769  0.00  0.00    +0.000 C 
BRANCH  13  14
ATOM     14  C   UNL     1      48.000   5.845  15.011  0.00  0.00    +0.000 A 
ATOM     15  C   UNL     1      48.911   6.668  15.683  0.00  0.00    +0.000 A 
ATOM     16  C   UNL     1      49.485   6.248  16.884  0.00  0.00    +0.000 A 
ATOM     17  C   UNL     1      49.147   5.009  17.433  0.00  0.00    +0.000 A 
ATOM     18  C   UNL     1      48.252   4.158  16.772  0.00  0.00    +0.000 A 
ATOM     19  C   UNL     1      47.689   4.589  15.560  0.00  0.00    +0.000 A 
BRANCH  18  20
ATOM     20  C   UNL     1      47.793   2.858  17.384  0.00  0.00    +0.000 C 
BRANCH  20  21
ATOM     21  O   UNL     1      46.407   2.870  17.702  0.00  0.00    +0.000 OA
ATOM     22  H   UNL     1      46.023   2.086  17.274  0.00  0.00    +0.000 HD
ENDBRANCH  20  21
ENDBRANCH  18  20
ENDBRANCH  13  14
ENDBRANCH   1  13
TORSDOF 7
ENDMDL
MODEL 8
REMARK VINA RESULT:    -5.322      4.656      7.635
REMARK INTER + INTRA:          -7.835
REMARK INTER:                  -7.431
REMARK INTRA:                  -0.404
REMARK UNBOUND:                -0.645
REMARK  Name = 
REMARK  7 active torsions:
REMARK  status: ('A' for Active; 'I' for Inactive)
REMARK    1  A    between atoms: N_1  and  C_2
REMARK    2  A    between atoms: C_2  and  C_3
REMARK    3  A    between atoms: C_6  and  N_7
REMARK    4  A    between atoms: N_7  and  C_8
REMARK    5  A    between atoms: C_8  and  C_9
REMARK    6  A    between atoms: C_13  and  C_14
REMARK    7  A    between atoms: C_14  and  O_15
REMARK                            x       y       z     vdW  Elec       q    Type
REMARK                         _______ _______ _______ _____ _____    ______ ____
ROOT
ATOM      1  N   UNL     1      46.695   4.228  15.490  0.00  0.00    +0.000 N 
ATOM      2  H   UNL     1      46.243   5.135  15.596  0.00  0.00    +0.000 HD
ENDROOT
BRANCH   1   6
ATOM      3  C   UNL     1      50.304   3.953  17.688  0.00  0.00    +0.000 A 
ATOM      4  C   UNL     1      49.813   5.211  17.314  0.00  0.00    +0.000 A 
ATOM      5  C   UNL     1      48.615   5.329  16.597  0.00  0.00    +0.000 A 
ATOM      6  C   UNL     1      47.894   4.195  16.217  0.00  0.00    +0.000 A 
ATOM      7  C   UNL     1      48.350   2.946  16.655  0.00  0.00    +0.000 A 
ATOM      8  C   UNL     1      49.549   2.822  17.365  0.00  0.00    +0.000 A 
BRANCH   3   9
ATOM      9  C   UNL     1      51.625   3.820  18.400  0.00  0.00    +0.000 C 
BRANCH   9  10
ATOM     10  N   UNL     1      52.089   2.439  18.430  0.00  0.00    +0.000 NA
ATOM     11  H   UNL     1      52.411   2.219  19.371  0.00  0.00    +0.000 HD
ATOM     12  H   UNL     1      52.903   2.356  17.822  0.00  0.00    +0.000 HD
ENDBRANCH   9  10
ENDBRANCH   3   9
ENDBRANCH   1   6
BRANCH   1  13
ATOM     13  C   UNL     1      46.740   3.815  14.092  0.00  0.00    +0.000 C 
BRANCH  13  14
ATOM     14  C   UNL     1      46.173   4.913  13.217  0.00  0.00    +0.000 A 
ATOM     15  C   UNL     1      46.966   5.994  12.817  0.00  0.00    +0.000 A 
ATOM     16  C   UNL     1      46.462   6.944  11.927  0.00  0.00    +0.000 A 
ATOM     17  C   UNL     1      45.168   6.816  11.417  0.00  0.00    +0.000 A 
ATOM     18  C   UNL     1      44.347   5.754  11.814  0.00  0.00    +0.000 A 
ATOM     19  C   UNL     1      44.863   4.810  12.717  0.00  0.00    +0.000 A 
BRANCH  18  20
ATOM     20  C   UNL     1      42.983   5.535  11.210  0.00  0.00    +0.000 C 
BRANCH  20  21
ATOM     21  O   UNL     1      41.998   6.391  11.773  0.00  0.00    +0.000 OA
ATOM     22  H   UNL     1      41.137   5.982  11.579  0.00  0.00    +0.000 HD
ENDBRANCH  20  21
ENDBRANCH  18  20
ENDBRANCH  13  14
ENDBRANCH   1  13
TORSDOF 7
ENDMDL
MODEL 9
REMARK VINA RESULT:    -5.140      3.326      6.067
REMARK INTER + INTRA:          -7.589
REMARK INTER:                  -7.019
REMARK INTRA:                  -0.570
REMARK UNBOUND:                -0.645
REMARK  Name = 
REMARK  7 active torsions:
REMARK  status: ('A' for Active; 'I' for Inactive)
REMARK    1  A    between atoms: N_1  and  C_2
REMARK    2  A    between atoms: C_2  and  C_3
REMARK    3  A    between atoms: C_6  and  N_7
REMARK    4  A    between atoms: N_7  and  C_8
REMARK    5  A    between atoms: C_8  and  C_9
REMARK    6  A    between atoms: C_13  and  C_14
REMARK    7  A    between atoms: C_14  and  O_15
REMARK                            x       y       z     vdW  Elec       q    Type
REMARK                         _______ _______ _______ _____ _____    ______ ____
ROOT
ATOM      1  N   UNL     1      45.704   7.083  13.205  0.00  0.00    +0.000 N 
ATOM      2  H   UNL     1      45.434   7.632  14.020  0.00  0.00    +0.000 HD
ENDROOT
BRANCH   1   6
ATOM      3  C   UNL     1      49.578   8.139  11.862  0.00  0.00    +0.000 A 
ATOM      4  C   UNL     1      48.529   9.062  11.752  0.00  0.00    +0.000 A 
ATOM      5  C   UNL     1      47.241   8.741  12.201  0.00  0.00    +0.000 A 
ATOM      6  C   UNL     1      46.965   7.485  12.745  0.00  0.00    +0.000 A 
ATOM      7  C   UNL     1      48.031   6.594  12.919  0.00  0.00    +0.000 A 
ATOM      8  C   UNL     1      49.318   6.906  12.466  0.00  0.00    +0.000 A 
BRANCH   3   9
ATOM      9  C   UNL     1      50.947   8.457  11.319  0.00  0.00    +0.000 C 
BRANCH   9  10
ATOM     10  N   UNL     1      51.646   7.259  10.873  0.00  0.00    +0.000 NA
ATOM     11  H   UNL     1      51.115   6.439  11.164  0.00  0.00    +0.000 HD
ATOM     12  H   UNL     1      52.542   7.206  11.357  0.00  0.00    +0.000 HD
ENDBRANCH   9  10
ENDBRANCH   3   9
ENDBRANCH   1   6
BRANCH   1  13
ATOM     13  C   UNL     1      44.620   7.007  12.232  0.00  0.00    +0.000 C 
BRANCH  13  14
ATOM     14  C   UNL     1      44.410   5.568  11.811  0.00  0.00    +0.000 A 
ATOM     15  C   UNL     1      43.774   4.657  12.661  0.00  0.00    +0.000 A 
ATOM     16  C   UNL     1      43.494   3.362  12.221  0.00  0.00    +0.000 A 
ATOM     17  C   UNL     1      43.834   2.969  10.925  0.00  0.00    +0.000 A 
ATOM     18  C   UNL     1      44.489   3.855  10.060  0.00  0.00    +0.000 A 
ATOM     19  C   UNL     1      44.772   5.152  10.518  0.00  0.00    +0.000 A 
BRANCH  18  20
ATOM     20  C   UNL     1      44.783   3.494   8.626  0.00  0.00    +0.000 C 
BRANCH  20  21
ATOM     21  O   UNL     1      45.588   4.469   7.976  0.00  0.00    +0.000 OA
ATOM     22  H   UNL     1      44.981   5.023   7.458  0.00  0.00    +0.000 HD
ENDBRANCH  20  21
ENDBRANCH  18  20
ENDBRANCH  13  14
ENDBRANCH   1  13
TORSDOF 7
ENDMDL
