MODEL 1
REMARK VINA RESULT:    -8.458      0.000      0.000
REMARK INTER + INTRA:         -10.890
REMARK INTER:                 -10.931
REMARK INTRA:                   0.041
REMARK UNBOUND:                 0.041
REMARK  Name = 
REMARK  5 active torsions:
REMARK  status: ('A' for Active; 'I' for Inactive)
REMARK    1  A    between atoms: C_2  and  C_3
REMARK    2  A    between atoms: C_6  and  N_7
REMARK    3  A    between atoms: N_7  and  C_8
REMARK    4  A    between atoms: C_8  and  C_9
REMARK    5  A    between atoms: C_13  and  C_14
REMARK                            x       y       z     vdW  Elec       q    Type
REMARK                         _______ _______ _______ _____ _____    ______ ____
ROOT
ATOM      1  C   UNL     1      44.059   4.856  11.578  0.00  0.00    +0.000 C 
ATOM      2  C   UNL     1      43.389   3.674  12.264  0.00  0.00    +0.000 C 
ATOM      3  C   UNL     1      42.880   5.057  12.499  0.00  0.00    +0.000 C 
ENDROOT
BRANCH   1   4
ATOM      4  C   UNL     1      45.460   5.268  12.010  0.00  0.00    +0.000 A 
ATOM      5  C   UNL     1      46.169   6.258  11.311  0.00  0.00    +0.000 A 
ATOM      6  C   UNL     1      47.270   6.891  11.883  0.00  0.00    +0.000 A 
ATOM      7  C   UNL     1      47.713   6.507  13.149  0.00  0.00    +0.000 A 
ATOM      8  C   UNL     1      47.104   5.451  13.847  0.00  0.00    +0.000 A 
ATOM      9  C   UNL     1      45.979   4.849  13.249  0.00  0.00    +0.000 A 
BRANCH   8  10
ATOM     10  C   UNL     1      47.590   5.018  15.173  0.00  0.00    +0.000 A 
ATOM     11  C   UNL     1      47.249   3.777  15.733  0.00  0.00    +0.000 A 
ATOM     12  C   UNL     1      47.717   3.411  16.995  0.00  0.00    +0.000 A 
ATOM     13  C   UNL     1      48.535   4.294  17.675  0.00  0.00    +0.000 A 
ATOM     14  N   UNL     1      48.904   5.493  17.185  0.00  0.00    +0.000 NA
ATOM     15  C   UNL     1      48.421   5.823  15.960  0.00  0.00    +0.000 A 
ENDBRANCH   8  10
ENDBRANCH   1   4
BRANCH   1  16
ATOM     16  N   UNL     1      43.969   4.811  10.115  0.00  0.00    +0.000 N 
ATOM     17  H   UNL     1      43.022   4.836   9.736  0.00  0.00    +0.000 HD
BRANCH  16  21
ATOM     18  C   UNL     1      46.439   2.589   7.736  0.00  0.00    +0.000 A 
ATOM     19  C   UNL     1      46.284   3.956   7.585  0.00  0.00    +0.000 A 
ATOM     20  N   UNL     1      45.413   4.672   8.332  0.00  0.00    +0.000 NA
ATOM     21  C   UNL     1      44.687   3.991   9.253  0.00  0.00    +0.000 A 
ATOM     22  C   UNL     1      44.816   2.609   9.357  0.00  0.00    +0.000 A 
ATOM     23  N   UNL     1      45.691   1.878   8.613  0.00  0.00    +0.000 NA
BRANCH  18  25
ATOM     24  N   UNL     1      48.290   1.372   6.387  0.00  0.00    +0.000 NA
ATOM     25  C   UNL     1      47.444   1.891   7.003  0.00  0.00    +0.000 C 
ENDBRANCH  18  25
ENDBRANCH  16  21
ENDBRANCH   1  16
TORSDOF 5
ENDMDL
MODEL 2
REMARK VINA RESULT:    -8.204      1.849      3.058
REMARK INTER + INTRA:         -10.561
REMARK INTER:                  -9.720
REMARK INTRA:                  -0.841
REMARK UNBOUND:                 0.041
REMARK  Name = 
REMARK  5 active torsions:
REMARK  status: ('A' for Active; 'I' for Inactive)
REMARK    1  A    between atoms: C_2  and  C_3
REMARK    2  A    between atoms: C_6  and  N_7
REMARK    3  A    between atoms: N_7  and  C_8
REMARK    4  A    between atoms: C_8  and  C_9
REMARK    5  A    between atoms: C_13  and  C_14
REMARK                            x       y       z     vdW  Elec       q    Type
REMARK                         _______ _______ _______ _____ _____    ______ ____
ROOT
ATOM      1  C   UNL     1      43.720   5.040  11.222  0.00  0.00    +0.000 C 
ATOM      2  C   UNL     1      42.327   5.313  11.773  0.00  0.00    +0.000 C 
ATOM      3  C   UNL     1      43.052   6.380  11.023  0.00  0.00    +0.000 C 
ENDROOT
BRANCH   1   4
ATOM      4  C   UNL     1      44.885   4.891  12.190  0.00  0.00    +0.000 A 
ATOM      5  C   UNL     1      45.145   3.666  12.825  0.00  0.00    +0.000 A 
ATOM      6  C   UNL     1      46.379   3.412  13.416  0.00  0.00    +0.000 A 
ATOM      7  C   UNL     1      47.362   4.402  13.429  0.00  0.00    +0.000 A 
ATOM      8  C   UNL     1      47.117   5.681  12.902  0.00  0.00    +0.000 A 
ATOM      9  C   UNL     1      45.866   5.896  12.290  0.00  0.00    +0.000 A 
BRANCH   8  10
ATOM     10  C   UNL     1      48.142   6.745  12.942  0.00  0.00    +0.000 A 
ATOM     11  C   UNL     1      48.474   7.516  11.817  0.00  0.00    +0.000 A 
ATOM     12  C   UNL     1      49.458   8.501  11.894  0.00  0.00    +0.000 A 
ATOM     13  C   UNL     1      50.087   8.710  13.106  0.00  0.00    +0.000 A 
ATOM     14  N   UNL     1      49.804   8.009  14.221  0.00  0.00    +0.000 NA
ATOM     15  C   UNL     1      48.851   7.049  14.109  0.00  0.00    +0.000 A 
ENDBRANCH   8  10
ENDBRANCH   1   4
BRANCH   1  16
ATOM     16  N   UNL     1      43.753   3.973  10.216  0.00  0.00    +0.000 N 
ATOM     17  H   UNL     1      43.330   3.090  10.504  0.00  0.00    +0.000 HD
BRANCH  16  21
ATOM     18  C   UNL     1      46.607   2.699   7.584  0.00  0.00    +0.000 A 
ATOM     19  C   UNL     1      45.959   1.844   8.459  0.00  0.00    +0.000 A 
ATOM     20  N   UNL     1      45.065   2.285   9.374  0.00  0.00    +0.000 NA
ATOM     21  C   UNL     1      44.820   3.618   9.401  0.00  0.00    +0.000 A 
ATOM     22  C   UNL     1      45.519   4.472   8.550  0.00  0.00    +0.000 A 
ATOM     23  N   UNL     1      46.417   4.039   7.624  0.00  0.00    +0.000 NA
BRANCH  18  25
ATOM     24  N   UNL     1      48.199   1.742   5.775  0.00  0.00    +0.000 NA
ATOM     25  C   UNL     1      47.460   2.179   6.567  0.00  0.00    +0.000 C 
ENDBRANCH  18  25
ENDBRANCH  16  21
ENDBRANCH   1  16
TORSDOF 5
ENDMDL
MODEL 3
REMARK VINA RESULT:    -7.641      1.572      2.320
REMARK INTER + INTRA:          -9.834
REMARK INTER:                 -10.098
REMARK INTRA:                   0.264
REMARK UNBOUND:                 0.041
REMARK  Name = 
REMARK  5 active torsions:
REMARK  status: ('A' for Active; 'I' for Inactive)
REMARK    1  A    between atoms: C_2  and  C_3
REMARK    2  A    between atoms: C_6  and  N_7
REMARK    3  A    between atoms: N_7  and  C_8
REMARK    4  A    between atoms: C_8  and  C_9
REMARK    5  A    between atoms: C_13  and  C_14
REMARK                            x       y       z     vdW  Elec       q    Type
REMARK                         _______ _______ _______ _____ _____    ______ ____
ROOT
ATOM      1  C   UNL     1      44.389   4.848  11.548  0.00  0.00    +0.000 C 
ATOM      2  C   UNL     1      44.882   3.595  12.258  0.00  0.00    +0.000 C 
ATOM      3  C   UNL     1      43.625   4.260  12.709  0.00  0.00    +0.000 C 
ENDROOT
BRANCH   1   4
ATOM      4  C   UNL     1      45.166   6.147  11.709  0.00  0.00    +0.000 A 
ATOM      5  C   UNL     1      44.590   7.381  11.366  0.00  0.00    +0.000 A 
ATOM      6  C   UNL     1      45.129   8.578  11.830  0.00  0.00    +0.000 A 
ATOM      7  C   UNL     1      46.289   8.565  12.606  0.00  0.00    +0.000 A 
ATOM      8  C   UNL     1      46.964   7.366  12.890  0.00  0.00    +0.000 A 
ATOM      9  C   UNL     1      46.379   6.172  12.425  0.00  0.00    +0.000 A 
BRANCH   8  10
ATOM     10  C   UNL     1      48.211   7.348  13.682  0.00  0.00    +0.000 A 
ATOM     11  C   UNL     1      49.316   8.155  13.369  0.00  0.00    +0.000 A 
ATOM     12  C   UNL     1      50.481   8.097  14.134  0.00  0.00    +0.000 A 
ATOM     13  C   UNL     1      50.516   7.238  15.216  0.00  0.00    +0.000 A 
ATOM     14  N   UNL     1      49.484   6.447  15.571  0.00  0.00    +0.000 NA
ATOM     15  C   UNL     1      48.371   6.519  14.797  0.00  0.00    +0.000 A 
ENDBRANCH   8  10
ENDBRANCH   1   4
BRANCH   1  16
ATOM     16  N   UNL     1      44.053   4.627  10.137  0.00  0.00    +0.000 N 
ATOM     17  H   UNL     1      43.075   4.399   9.953  0.00  0.00    +0.000 HD
BRANCH  16  21
ATOM     18  C   UNL     1      46.550   2.660   7.570  0.00  0.00    +0.000 A 
ATOM     19  C   UNL     1      46.401   4.036   7.563  0.00  0.00    +0.000 A 
ATOM     20  N   UNL     1      45.521   4.673   8.370  0.00  0.00    +0.000 NA
ATOM     21  C   UNL     1      44.780   3.901   9.203  0.00  0.00    +0.000 A 
ATOM     22  C   UNL     1      44.903   2.515   9.161  0.00  0.00    +0.000 A 
ATOM     23  N   UNL     1      45.787   1.863   8.356  0.00  0.00    +0.000 NA
BRANCH  18  25
ATOM     24  N   UNL     1      48.377   1.568   6.089  0.00  0.00    +0.000 NA
ATOM     25  C   UNL     1      47.562   2.040   6.780  0.00  0.00    +0.000 C 
ENDBRANCH  18  25
ENDBRANCH  16  21
ENDBRANCH   1  16
TORSDOF 5
ENDMDL
MODEL 4
REMARK VINA RESULT:    -7.590      1.747      7.532
REMARK INTER + INTRA:          -9.768
REMARK INTER:                  -9.140
REMARK INTRA:                  -0.628
REMARK UNBOUND:                 0.041
REMARK  Name = 
REMARK  5 active torsions:
REMARK  status: ('A' for Active; 'I' for Inactive)
REMARK    1  A    between atoms: C_2  and  C_3
REMARK    2  A    between atoms: C_6  and  N_7
REMARK    3  A    between atoms: N_7  and  C_8
REMARK    4  A    between atoms: C_8  and  C_9
REMARK    5  A    between atoms: C_13  and  C_14
REMARK                            x       y       z     vdW  Elec       q    Type
REMARK                         _______ _______ _______ _____ _____    ______ ____
ROOT
ATOM      1  C   UNL     1      45.309   5.596  12.208  0.00  0.00    +0.000 C 
ATOM      2  C   UNL     1      44.829   6.880  11.545  0.00  0.00    +0.000 C 
ATOM      3  C   UNL     1      44.189   6.411  12.809  0.00  0.00    +0.000 C 
ENDROOT
BRANCH   1   4
ATOM      4  C   UNL     1      45.022   4.261  11.535  0.00  0.00    +0.000 A 
ATOM      5  C   UNL     1      43.932   3.471  11.935  0.00  0.00    +0.000 A 
ATOM      6  C   UNL     1      43.449   2.451  11.119  0.00  0.00    +0.000 A 
ATOM      7  C   UNL     1      44.082   2.169   9.908  0.00  0.00    +0.000 A 
ATOM      8  C   UNL     1      45.239   2.859   9.511  0.00  0.00    +0.000 A 
ATOM      9  C   UNL     1      45.687   3.900  10.348  0.00  0.00    +0.000 A 
BRANCH   8  10
ATOM     10  C   UNL     1      45.934   2.542   8.246  0.00  0.00    +0.000 A 
ATOM     11  C   UNL     1      46.084   3.479   7.212  0.00  0.00    +0.000 A 
ATOM     12  C   UNL     1      46.735   3.136   6.027  0.00  0.00    +0.000 A 
ATOM     13  C   UNL     1      47.240   1.855   5.901  0.00  0.00    +0.000 A 
ATOM     14  N   UNL     1      47.136   0.917   6.862  0.00  0.00    +0.000 NA
ATOM     15  C   UNL     1      46.485   1.281   7.997  0.00  0.00    +0.000 A 
ENDBRANCH   8  10
ENDBRANCH   1   4
BRANCH   1  16
ATOM     16  N   UNL     1      46.706   5.654  12.652  0.00  0.00    +0.000 N 
ATOM     17  H   UNL     1      47.402   5.509  11.920  0.00  0.00    +0.000 HD
BRANCH  16  21
ATOM     18  C   UNL     1      48.046   4.224  16.238  0.00  0.00    +0.000 A 
ATOM     19  C   UNL     1      48.287   5.517  15.810  0.00  0.00    +0.000 A 
ATOM     20  N   UNL     1      47.899   5.962  14.592  0.00  0.00    +0.000 NA
ATOM     21  C   UNL     1      47.250   5.078  13.794  0.00  0.00    +0.000 A 
ATOM     22  C   UNL     1      47.062   3.766  14.217  0.00  0.00    +0.000 A 
ATOM     23  N   UNL     1      47.445   3.309  15.440  0.00  0.00    +0.000 NA
BRANCH  18  25
ATOM     24  N   UNL     1      48.673   3.561  18.665  0.00  0.00    +0.000 NA
ATOM     25  C   UNL     1      48.378   3.830  17.568  0.00  0.00    +0.000 C 
ENDBRANCH  18  25
ENDBRANCH  16  21
ENDBRANCH   1  16
TORSDOF 5
ENDMDL
MODEL 5
REMARK VINA RESULT:    -6.992      2.144      7.837
REMARK INTER + INTRA:          -8.995
REMARK INTER:                  -8.217
REMARK INTRA:                  -0.778
REMARK UNBOUND:                 0.041
REMARK  Name = 
REMARK  5 active torsions:
REMARK  status: ('A' for Active; 'I' for Inactive)
REMARK    1  A    between atoms: C_2  and  C_3
REMARK    2  A    between atoms: C_6  and  N_7
REMARK    3  A    between atoms: N_7  and  C_8
REMARK    4  A    between atoms: C_8  and  C_9
REMARK    5  A    between atoms: C_13  and  C_14
REMARK                            x       y       z     vdW  Elec       q    Type
REMARK                         _______ _______ _______ _____ _____    ______ ____
ROOT
ATOM      1  C   UNL     1      48.638   7.932  12.646  0.00  0.00    +0.000 C 
ATOM      2  C   UNL     1      49.526   8.280  11.459  0.00  0.00    +0.000 C 
ATOM      3  C   UNL     1      49.155   9.337  12.446  0.00  0.00    +0.000 C 
ENDROOT
BRANCH   1   4
ATOM      4  C   UNL     1      47.171   7.605  12.405  0.00  0.00    +0.000 A 
ATOM      5  C   UNL     1      46.168   8.552  12.665  0.00  0.00    +0.000 A 
ATOM      6  C   UNL     1      44.891   8.410  12.128  0.00  0.00    +0.000 A 
ATOM      7  C   UNL     1      44.579   7.287  11.361  0.00  0.00    +0.000 A 
ATOM      8  C   UNL     1      45.514   6.258  11.159  0.00  0.00    +0.000 A 
ATOM      9  C   UNL     1      46.804   6.445  11.697  0.00  0.00    +0.000 A 
BRANCH   8  10
ATOM     10  C   UNL     1      45.180   5.050  10.377  0.00  0.00    +0.000 A 
ATOM     11  C   UNL     1      45.643   4.846   9.068  0.00  0.00    +0.000 A 
ATOM     12  C   UNL     1      45.293   3.698   8.358  0.00  0.00    +0.000 A 
ATOM     13  C   UNL     1      44.490   2.759   8.979  0.00  0.00    +0.000 A 
ATOM     14  N   UNL     1      44.023   2.895  10.235  0.00  0.00    +0.000 NA
ATOM     15  C   UNL     1      44.373   4.030  10.893  0.00  0.00    +0.000 A 
ENDBRANCH   8  10
ENDBRANCH   1   4
BRANCH   1  16
ATOM     16  N   UNL     1      49.237   6.951  13.557  0.00  0.00    +0.000 N 
ATOM     17  H   UNL     1      49.405   6.029  13.154  0.00  0.00    +0.000 HD
BRANCH  16  21
ATOM     18  C   UNL     1      48.503   5.916  17.441  0.00  0.00    +0.000 A 
ATOM     19  C   UNL     1      48.118   5.128  16.370  0.00  0.00    +0.000 A 
ATOM     20  N   UNL     1      48.304   5.511  15.086  0.00  0.00    +0.000 NA
ATOM     21  C   UNL     1      48.895   6.714  14.882  0.00  0.00    +0.000 A 
ATOM     22  C   UNL     1      49.228   7.519  15.969  0.00  0.00    +0.000 A 
ATOM     23  N   UNL     1      49.049   7.143  17.264  0.00  0.00    +0.000 NA
BRANCH  18  25
ATOM     24  N   UNL     1      48.323   5.071  19.886  0.00  0.00    +0.000 NA
ATOM     25  C   UNL     1      48.384   5.427  18.775  0.00  0.00    +0.000 C 
ENDBRANCH  18  25
ENDBRANCH  16  21
ENDBRANCH   1  16
TORSDOF 5
ENDMDL
MODEL 6
REMARK VINA RESULT:    -6.921      2.197      7.188
REMARK INTER + INTRA:          -8.904
REMARK INTER:                  -8.257
REMARK INTRA:                  -0.647
REMARK UNBOUND:                 0.041
REMARK  Name = 
REMARK  5 active torsions:
REMARK  status: ('A' for Active; 'I' for Inactive)
REMARK    1  A    between atoms: C_2  and  C_3
REMARK    2  A    between atoms: C_6  and  N_7
REMARK    3  A    between atoms: N_7  and  C_8
REMARK    4  A    between atoms: C_8  and  C_9
REMARK    5  A    between atoms: C_13  and  C_14
REMARK                            x       y       z     vdW  Elec       q    Type
REMARK                         _______ _______ _______ _____ _____    ______ ____
ROOT
ATOM      1  C   UNL     1      44.395   5.528  11.698  0.00  0.00    +0.000 C 
ATOM      2  C   UNL     1      43.092   6.292  11.501  0.00  0.00    +0.000 C 
ATOM      3  C   UNL     1      43.457   5.780  12.855  0.00  0.00    +0.000 C 
ENDROOT
BRANCH   1   4
ATOM      4  C   UNL     1      44.534   4.134  11.102  0.00  0.00    +0.000 A 
ATOM      5  C   UNL     1      43.703   3.083  11.523  0.00  0.00    +0.000 A 
ATOM      6  C   UNL     1      43.570   1.925  10.761  0.00  0.00    +0.000 A 
ATOM      7  C   UNL     1      44.308   1.776   9.586  0.00  0.00    +0.000 A 
ATOM      8  C   UNL     1      45.232   2.751   9.176  0.00  0.00    +0.000 A 
ATOM      9  C   UNL     1      45.325   3.920   9.957  0.00  0.00    +0.000 A 
BRANCH   8  10
ATOM     10  C   UNL     1      46.042   2.585   7.951  0.00  0.00    +0.000 A 
ATOM     11  C   UNL     1      46.795   1.429   7.696  0.00  0.00    +0.000 A 
ATOM     12  C   UNL     1      47.558   1.316   6.534  0.00  0.00    +0.000 A 
ATOM     13  C   UNL     1      47.544   2.365   5.633  0.00  0.00    +0.000 A 
ATOM     14  N   UNL     1      46.834   3.495   5.819  0.00  0.00    +0.000 NA
ATOM     15  C   UNL     1      46.113   3.576   6.966  0.00  0.00    +0.000 A 
ENDBRANCH   8  10
ENDBRANCH   1   4
BRANCH   1  16
ATOM     16  N   UNL     1      45.590   6.328  11.411  0.00  0.00    +0.000 N 
ATOM     17  H   UNL     1      45.904   6.308  10.440  0.00  0.00    +0.000 HD
BRANCH  16  21
ATOM     18  C   UNL     1      48.867   6.953  13.771  0.00  0.00    +0.000 A 
ATOM     19  C   UNL     1      48.615   7.691  12.628  0.00  0.00    +0.000 A 
ATOM     20  N   UNL     1      47.565   7.432  11.815  0.00  0.00    +0.000 NA
ATOM     21  C   UNL     1      46.751   6.407  12.170  0.00  0.00    +0.000 A 
ATOM     22  C   UNL     1      47.048   5.640  13.293  0.00  0.00    +0.000 A 
ATOM     23  N   UNL     1      48.099   5.893  14.119  0.00  0.00    +0.000 NA
BRANCH  18  25
ATOM     24  N   UNL     1      50.821   7.642  15.329  0.00  0.00    +0.000 NA
ATOM     25  C   UNL     1      49.922   7.327  14.654  0.00  0.00    +0.000 C 
ENDBRANCH  18  25
ENDBRANCH  16  21
ENDBRANCH   1  16
TORSDOF 5
ENDMDL
MODEL 7
REMARK VINA RESULT:    -6.572      3.053      7.820
REMARK INTER + INTRA:          -8.452
REMARK INTER:                  -7.659
REMARK INTRA:                  -0.793
REMARK UNBOUND:                 0.041
REMARK  Name = 
REMARK  5 active torsions:
REMARK  status: ('A' for Active; 'I' for Inactive)
REMARK    1  A    between atoms: C_2  and  C_3
REMARK    2  A    between atoms: C_6  and  N_7
REMARK    3  A    between atoms: N_7  and  C_8
REMARK    4  A    between atoms: C_8  and  C_9
REMARK    5  A    between atoms: C_13  and  C_14
REMARK                            x       y       z     vdW  Elec       q    Type
REMARK                         _______ _______ _______ _____ _____    ______ ____
ROOT
ATOM      1  C   UNL     1      49.033   7.962  12.650  0.00  0.00    +0.000 C 
ATOM      2  C   UNL     1      49.862   7.959  11.374  0.00  0.00    +0.000 C 
ATOM      3  C   UNL     1      49.811   9.184  12.225  0.00  0.00    +0.000 C 
ENDROOT
BRANCH   1   4
ATOM      4  C   UNL     1      47.514   7.937  12.549  0.00  0.00    +0.000 A 
ATOM      5  C   UNL     1      46.785   9.117  12.332  0.00  0.00    +0.000 A 
ATOM      6  C   UNL     1      45.466   9.074  11.887  0.00  0.00    +0.000 A 
ATOM      7  C   UNL     1      44.835   7.845  11.699  0.00  0.00    +0.000 A 
ATOM      8  C   UNL     1      45.484   6.637  12.002  0.00  0.00    +0.000 A 
ATOM      9  C   UNL     1      46.825   6.715  12.427  0.00  0.00    +0.000 A 
BRANCH   8  10
ATOM     10  C   UNL     1      44.809   5.332  11.837  0.00  0.00    +0.000 A 
ATOM     11  C   UNL     1      44.552   4.769  10.578  0.00  0.00    +0.000 A 
ATOM     12  C   UNL     1      43.900   3.541  10.465  0.00  0.00    +0.000 A 
ATOM     13  C   UNL     1      43.524   2.887  11.624  0.00  0.00    +0.000 A 
ATOM     14  N   UNL     1      43.752   3.373  12.859  0.00  0.00    +0.000 NA
ATOM     15  C   UNL     1      44.377   4.576  12.932  0.00  0.00    +0.000 A 
ENDBRANCH   8  10
ENDBRANCH   1   4
BRANCH   1  16
ATOM     16  N   UNL     1      49.493   6.992  13.650  0.00  0.00    +0.000 N 
ATOM     17  H   UNL     1      49.406   6.013  13.378  0.00  0.00    +0.000 HD
BRANCH  16  21
ATOM     18  C   UNL     1      49.058   6.722  17.703  0.00  0.00    +0.000 A 
ATOM     19  C   UNL     1      48.590   5.752  16.833  0.00  0.00    +0.000 A 
ATOM     20  N   UNL     1      48.678   5.883  15.489  0.00  0.00    +0.000 NA
ATOM     21  C   UNL     1      49.254   7.016  15.018  0.00  0.00    +0.000 A 
ATOM     22  C   UNL     1      49.671   8.005  15.904  0.00  0.00    +0.000 A 
ATOM     23  N   UNL     1      49.591   7.884  17.257  0.00  0.00    +0.000 NA
BRANCH  18  25
ATOM     24  N   UNL     1      48.980   6.277  20.257  0.00  0.00    +0.000 NA
ATOM     25  C   UNL     1      49.042   6.496  19.111  0.00  0.00    +0.000 C 
ENDBRANCH  18  25
ENDBRANCH  16  21
ENDBRANCH   1  16
TORSDOF 5
ENDMDL
MODEL 8
REMARK VINA RESULT:    -6.529      3.154      4.781
REMARK INTER + INTRA:          -8.396
REMARK INTER:                  -7.692
REMARK INTRA:                  -0.704
REMARK UNBOUND:                 0.041
REMARK  Name = 
REMARK  5 active torsions:
REMARK  status: ('A' for Active; 'I' for Inactive)
REMARK    1  A    between atoms: C_2  and  C_3
REMARK    2  A    between atoms: C_6  and  N_7
REMARK    3  A    between atoms: N_7  and  C_8
REMARK    4  A    between atoms: C_8  and  C_9
REMARK    5  A    between atoms: C_13  and  C_14
REMARK                            x       y       z     vdW  Elec       q    Type
REMARK                         _______ _______ _______ _____ _____    ______ ____
ROOT
ATOM      1  C   UNL     1      47.672   7.873  12.964  0.00  0.00    +0.000 C 
ATOM      2  C   UNL     1      48.118   8.904  11.937  0.00  0.00    +0.000 C 
ATOM      3  C   UNL     1      48.488   7.469  11.759  0.00  0.00    +0.000 C 
ENDROOT
BRANCH   1   4
ATOM      4  C   UNL     1      48.296   7.889  14.352  0.00  0.00    +0.000 A 
ATOM      5  C   UNL     1      48.169   9.011  15.187  0.00  0.00    +0.000 A 
ATOM      6  C   UNL     1      48.412   8.917  16.555  0.00  0.00    +0.000 A 
ATOM      7  C   UNL     1      48.838   7.708  17.106  0.00  0.00    +0.000 A 
ATOM      8  C   UNL     1      49.081   6.584  16.299  0.00  0.00    +0.000 A 
ATOM      9  C   UNL     1      48.803   6.706  14.923  0.00  0.00    +0.000 A 
BRANCH   8  10
ATOM     10  C   UNL     1      49.565   5.310  16.871  0.00  0.00    +0.000 A 
ATOM     11  C   UNL     1      50.882   5.136  17.321  0.00  0.00    +0.000 A 
ATOM     12  C   UNL     1      51.303   3.913  17.842  0.00  0.00    +0.000 A 
ATOM     13  C   UNL     1      50.387   2.879  17.915  0.00  0.00    +0.000 A 
ATOM     14  N   UNL     1      49.108   2.989  17.507  0.00  0.00    +0.000 NA
ATOM     15  C   UNL     1      48.736   4.190  16.995  0.00  0.00    +0.000 A 
ENDBRANCH   8  10
ENDBRANCH   1   4
BRANCH   1  16
ATOM     16  N   UNL     1      46.215   7.736  13.061  0.00  0.00    +0.000 N 
ATOM     17  H   UNL     1      45.779   8.259  13.821  0.00  0.00    +0.000 HD
BRANCH  16  21
ATOM     18  C   UNL     1      44.145   4.297  12.297  0.00  0.00    +0.000 A 
ATOM     19  C   UNL     1      43.803   5.517  11.740  0.00  0.00    +0.000 A 
ATOM     20  N   UNL     1      44.451   6.663  12.052  0.00  0.00    +0.000 NA
ATOM     21  C   UNL     1      45.469   6.570  12.943  0.00  0.00    +0.000 A 
ATOM     22  C   UNL     1      45.767   5.345  13.534  0.00  0.00    +0.000 A 
ATOM     23  N   UNL     1      45.124   4.186  13.226  0.00  0.00    +0.000 NA
BRANCH  18  25
ATOM     24  N   UNL     1      43.017   2.088  11.539  0.00  0.00    +0.000 NA
ATOM     25  C   UNL     1      43.505   3.100  11.861  0.00  0.00    +0.000 C 
ENDBRANCH  18  25
ENDBRANCH  16  21
ENDBRANCH   1  16
TORSDOF 5
ENDMDL
MODEL 9
REMARK VINA RESULT:    -6.378      2.844      7.199
REMARK INTER + INTRA:          -8.202
REMARK INTER:                  -7.378
REMARK INTRA:                  -0.824
REMARK UNBOUND:                 0.041
REMARK  Name = 
REMARK  5 active torsions:
REMARK  status: ('A' for Active; 'I' for Inactive)
REMARK    1  A    between atoms: C_2  and  C_3
REMARK    2  A    between atoms: C_6  and  N_7
REMARK    3  A    between atoms: N_7  and  C_8
REMARK    4  A    between atoms: C_8  and  C_9
REMARK    5  A    between atoms: C_13  and  C_14
REMARK                            x       y       z     vdW  Elec       q    Type
REMARK                         _______ _______ _______ _____ _____    ______ ____
ROOT
ATOM      1  C   UNL     1      46.166   5.143  13.376  0.00  0.00    +0.000 C 
ATOM      2  C   UNL     1      46.138   4.396  14.703  0.00  0.00    +0.000 C 
ATOM      3  C   UNL     1      47.328   4.281  13.810  0.00  0.00    +0.000 C 
ENDROOT
BRANCH   1   4
ATOM      4  C   UNL     1      45.244   4.692  12.252  0.00  0.00    +0.000 A 
ATOM      5  C   UNL     1      43.917   5.147  12.180  0.00  0.00    +0.000 A 
ATOM      6  C   UNL     1      43.186   5.041  10.999  0.00  0.00    +0.000 A 
ATOM      7  C   UNL     1      43.754   4.430   9.881  0.00  0.00    +0.000 A 
ATOM      8  C   UNL     1      45.039   3.865   9.931  0.00  0.00    +0.000 A 
ATOM      9  C   UNL     1      45.760   4.010  11.133  0.00  0.00    +0.000 A 
BRANCH   8  10
ATOM     10  C   UNL     1      45.633   3.187   8.760  0.00  0.00    +0.000 A 
ATOM     11  C   UNL     1      46.025   3.880   7.605  0.00  0.00    +0.000 A 
ATOM     12  C   UNL     1      46.569   3.200   6.515  0.00  0.00    +0.000 A 
ATOM     13  C   UNL     1      46.726   1.830   6.606  0.00  0.00    +0.000 A 
ATOM     14  N   UNL     1      46.377   1.112   7.692  0.00  0.00    +0.000 NA
ATOM     15  C   UNL     1      45.839   1.803   8.729  0.00  0.00    +0.000 A 
ENDBRANCH   8  10
ENDBRANCH   1   4
BRANCH   1  16
ATOM     16  N   UNL     1      46.115   6.601  13.525  0.00  0.00    +0.000 N 
ATOM     17  H   UNL     1      45.194   7.020  13.395  0.00  0.00    +0.000 HD
BRANCH  16  21
ATOM     18  C   UNL     1      49.015   9.238  12.372  0.00  0.00    +0.000 A 
ATOM     19  C   UNL     1      48.255   9.413  13.515  0.00  0.00    +0.000 A 
ATOM     20  N   UNL     1      47.251   8.572  13.852  0.00  0.00    +0.000 NA
ATOM     21  C   UNL     1      47.015   7.530  13.017  0.00  0.00    +0.000 A 
ATOM     22  C   UNL     1      47.753   7.397  11.844  0.00  0.00    +0.000 A 
ATOM     23  N   UNL     1      48.767   8.235  11.496  0.00  0.00    +0.000 NA
BRANCH  18  25
ATOM     24  N   UNL     1      51.030  10.782  11.839  0.00  0.00    +0.000 NA
ATOM     25  C   UNL     1      50.131  10.087  12.110  0.00  0.00    +0.000 C 
ENDBRANCH  18  25
ENDBRANCH  16  21
ENDBRANCH   1  16
TORSDOF 5
ENDMDL
