MODEL 1
REMARK VINA RESULT:    -8.084      0.000      0.000
REMARK INTER + INTRA:         -10.542
REMARK INTER:                  -9.975
REMARK INTRA:                  -0.567
REMARK UNBOUND:                -0.567
REMARK  Name = 
REMARK  5 active torsions:
REMARK  status: ('A' for Active; 'I' for Inactive)
REMARK    1  A    between atoms: C_1  and  C_2
REMARK    2  A    between atoms: C_4  and  C_5
REMARK    3  A    between atoms: C_10  and  N_11
REMARK    4  A    between atoms: N_11  and  C_12
REMARK    5  A    between atoms: C_12  and  C_13
REMARK                            x       y       z     vdW  Elec       q    Type
REMARK                         _______ _______ _______ _____ _____    ______ ____
ROOT
ATOM      1  N   UNL     1      44.382   4.933  10.133  0.00  0.00    +0.000 N 
ATOM      2  H   UNL     1      43.776   5.638   9.730  0.00  0.00    +0.000 HD
ENDROOT
BRANCH   1   9
ATOM      3  C   UNL     1      44.117   2.070   9.829  0.00  0.00    +0.000 C 
ATOM      4  C   UNL     1      45.057   2.895   9.000  0.00  0.00    +0.000 A 
ATOM      5  C   UNL     1      45.888   2.237   8.079  0.00  0.00    +0.000 A 
ATOM      6  C   UNL     1      46.776   2.951   7.281  0.00  0.00    +0.000 A 
ATOM      7  C   UNL     1      46.781   4.325   7.449  0.00  0.00    +0.000 A 
ATOM      8  N   UNL     1      46.013   5.000   8.357  0.00  0.00    +0.000 NA
ATOM      9  C   UNL     1      45.151   4.294   9.126  0.00  0.00    +0.000 A 
BRANCH   6  10
ATOM     10  C   UNL     1      47.647   2.196   6.342  0.00  0.00    +0.000 C 
ATOM     11  N   UNL     1      48.123   2.811   5.219  0.00  0.00    +0.000 N 
ATOM     12  O   UNL     1      47.949   1.027   6.569  0.00  0.00    +0.000 OA
ATOM     13  H   UNL     1      47.949   3.756   4.944  0.00  0.00    +0.000 HD
ATOM     14  H   UNL     1      48.726   2.246   4.627  0.00  0.00    +0.000 HD
ENDBRANCH   6  10
ENDBRANCH   1   9
BRANCH   1  15
ATOM     15  C   UNL     1      44.921   5.232  11.478  0.00  0.00    +0.000 C 
ATOM     16  C   UNL     1      45.340   4.067  12.356  0.00  0.00    +0.000 C 
ATOM     17  C   UNL     1      44.080   4.800  12.680  0.00  0.00    +0.000 C 
BRANCH  15  18
ATOM     18  C   UNL     1      45.614   6.586  11.638  0.00  0.00    +0.000 A 
ATOM     19  C   UNL     1      47.002   6.673  11.825  0.00  0.00    +0.000 A 
ATOM     20  C   UNL     1      47.644   7.898  12.030  0.00  0.00    +0.000 A 
ATOM     21  C   UNL     1      46.906   9.080  12.039  0.00  0.00    +0.000 A 
ATOM     22 CL   UNL     1      47.761  10.561  12.283  0.00  0.00    +0.000 Cl
ATOM     23  C   UNL     1      45.523   9.029  11.852  0.00  0.00    +0.000 A 
ATOM     24 CL   UNL     1      44.536  10.450  11.871  0.00  0.00    +0.000 Cl
ATOM     25  C   UNL     1      44.889   7.795  11.654  0.00  0.00    +0.000 A 
ENDBRANCH  15  18
ENDBRANCH   1  15
TORSDOF 4
ENDMDL
MODEL 2
REMARK VINA RESULT:    -7.741      2.327      3.023
REMARK INTER + INTRA:         -10.118
REMARK INTER:                  -9.380
REMARK INTRA:                  -0.738
REMARK UNBOUND:                -0.567
REMARK  Name = 
REMARK  5 active torsions:
REMARK  status: ('A' for Active; 'I' for Inactive)
REMARK    1  A    between atoms: C_1  and  C_2
REMARK    2  A    between atoms: C_4  and  C_5
REMARK    3  A    between atoms: C_10  and  N_11
REMARK    4  A    between atoms: N_11  and  C_12
REMARK    5  A    between atoms: C_12  and  C_13
REMARK                            x       y       z     vdW  Elec       q    Type
REMARK                         _______ _______ _______ _____ _____    ______ ____
ROOT
ATOM      1  N   UNL     1      43.856   4.819   9.816  0.00  0.00    +0.000 N 
ATOM      2  H   UNL     1      43.925   5.638   9.224  0.00  0.00    +0.000 HD
ENDROOT
BRANCH   1   9
ATOM      3  C   UNL     1      46.327   5.467   8.461  0.00  0.00    +0.000 C 
ATOM      4  C   UNL     1      45.813   4.063   8.594  0.00  0.00    +0.000 A 
ATOM      5  C   UNL     1      46.535   3.027   7.980  0.00  0.00    +0.000 A 
ATOM      6  C   UNL     1      46.108   1.706   8.074  0.00  0.00    +0.000 A 
ATOM      7  C   UNL     1      44.952   1.487   8.804  0.00  0.00    +0.000 A 
ATOM      8  N   UNL     1      44.204   2.471   9.388  0.00  0.00    +0.000 NA
ATOM      9  C   UNL     1      44.631   3.751   9.291  0.00  0.00    +0.000 A 
BRANCH   6  10
ATOM     10  C   UNL     1      46.902   0.656   7.383  0.00  0.00    +0.000 C 
ATOM     11  N   UNL     1      46.667  -0.660   7.659  0.00  0.00    +0.000 N 
ATOM     12  O   UNL     1      47.762   0.960   6.559  0.00  0.00    +0.000 OA
ATOM     13  H   UNL     1      45.988  -1.018   8.301  0.00  0.00    +0.000 HD
ATOM     14  H   UNL     1      47.231  -1.330   7.142  0.00  0.00    +0.000 HD
ENDBRANCH   6  10
ENDBRANCH   1   9
BRANCH   1  15
ATOM     15  C   UNL     1      43.732   5.076  11.267  0.00  0.00    +0.000 C 
ATOM     16  C   UNL     1      42.684   4.300  12.044  0.00  0.00    +0.000 C 
ATOM     17  C   UNL     1      42.445   5.745  11.752  0.00  0.00    +0.000 C 
BRANCH  15  18
ATOM     18  C   UNL     1      45.002   5.547  11.976  0.00  0.00    +0.000 A 
ATOM     19  C   UNL     1      45.750   6.629  11.483  0.00  0.00    +0.000 A 
ATOM     20  C   UNL     1      46.944   7.036  12.086  0.00  0.00    +0.000 A 
ATOM     21  C   UNL     1      47.418   6.373  13.216  0.00  0.00    +0.000 A 
ATOM     22 CL   UNL     1      48.891   6.936  13.921  0.00  0.00    +0.000 Cl
ATOM     23  C   UNL     1      46.697   5.295  13.734  0.00  0.00    +0.000 A 
ATOM     24 CL   UNL     1      47.230   4.409  15.121  0.00  0.00    +0.000 Cl
ATOM     25  C   UNL     1      45.504   4.890  13.118  0.00  0.00    +0.000 A 
ENDBRANCH  15  18
ENDBRANCH   1  15
TORSDOF 4
ENDMDL
MODEL 3
REMARK VINA RESULT:    -7.412      1.749      2.221
REMARK INTER + INTRA:          -9.712
REMARK INTER:                 -10.088
REMARK INTRA:                   0.376
REMARK UNBOUND:                -0.567
REMARK  Name = 
REMARK  5 active torsions:
REMARK  status: ('A' for Active; 'I' for Inactive)
REMARK    1  A    between atoms: C_1  and  C_2
REMARK    2  A    between atoms: C_4  and  C_5
REMARK    3  A    between atoms: C_10  and  N_11
REMARK    4  A    between atoms: N_11  and  C_12
REMARK    5  A    between atoms: C_12  and  C_13
REMARK                            x       y       z     vdW  Elec       q    Type
REMARK                         _______ _______ _______ _____ _____    ______ ____
ROOT
ATOM      1  N   UNL     1      44.029   4.647  10.053  0.00  0.00    +0.000 N 
ATOM      2  H   UNL     1      43.595   5.500   9.721  0.00  0.00    +0.000 HD
ENDROOT
BRANCH   1   9
ATOM      3  C   UNL     1      44.084   1.792   9.599  0.00  0.00    +0.000 C 
ATOM      4  C   UNL     1      45.005   2.748   8.899  0.00  0.00    +0.000 A 
ATOM      5  C   UNL     1      45.977   2.224   8.030  0.00  0.00    +0.000 A 
ATOM      6  C   UNL     1      46.854   3.063   7.351  0.00  0.00    +0.000 A 
ATOM      7  C   UNL     1      46.704   4.420   7.580  0.00  0.00    +0.000 A 
ATOM      8  N   UNL     1      45.795   4.967   8.441  0.00  0.00    +0.000 NA
ATOM      9  C   UNL     1      44.945   4.141   9.094  0.00  0.00    +0.000 A 
BRANCH   6  10
ATOM     10  C   UNL     1      47.877   2.448   6.465  0.00  0.00    +0.000 C 
ATOM     11  N   UNL     1      47.974   2.851   5.164  0.00  0.00    +0.000 N 
ATOM     12  O   UNL     1      48.640   1.584   6.892  0.00  0.00    +0.000 OA
ATOM     13  H   UNL     1      47.414   3.549   4.718  0.00  0.00    +0.000 HD
ATOM     14  H   UNL     1      48.703   2.404   4.614  0.00  0.00    +0.000 HD
ENDBRANCH   6  10
ENDBRANCH   1   9
BRANCH   1  15
ATOM     15  C   UNL     1      44.275   4.570  11.510  0.00  0.00    +0.000 C 
ATOM     16  C   UNL     1      43.798   3.333  12.251  0.00  0.00    +0.000 C 
ATOM     17  C   UNL     1      43.054   4.616  12.429  0.00  0.00    +0.000 C 
BRANCH  15  18
ATOM     18  C   UNL     1      45.492   5.337  12.027  0.00  0.00    +0.000 A 
ATOM     19  C   UNL     1      46.108   6.330  11.249  0.00  0.00    +0.000 A 
ATOM     20  C   UNL     1      47.256   7.001  11.682  0.00  0.00    +0.000 A 
ATOM     21  C   UNL     1      47.814   6.701  12.923  0.00  0.00    +0.000 A 
ATOM     22 CL   UNL     1      49.223   7.576  13.405  0.00  0.00    +0.000 Cl
ATOM     23  C   UNL     1      47.224   5.720  13.724  0.00  0.00    +0.000 A 
ATOM     24 CL   UNL     1      47.869   5.277  15.267  0.00  0.00    +0.000 Cl
ATOM     25  C   UNL     1      46.077   5.049  13.277  0.00  0.00    +0.000 A 
ENDBRANCH  15  18
ENDBRANCH   1  15
TORSDOF 4
ENDMDL
MODEL 4
REMARK VINA RESULT:    -7.140      4.526      6.988
REMARK INTER + INTRA:          -9.377
REMARK INTER:                  -9.123
REMARK INTRA:                  -0.255
REMARK UNBOUND:                -0.567
REMARK  Name = 
REMARK  5 active torsions:
REMARK  status: ('A' for Active; 'I' for Inactive)
REMARK    1  A    between atoms: C_1  and  C_2
REMARK    2  A    between atoms: C_4  and  C_5
REMARK    3  A    between atoms: C_10  and  N_11
REMARK    4  A    between atoms: N_11  and  C_12
REMARK    5  A    between atoms: C_12  and  C_13
REMARK                            x       y       z     vdW  Elec       q    Type
REMARK                         _______ _______ _______ _____ _____    ______ ____
ROOT
ATOM      1  N   UNL     1      45.477   3.780  12.190  0.00  0.00    +0.000 N 
ATOM      2  H   UNL     1      46.089   2.993  12.368  0.00  0.00    +0.000 HD
ENDROOT
BRANCH   1   9
ATOM      3  C   UNL     1      47.224   3.813  14.494  0.00  0.00    +0.000 C 
ATOM      4  C   UNL     1      46.936   5.034  13.670  0.00  0.00    +0.000 A 
ATOM      5  C   UNL     1      47.493   6.258  14.075  0.00  0.00    +0.000 A 
ATOM      6  C   UNL     1      47.263   7.422  13.348  0.00  0.00    +0.000 A 
ATOM      7  C   UNL     1      46.471   7.292  12.220  0.00  0.00    +0.000 A 
ATOM      8  N   UNL     1      45.885   6.127  11.812  0.00  0.00    +0.000 NA
ATOM      9  C   UNL     1      46.117   5.001  12.526  0.00  0.00    +0.000 A 
BRANCH   6  10
ATOM     10  C   UNL     1      47.859   8.691  13.840  0.00  0.00    +0.000 C 
ATOM     11  N   UNL     1      47.513   9.168  15.072  0.00  0.00    +0.000 N 
ATOM     12  O   UNL     1      48.666   9.314  13.153  0.00  0.00    +0.000 OA
ATOM     13  H   UNL     1      46.878   8.740  15.714  0.00  0.00    +0.000 HD
ATOM     14  H   UNL     1      47.967  10.032  15.357  0.00  0.00    +0.000 HD
ENDBRANCH   6  10
ENDBRANCH   1   9
BRANCH   1  15
ATOM     15  C   UNL     1      44.569   3.648  11.029  0.00  0.00    +0.000 C 
ATOM     16  C   UNL     1      43.234   4.369  11.080  0.00  0.00    +0.000 C 
ATOM     17  C   UNL     1      43.262   2.885  11.247  0.00  0.00    +0.000 C 
BRANCH  15  18
ATOM     18  C   UNL     1      45.240   3.393   9.679  0.00  0.00    +0.000 A 
ATOM     19  C   UNL     1      45.434   4.433   8.757  0.00  0.00    +0.000 A 
ATOM     20  C   UNL     1      45.994   4.207   7.496  0.00  0.00    +0.000 A 
ATOM     21  C   UNL     1      46.388   2.922   7.127  0.00  0.00    +0.000 A 
ATOM     22 CL   UNL     1      47.085   2.713   5.560  0.00  0.00    +0.000 Cl
ATOM     23  C   UNL     1      46.211   1.865   8.022  0.00  0.00    +0.000 A 
ATOM     24 CL   UNL     1      46.657   0.240   7.630  0.00  0.00    +0.000 Cl
ATOM     25  C   UNL     1      45.644   2.102   9.282  0.00  0.00    +0.000 A 
ENDBRANCH  15  18
ENDBRANCH   1  15
TORSDOF 4
ENDMDL
MODEL 5
REMARK VINA RESULT:    -6.722      2.335      3.290
REMARK INTER + INTRA:          -8.861
REMARK INTER:                  -9.109
REMARK INTRA:                   0.247
REMARK UNBOUND:                -0.567
REMARK  Name = 
REMARK  5 active torsions:
REMARK  status: ('A' for Active; 'I' for Inactive)
REMARK    1  A    between atoms: C_1  and  C_2
REMARK    2  A    between atoms: C_4  and  C_5
REMARK    3  A    between atoms: C_10  and  N_11
REMARK    4  A    between atoms: N_11  and  C_12
REMARK    5  A    between atoms: C_12  and  C_13
REMARK                            x       y       z     vdW  Elec       q    Type
REMARK                         _______ _______ _______ _____ _____    ______ ____
ROOT
ATOM      1  N   UNL     1      44.412   5.090  10.165  0.00  0.00    +0.000 N 
ATOM      2  H   UNL     1      43.530   5.407   9.781  0.00  0.00    +0.000 HD
ENDROOT
BRANCH   1   9
ATOM      3  C   UNL     1      44.125   2.219   9.979  0.00  0.00    +0.000 C 
ATOM      4  C   UNL     1      45.068   3.003   9.114  0.00  0.00    +0.000 A 
ATOM      5  C   UNL     1      45.891   2.302   8.217  0.00  0.00    +0.000 A 
ATOM      6  C   UNL     1      46.781   2.976   7.388  0.00  0.00    +0.000 A 
ATOM      7  C   UNL     1      46.796   4.356   7.500  0.00  0.00    +0.000 A 
ATOM      8  N   UNL     1      46.036   5.072   8.382  0.00  0.00    +0.000 NA
ATOM      9  C   UNL     1      45.173   4.405   9.182  0.00  0.00    +0.000 A 
BRANCH   6  10
ATOM     10  C   UNL     1      47.643   2.177   6.478  0.00  0.00    +0.000 C 
ATOM     11  N   UNL     1      48.058   2.716   5.294  0.00  0.00    +0.000 N 
ATOM     12  O   UNL     1      47.992   1.039   6.782  0.00  0.00    +0.000 OA
ATOM     13  H   UNL     1      47.843   3.632   4.953  0.00  0.00    +0.000 HD
ATOM     14  H   UNL     1      48.658   2.126   4.724  0.00  0.00    +0.000 HD
ENDBRANCH   6  10
ENDBRANCH   1   9
BRANCH   1  15
ATOM     15  C   UNL     1      45.030   5.968  11.183  0.00  0.00    +0.000 C 
ATOM     16  C   UNL     1      44.380   7.312  11.458  0.00  0.00    +0.000 C 
ATOM     17  C   UNL     1      45.662   7.271  10.693  0.00  0.00    +0.000 C 
BRANCH  15  18
ATOM     18  C   UNL     1      45.806   5.262  12.295  0.00  0.00    +0.000 A 
ATOM     19  C   UNL     1      45.647   3.887  12.532  0.00  0.00    +0.000 A 
ATOM     20  C   UNL     1      46.305   3.238  13.581  0.00  0.00    +0.000 A 
ATOM     21  C   UNL     1      47.158   3.953  14.420  0.00  0.00    +0.000 A 
ATOM     22 CL   UNL     1      47.950   3.088  15.688  0.00  0.00    +0.000 Cl
ATOM     23  C   UNL     1      47.340   5.321  14.211  0.00  0.00    +0.000 A 
ATOM     24 CL   UNL     1      48.365   6.281  15.221  0.00  0.00    +0.000 Cl
ATOM     25  C   UNL     1      46.671   5.964  13.160  0.00  0.00    +0.000 A 
ENDBRANCH  15  18
ENDBRANCH   1  15
TORSDOF 4
ENDMDL
MODEL 6
REMARK VINA RESULT:    -6.578      4.185      6.433
REMARK INTER + INTRA:          -8.684
REMARK INTER:                  -7.868
REMARK INTRA:                  -0.816
REMARK UNBOUND:                -0.567
REMARK  Name = 
REMARK  5 active torsions:
REMARK  status: ('A' for Active; 'I' for Inactive)
REMARK    1  A    between atoms: C_1  and  C_2
REMARK    2  A    between atoms: C_4  and  C_5
REMARK    3  A    between atoms: C_10  and  N_11
REMARK    4  A    between atoms: N_11  and  C_12
REMARK    5  A    between atoms: C_12  and  C_13
REMARK                            x       y       z     vdW  Elec       q    Type
REMARK                         _______ _______ _______ _____ _____    ______ ____
ROOT
ATOM      1  N   UNL     1      44.569   5.787  12.892  0.00  0.00    +0.000 N 
ATOM      2  H   UNL     1      44.484   5.085  13.617  0.00  0.00    +0.000 HD
ENDROOT
BRANCH   1   9
ATOM      3  C   UNL     1      46.767   4.044  13.597  0.00  0.00    +0.000 C 
ATOM      4  C   UNL     1      46.953   5.492  13.244  0.00  0.00    +0.000 A 
ATOM      5  C   UNL     1      48.245   6.036  13.319  0.00  0.00    +0.000 A 
ATOM      6  C   UNL     1      48.477   7.370  13.000  0.00  0.00    +0.000 A 
ATOM      7  C   UNL     1      47.373   8.106  12.606  0.00  0.00    +0.000 A 
ATOM      8  N   UNL     1      46.096   7.623  12.551  0.00  0.00    +0.000 NA
ATOM      9  C   UNL     1      45.883   6.323  12.862  0.00  0.00    +0.000 A 
BRANCH   6  10
ATOM     10  C   UNL     1      49.863   7.895  13.123  0.00  0.00    +0.000 C 
ATOM     11  N   UNL     1      50.639   7.513  14.179  0.00  0.00    +0.000 N 
ATOM     12  O   UNL     1      50.319   8.664  12.280  0.00  0.00    +0.000 OA
ATOM     13  H   UNL     1      50.373   6.888  14.913  0.00  0.00    +0.000 HD
ATOM     14  H   UNL     1      51.582   7.894  14.197  0.00  0.00    +0.000 HD
ENDBRANCH   6  10
ENDBRANCH   1   9
BRANCH   1  15
ATOM     15  C   UNL     1      43.774   5.554  11.666  0.00  0.00    +0.000 C 
ATOM     16  C   UNL     1      42.963   6.711  11.110  0.00  0.00    +0.000 C 
ATOM     17  C   UNL     1      42.252   5.595  11.802  0.00  0.00    +0.000 C 
BRANCH  15  18
ATOM     18  C   UNL     1      44.302   4.476  10.719  0.00  0.00    +0.000 A 
ATOM     19  C   UNL     1      44.017   3.119  10.933  0.00  0.00    +0.000 A 
ATOM     20  C   UNL     1      44.538   2.116  10.110  0.00  0.00    +0.000 A 
ATOM     21  C   UNL     1      45.356   2.451   9.033  0.00  0.00    +0.000 A 
ATOM     22 CL   UNL     1      45.956   1.166   8.047  0.00  0.00    +0.000 Cl
ATOM     23  C   UNL     1      45.658   3.793   8.790  0.00  0.00    +0.000 A 
ATOM     24 CL   UNL     1      46.682   4.288   7.487  0.00  0.00    +0.000 Cl
ATOM     25  C   UNL     1      45.134   4.790   9.626  0.00  0.00    +0.000 A 
ENDBRANCH  15  18
ENDBRANCH   1  15
TORSDOF 4
ENDMDL
MODEL 7
REMARK VINA RESULT:    -5.880      4.549      6.202
REMARK INTER + INTRA:          -7.822
REMARK INTER:                  -7.148
REMARK INTRA:                  -0.674
REMARK UNBOUND:                -0.567
REMARK  Name = 
REMARK  5 active torsions:
REMARK  status: ('A' for Active; 'I' for Inactive)
REMARK    1  A    between atoms: C_1  and  C_2
REMARK    2  A    between atoms: C_4  and  C_5
REMARK    3  A    between atoms: C_10  and  N_11
REMARK    4  A    between atoms: N_11  and  C_12
REMARK    5  A    between atoms: C_12  and  C_13
REMARK                            x       y       z     vdW  Elec       q    Type
REMARK                         _______ _______ _______ _____ _____    ______ ____
ROOT
ATOM      1  N   UNL     1      48.399   6.294  12.908  0.00  0.00    +0.000 N 
ATOM      2  H   UNL     1      48.826   5.461  13.294  0.00  0.00    +0.000 HD
ENDROOT
BRANCH   1   9
ATOM      3  C   UNL     1      46.956   4.387  14.534  0.00  0.00    +0.000 C 
ATOM      4  C   UNL     1      46.332   5.111  13.376  0.00  0.00    +0.000 A 
ATOM      5  C   UNL     1      45.006   4.801  13.032  0.00  0.00    +0.000 A 
ATOM      6  C   UNL     1      44.375   5.442  11.971  0.00  0.00    +0.000 A 
ATOM      7  C   UNL     1      45.125   6.391  11.297  0.00  0.00    +0.000 A 
ATOM      8  N   UNL     1      46.426   6.697  11.579  0.00  0.00    +0.000 NA
ATOM      9  C   UNL     1      47.029   6.068  12.615  0.00  0.00    +0.000 A 
BRANCH   6  10
ATOM     10  C   UNL     1      42.979   5.054  11.640  0.00  0.00    +0.000 C 
ATOM     11  N   UNL     1      41.987   5.992  11.686  0.00  0.00    +0.000 N 
ATOM     12  O   UNL     1      42.709   3.900  11.317  0.00  0.00    +0.000 OA
ATOM     13  H   UNL     1      42.097   6.956  11.926  0.00  0.00    +0.000 HD
ATOM     14  H   UNL     1      41.058   5.667  11.434  0.00  0.00    +0.000 HD
ENDBRANCH   6  10
ENDBRANCH   1   9
BRANCH   1  15
ATOM     15  C   UNL     1      48.901   7.583  13.431  0.00  0.00    +0.000 C 
ATOM     16  C   UNL     1      48.942   8.771  12.487  0.00  0.00    +0.000 C 
ATOM     17  C   UNL     1      50.223   8.102  12.864  0.00  0.00    +0.000 C 
BRANCH  15  18
ATOM     18  C   UNL     1      48.714   7.816  14.931  0.00  0.00    +0.000 A 
ATOM     19  C   UNL     1      48.228   9.039  15.421  0.00  0.00    +0.000 A 
ATOM     20  C   UNL     1      48.105   9.288  16.791  0.00  0.00    +0.000 A 
ATOM     21  C   UNL     1      48.458   8.307  17.715  0.00  0.00    +0.000 A 
ATOM     22 CL   UNL     1      48.270   8.674  19.391  0.00  0.00    +0.000 Cl
ATOM     23  C   UNL     1      48.943   7.078  17.261  0.00  0.00    +0.000 A 
ATOM     24 CL   UNL     1      49.422   5.818  18.344  0.00  0.00    +0.000 Cl
ATOM     25  C   UNL     1      49.068   6.840  15.885  0.00  0.00    +0.000 A 
ENDBRANCH  15  18
ENDBRANCH   1  15
TORSDOF 4
ENDMDL
MODEL 8
REMARK VINA RESULT:    -5.801      5.402      7.449
REMARK INTER + INTRA:          -7.724
REMARK INTER:                  -7.219
REMARK INTRA:                  -0.505
REMARK UNBOUND:                -0.567
REMARK  Name = 
REMARK  5 active torsions:
REMARK  status: ('A' for Active; 'I' for Inactive)
REMARK    1  A    between atoms: C_1  and  C_2
REMARK    2  A    between atoms: C_4  and  C_5
REMARK    3  A    between atoms: C_10  and  N_11
REMARK    4  A    between atoms: N_11  and  C_12
REMARK    5  A    between atoms: C_12  and  C_13
REMARK                            x       y       z     vdW  Elec       q    Type
REMARK                         _______ _______ _______ _____ _____    ______ ____
ROOT
ATOM      1  N   UNL     1      48.860   7.118  13.802  0.00  0.00    +0.000 N 
ATOM      2  H   UNL     1      49.610   6.702  13.263  0.00  0.00    +0.000 HD
ENDROOT
BRANCH   1   9
ATOM      3  C   UNL     1      46.728   8.555  12.479  0.00  0.00    +0.000 C 
ATOM      4  C   UNL     1      46.581   7.143  12.966  0.00  0.00    +0.000 A 
ATOM      5  C   UNL     1      45.333   6.515  12.826  0.00  0.00    +0.000 A 
ATOM      6  C   UNL     1      45.140   5.206  13.256  0.00  0.00    +0.000 A 
ATOM      7  C   UNL     1      46.239   4.576  13.813  0.00  0.00    +0.000 A 
ATOM      8  N   UNL     1      47.460   5.163  13.996  0.00  0.00    +0.000 NA
ATOM      9  C   UNL     1      47.636   6.436  13.572  0.00  0.00    +0.000 A 
BRANCH   6  10
ATOM     10  C   UNL     1      43.789   4.604  13.103  0.00  0.00    +0.000 C 
ATOM     11  N   UNL     1      42.692   5.415  13.027  0.00  0.00    +0.000 N 
ATOM     12  O   UNL     1      43.649   3.385  13.036  0.00  0.00    +0.000 OA
ATOM     13  H   UNL     1      42.693   6.414  13.060  0.00  0.00    +0.000 HD
ATOM     14  H   UNL     1      41.800   4.943  12.907  0.00  0.00    +0.000 HD
ENDBRANCH   6  10
ENDBRANCH   1   9
BRANCH   1  15
ATOM     15  C   UNL     1      49.235   7.659  15.127  0.00  0.00    +0.000 C 
ATOM     16  C   UNL     1      48.380   8.768  15.715  0.00  0.00    +0.000 C 
ATOM     17  C   UNL     1      49.732   9.104  15.177  0.00  0.00    +0.000 C 
BRANCH  15  18
ATOM     18  C   UNL     1      49.971   6.698  16.060  0.00  0.00    +0.000 A 
ATOM     19  C   UNL     1      51.373   6.685  16.130  0.00  0.00    +0.000 A 
ATOM     20  C   UNL     1      52.064   5.774  16.935  0.00  0.00    +0.000 A 
ATOM     21  C   UNL     1      51.362   4.851  17.708  0.00  0.00    +0.000 A 
ATOM     22 CL   UNL     1      52.274   3.764  18.690  0.00  0.00    +0.000 Cl
ATOM     23  C   UNL     1      49.966   4.839  17.663  0.00  0.00    +0.000 A 
ATOM     24 CL   UNL     1      49.023   3.711  18.577  0.00  0.00    +0.000 Cl
ATOM     25  C   UNL     1      49.283   5.753  16.848  0.00  0.00    +0.000 A 
ENDBRANCH  15  18
ENDBRANCH   1  15
TORSDOF 4
ENDMDL
MODEL 9
REMARK VINA RESULT:    -5.791      4.410      6.014
REMARK INTER + INTRA:          -7.712
REMARK INTER:                  -7.647
REMARK INTRA:                  -0.066
REMARK UNBOUND:                -0.567
REMARK  Name = 
REMARK  5 active torsions:
REMARK  status: ('A' for Active; 'I' for Inactive)
REMARK    1  A    between atoms: C_1  and  C_2
REMARK    2  A    between atoms: C_4  and  C_5
REMARK    3  A    between atoms: C_10  and  N_11
REMARK    4  A    between atoms: N_11  and  C_12
REMARK    5  A    between atoms: C_12  and  C_13
REMARK                            x       y       z     vdW  Elec       q    Type
REMARK                         _______ _______ _______ _____ _____    ______ ____
ROOT
ATOM      1  N   UNL     1      46.764   6.990  13.788  0.00  0.00    +0.000 N 
ATOM      2  H   UNL     1      46.204   7.832  13.733  0.00  0.00    +0.000 HD
ENDROOT
BRANCH   1   9
ATOM      3  C   UNL     1      45.050   7.666  11.559  0.00  0.00    +0.000 C 
ATOM      4  C   UNL     1      45.283   6.253  12.011  0.00  0.00    +0.000 A 
ATOM      5  C   UNL     1      44.590   5.221  11.359  0.00  0.00    +0.000 A 
ATOM      6  C   UNL     1      44.770   3.893  11.733  0.00  0.00    +0.000 A 
ATOM      7  C   UNL     1      45.665   3.663  12.764  0.00  0.00    +0.000 A 
ATOM      8  N   UNL     1      46.333   4.642  13.444  0.00  0.00    +0.000 NA
ATOM      9  C   UNL     1      46.151   5.930  13.070  0.00  0.00    +0.000 A 
BRANCH   6  10
ATOM     10  C   UNL     1      43.989   2.847  11.021  0.00  0.00    +0.000 C 
ATOM     11  N   UNL     1      44.461   2.333   9.847  0.00  0.00    +0.000 N 
ATOM     12  O   UNL     1      42.928   2.433  11.482  0.00  0.00    +0.000 OA
ATOM     13  H   UNL     1      45.312   2.588   9.389  0.00  0.00    +0.000 HD
ATOM     14  H   UNL     1      43.889   1.610   9.418  0.00  0.00    +0.000 HD
ENDBRANCH   6  10
ENDBRANCH   1   9
BRANCH   1  15
ATOM     15  C   UNL     1      48.229   7.187  13.824  0.00  0.00    +0.000 C 
ATOM     16  C   UNL     1      48.816   8.342  13.033  0.00  0.00    +0.000 C 
ATOM     17  C   UNL     1      49.000   6.950  12.525  0.00  0.00    +0.000 C 
BRANCH  15  18
ATOM     18  C   UNL     1      48.941   6.697  15.086  0.00  0.00    +0.000 A 
ATOM     19  C   UNL     1      50.238   7.130  15.402  0.00  0.00    +0.000 A 
ATOM     20  C   UNL     1      50.924   6.648  16.521  0.00  0.00    +0.000 A 
ATOM     21  C   UNL     1      50.319   5.721  17.367  0.00  0.00    +0.000 A 
ATOM     22 CL   UNL     1      51.215   5.177  18.739  0.00  0.00    +0.000 Cl
ATOM     23  C   UNL     1      49.027   5.272  17.082  0.00  0.00    +0.000 A 
ATOM     24 CL   UNL     1      48.216   4.108  18.072  0.00  0.00    +0.000 Cl
ATOM     25  C   UNL     1      48.350   5.757  15.954  0.00  0.00    +0.000 A 
ENDBRANCH  15  18
ENDBRANCH   1  15
TORSDOF 4
ENDMDL
