MODEL 1
REMARK VINA RESULT:    -7.188      0.000      0.000
REMARK INTER + INTRA:         -12.363
REMARK INTER:                 -11.180
REMARK INTRA:                  -1.183
REMARK UNBOUND:                -1.183
REMARK  Name = 
REMARK  10 active torsions:
REMARK  status: ('A' for Active; 'I' for Inactive)
REMARK    1  A    between atoms: N_1  and  C_2
REMARK    2  A    between atoms: C_2  and  C_3
REMARK    3  A    between atoms: C_3  and  N_4
REMARK    4  A    between atoms: N_4  and  C_5
REMARK    5  A    between atoms: C_5  and  C_6
REMARK    6  A    between atoms: C_9  and  C_10
REMARK    7  A    between atoms: C_10  and  C_11
REMARK    8  A    between atoms: C_14  and  C_15
REMARK    9  A    between atoms: C_15  and  N_16
REMARK   10  A    between atoms: C_17  and  C_19
REMARK                            x       y       z     vdW  Elec       q    Type
REMARK                         _______ _______ _______ _____ _____    ______ ____
ROOT
ATOM      1  C   UNL     1      45.946   6.724  12.868  0.00  0.00    +0.000 A 
ATOM      2  C   UNL     1      46.864   5.792  13.332  0.00  0.00    +0.000 A 
ATOM      3  C   UNL     1      47.954   6.226  14.087  0.00  0.00    +0.000 A 
ATOM      4  C   UNL     1      48.150   7.592  14.312  0.00  0.00    +0.000 A 
ATOM      5  C   UNL     1      47.207   8.453  13.762  0.00  0.00    +0.000 A 
ATOM      6  N   UNL     1      46.110   8.056  13.061  0.00  0.00    +0.000 NA
ENDROOT
BRANCH   1   7
ATOM      7  C   UNL     1      44.672   6.236  12.209  0.00  0.00    +0.000 C 
BRANCH   7  11
ATOM      8  C   UNL     1      45.093   3.414   9.039  0.00  0.00    +0.000 A 
ATOM      9  C   UNL     1      45.719   4.642   8.900  0.00  0.00    +0.000 A 
ATOM     10  C   UNL     1      45.630   5.560   9.939  0.00  0.00    +0.000 A 
ATOM     11  C   UNL     1      44.889   5.247  11.085  0.00  0.00    +0.000 A 
ATOM     12  C   UNL     1      44.309   3.986  11.136  0.00  0.00    +0.000 A 
ATOM     13  N   UNL     1      44.408   3.057  10.156  0.00  0.00    +0.000 NA
BRANCH   8  14
ATOM     14  C   UNL     1      45.243   2.384   7.940  0.00  0.00    +0.000 C 
BRANCH  14  15
ATOM     15  N   UNL     1      45.967   1.173   8.385  0.00  0.00    +0.000 NA
ATOM     16  H   UNL     1      46.404   1.395   9.283  0.00  0.00    +0.000 HD
BRANCH  15  17
ATOM     17  C   UNL     1      47.046   0.876   7.423  0.00  0.00    +0.000 C 
BRANCH  17  18
ATOM     18  C   UNL     1      47.497   2.125   6.643  0.00  0.00    +0.000 C 
BRANCH  18  19
ATOM     19  N   UNL     1      48.560   1.791   5.694  0.00  0.00    +0.000 NA
ATOM     20  H   UNL     1      48.794   0.807   5.804  0.00  0.00    +0.000 HD
ATOM     21  H   UNL     1      49.396   2.320   5.940  0.00  0.00    +0.000 HD
ENDBRANCH  18  19
ENDBRANCH  17  18
ENDBRANCH  15  17
ENDBRANCH  14  15
ENDBRANCH   8  14
ENDBRANCH   7  11
ENDBRANCH   1   7
BRANCH   4  22
ATOM     22  C   UNL     1      49.319   8.141  15.090  0.00  0.00    +0.000 C 
BRANCH  22  23
ATOM     23  N   UNL     1      50.171   7.106  15.620  0.00  0.00    +0.000 N 
ATOM     24  C   UNL     1      50.119   6.713  16.934  0.00  0.00    +0.000 C 
ATOM     25  O   UNL     1      49.337   7.201  17.744  0.00  0.00    +0.000 OA
ATOM     26  H   UNL     1      51.062   6.976  15.153  0.00  0.00    +0.000 HD
BRANCH  24  27
ATOM     27  C   UNL     1      51.030   5.622  17.298  0.00  0.00    +0.000 A 
ATOM     28  C   UNL     1      52.321   5.901  17.728  0.00  0.00    +0.000 A 
ATOM     29  S   UNL     1      53.226   4.505  18.112  0.00  0.00    +0.000 S 
ATOM     30  C   UNL     1      51.937   3.481  17.690  0.00  0.00    +0.000 A 
ATOM     31  N   UNL     1      52.059   2.126  17.755  0.00  0.00    +0.000 NA
ATOM     32  C   UNL     1      51.017   1.475  17.385  0.00  0.00    +0.000 A 
ATOM     33  N   UNL     1      49.833   2.043  16.962  0.00  0.00    +0.000 N 
ATOM     34  C   UNL     1      49.654   3.405  16.939  0.00  0.00    +0.000 A 
ATOM     35  O   UNL     1      48.557   3.896  16.653  0.00  0.00    +0.000 OA
ATOM     36  C   UNL     1      50.814   4.189  17.298  0.00  0.00    +0.000 A 
ATOM     37  H   UNL     1      49.049   1.479  16.719  0.00  0.00    +0.000 HD
ENDBRANCH  24  27
ENDBRANCH  22  23
ENDBRANCH   4  22
TORSDOF 10
ENDMDL
MODEL 2
REMARK VINA RESULT:    -6.673      3.453      9.380
REMARK INTER + INTRA:         -11.563
REMARK INTER:                 -10.533
REMARK INTRA:                  -1.030
REMARK UNBOUND:                -1.183
REMARK  Name = 
REMARK  10 active torsions:
REMARK  status: ('A' for Active; 'I' for Inactive)
REMARK    1  A    between atoms: N_1  and  C_2
REMARK    2  A    between atoms: C_2  and  C_3
REMARK    3  A    between atoms: C_3  and  N_4
REMARK    4  A    between atoms: N_4  and  C_5
REMARK    5  A    between atoms: C_5  and  C_6
REMARK    6  A    between atoms: C_9  and  C_10
REMARK    7  A    between atoms: C_10  and  C_11
REMARK    8  A    between atoms: C_14  and  C_15
REMARK    9  A    between atoms: C_15  and  N_16
REMARK   10  A    between atoms: C_17  and  C_19
REMARK                            x       y       z     vdW  Elec       q    Type
REMARK                         _______ _______ _______ _____ _____    ______ ____
ROOT
ATOM      1  C   UNL     1      49.435   5.360  16.851  0.00  0.00    +0.000 A 
ATOM      2  C   UNL     1      50.091   6.475  16.346  0.00  0.00    +0.000 A 
ATOM      3  C   UNL     1      49.568   7.125  15.227  0.00  0.00    +0.000 A 
ATOM      4  C   UNL     1      48.435   6.614  14.587  0.00  0.00    +0.000 A 
ATOM      5  C   UNL     1      47.878   5.463  15.135  0.00  0.00    +0.000 A 
ATOM      6  N   UNL     1      48.339   4.835  16.250  0.00  0.00    +0.000 NA
ENDROOT
BRANCH   1   7
ATOM      7  C   UNL     1      49.898   4.769  18.167  0.00  0.00    +0.000 C 
BRANCH   7  11
ATOM      8  C   UNL     1      52.502   1.441  17.583  0.00  0.00    +0.000 A 
ATOM      9  C   UNL     1      53.009   2.553  18.236  0.00  0.00    +0.000 A 
ATOM     10  C   UNL     1      52.165   3.632  18.474  0.00  0.00    +0.000 A 
ATOM     11  C   UNL     1      50.840   3.593  18.027  0.00  0.00    +0.000 A 
ATOM     12  C   UNL     1      50.422   2.430  17.393  0.00  0.00    +0.000 A 
ATOM     13  N   UNL     1      51.208   1.349  17.179  0.00  0.00    +0.000 NA
BRANCH   8  14
ATOM     14  C   UNL     1      53.396   0.237  17.380  0.00  0.00    +0.000 C 
BRANCH  14  15
ATOM     15  N   UNL     1      53.334  -0.718  18.510  0.00  0.00    +0.000 NA
ATOM     16  H   UNL     1      53.410  -0.172  19.372  0.00  0.00    +0.000 HD
BRANCH  15  17
ATOM     17  C   UNL     1      54.502  -1.618  18.444  0.00  0.00    +0.000 C 
BRANCH  17  18
ATOM     18  C   UNL     1      54.563  -2.589  19.637  0.00  0.00    +0.000 C 
BRANCH  18  19
ATOM     19  N   UNL     1      53.764  -2.088  20.757  0.00  0.00    +0.000 NA
ATOM     20  H   UNL     1      53.254  -2.869  21.165  0.00  0.00    +0.000 HD
ATOM     21  H   UNL     1      53.064  -1.441  20.395  0.00  0.00    +0.000 HD
ENDBRANCH  18  19
ENDBRANCH  17  18
ENDBRANCH  15  17
ENDBRANCH  14  15
ENDBRANCH   8  14
ENDBRANCH   7  11
ENDBRANCH   1   7
BRANCH   4  22
ATOM     22  C   UNL     1      47.829   7.240  13.357  0.00  0.00    +0.000 C 
BRANCH  22  23
ATOM     23  N   UNL     1      47.153   6.281  12.519  0.00  0.00    +0.000 N 
ATOM     24  C   UNL     1      46.107   6.628  11.701  0.00  0.00    +0.000 C 
ATOM     25  O   UNL     1      45.684   7.776  11.613  0.00  0.00    +0.000 OA
ATOM     26  H   UNL     1      47.165   5.319  12.840  0.00  0.00    +0.000 HD
BRANCH  24  27
ATOM     27  C   UNL     1      45.557   5.536  10.890  0.00  0.00    +0.000 A 
ATOM     28  C   UNL     1      45.680   5.561   9.506  0.00  0.00    +0.000 A 
ATOM     29  S   UNL     1      44.986   4.203   8.738  0.00  0.00    +0.000 S 
ATOM     30  C   UNL     1      44.474   3.551  10.222  0.00  0.00    +0.000 A 
ATOM     31  N   UNL     1      43.770   2.386  10.279  0.00  0.00    +0.000 NA
ATOM     32  C   UNL     1      43.427   2.024  11.461  0.00  0.00    +0.000 A 
ATOM     33  N   UNL     1      43.729   2.705  12.621  0.00  0.00    +0.000 N 
ATOM     34  C   UNL     1      44.486   3.852  12.608  0.00  0.00    +0.000 A 
ATOM     35  O   UNL     1      44.832   4.396  13.662  0.00  0.00    +0.000 OA
ATOM     36  C   UNL     1      44.858   4.334  11.297  0.00  0.00    +0.000 A 
ATOM     37  H   UNL     1      43.460   2.350  13.512  0.00  0.00    +0.000 HD
ENDBRANCH  24  27
ENDBRANCH  22  23
ENDBRANCH   4  22
TORSDOF 10
ENDMDL
MODEL 3
REMARK VINA RESULT:    -6.654      2.027      2.398
REMARK INTER + INTRA:         -11.532
REMARK INTER:                 -10.357
REMARK INTRA:                  -1.175
REMARK UNBOUND:                -1.183
REMARK  Name = 
REMARK  10 active torsions:
REMARK  status: ('A' for Active; 'I' for Inactive)
REMARK    1  A    between atoms: N_1  and  C_2
REMARK    2  A    between atoms: C_2  and  C_3
REMARK    3  A    between atoms: C_3  and  N_4
REMARK    4  A    between atoms: N_4  and  C_5
REMARK    5  A    between atoms: C_5  and  C_6
REMARK    6  A    between atoms: C_9  and  C_10
REMARK    7  A    between atoms: C_10  and  C_11
REMARK    8  A    between atoms: C_14  and  C_15
REMARK    9  A    between atoms: C_15  and  N_16
REMARK   10  A    between atoms: C_17  and  C_19
REMARK                            x       y       z     vdW  Elec       q    Type
REMARK                         _______ _______ _______ _____ _____    ______ ____
ROOT
ATOM      1  C   UNL     1      45.626   6.629  12.747  0.00  0.00    +0.000 A 
ATOM      2  C   UNL     1      46.015   7.962  12.753  0.00  0.00    +0.000 A 
ATOM      3  C   UNL     1      47.263   8.306  13.273  0.00  0.00    +0.000 A 
ATOM      4  C   UNL     1      48.079   7.323  13.841  0.00  0.00    +0.000 A 
ATOM      5  C   UNL     1      47.582   6.025  13.837  0.00  0.00    +0.000 A 
ATOM      6  N   UNL     1      46.390   5.653  13.297  0.00  0.00    +0.000 NA
ENDROOT
BRANCH   1   7
ATOM      7  C   UNL     1      44.357   6.237  12.019  0.00  0.00    +0.000 C 
BRANCH   7  11
ATOM      8  C   UNL     1      45.096   3.338   8.979  0.00  0.00    +0.000 A 
ATOM      9  C   UNL     1      44.341   2.949  10.074  0.00  0.00    +0.000 A 
ATOM     10  C   UNL     1      44.053   3.890  11.056  0.00  0.00    +0.000 A 
ATOM     11  C   UNL     1      44.551   5.193  10.941  0.00  0.00    +0.000 A 
ATOM     12  C   UNL     1      45.287   5.489   9.801  0.00  0.00    +0.000 A 
ATOM     13  N   UNL     1      45.554   4.605   8.811  0.00  0.00    +0.000 NA
BRANCH   8  14
ATOM     14  C   UNL     1      45.357   2.337   7.874  0.00  0.00    +0.000 C 
BRANCH  14  15
ATOM     15  N   UNL     1      46.175   1.189   8.323  0.00  0.00    +0.000 NA
ATOM     16  H   UNL     1      46.667   1.481   9.171  0.00  0.00    +0.000 HD
BRANCH  15  17
ATOM     17  C   UNL     1      47.192   0.891   7.296  0.00  0.00    +0.000 C 
BRANCH  17  18
ATOM     18  C   UNL     1      47.371   2.047   6.294  0.00  0.00    +0.000 C 
BRANCH  18  19
ATOM     19  N   UNL     1      48.752   2.532   6.301  0.00  0.00    +0.000 NA
ATOM     20  H   UNL     1      49.324   1.888   5.758  0.00  0.00    +0.000 HD
ATOM     21  H   UNL     1      49.105   2.500   7.257  0.00  0.00    +0.000 HD
ENDBRANCH  18  19
ENDBRANCH  17  18
ENDBRANCH  15  17
ENDBRANCH  14  15
ENDBRANCH   8  14
ENDBRANCH   7  11
ENDBRANCH   1   7
BRANCH   4  22
ATOM     22  C   UNL     1      49.426   7.620  14.451  0.00  0.00    +0.000 C 
BRANCH  22  23
ATOM     23  N   UNL     1      49.448   7.415  15.878  0.00  0.00    +0.000 N 
ATOM     24  C   UNL     1      50.577   7.005  16.543  0.00  0.00    +0.000 C 
ATOM     25  O   UNL     1      51.646   6.800  15.977  0.00  0.00    +0.000 OA
ATOM     26  H   UNL     1      48.564   7.166  16.309  0.00  0.00    +0.000 HD
BRANCH  24  27
ATOM     27  C   UNL     1      50.435   6.879  17.998  0.00  0.00    +0.000 A 
ATOM     28  C   UNL     1      51.071   7.779  18.845  0.00  0.00    +0.000 A 
ATOM     29  S   UNL     1      50.782   7.475  20.500  0.00  0.00    +0.000 S 
ATOM     30  C   UNL     1      49.822   6.117  20.144  0.00  0.00    +0.000 A 
ATOM     31  N   UNL     1      49.276   5.357  21.133  0.00  0.00    +0.000 NA
ATOM     32  C   UNL     1      48.596   4.350  20.722  0.00  0.00    +0.000 A 
ATOM     33  N   UNL     1      48.384   4.019  19.400  0.00  0.00    +0.000 N 
ATOM     34  C   UNL     1      48.871   4.795  18.376  0.00  0.00    +0.000 A 
ATOM     35  O   UNL     1      48.590   4.541  17.199  0.00  0.00    +0.000 OA
ATOM     36  C   UNL     1      49.688   5.916  18.781  0.00  0.00    +0.000 A 
ATOM     37  H   UNL     1      47.817   3.240  19.149  0.00  0.00    +0.000 HD
ENDBRANCH  24  27
ENDBRANCH  22  23
ENDBRANCH   4  22
TORSDOF 10
ENDMDL
MODEL 4
REMARK VINA RESULT:    -6.577      3.448      8.878
REMARK INTER + INTRA:         -11.413
REMARK INTER:                 -10.440
REMARK INTRA:                  -0.973
REMARK UNBOUND:                -1.183
REMARK  Name = 
REMARK  10 active torsions:
REMARK  status: ('A' for Active; 'I' for Inactive)
REMARK    1  A    between atoms: N_1  and  C_2
REMARK    2  A    between atoms: C_2  and  C_3
REMARK    3  A    between atoms: C_3  and  N_4
REMARK    4  A    between atoms: N_4  and  C_5
REMARK    5  A    between atoms: C_5  and  C_6
REMARK    6  A    between atoms: C_9  and  C_10
REMARK    7  A    between atoms: C_10  and  C_11
REMARK    8  A    between atoms: C_14  and  C_15
REMARK    9  A    between atoms: C_15  and  N_16
REMARK   10  A    between atoms: C_17  and  C_19
REMARK                            x       y       z     vdW  Elec       q    Type
REMARK                         _______ _______ _______ _____ _____    ______ ____
ROOT
ATOM      1  C   UNL     1      49.712   8.626  15.469  0.00  0.00    +0.000 A 
ATOM      2  C   UNL     1      48.459   9.162  15.204  0.00  0.00    +0.000 A 
ATOM      3  C   UNL     1      47.849   8.895  13.977  0.00  0.00    +0.000 A 
ATOM      4  C   UNL     1      48.527   8.153  13.005  0.00  0.00    +0.000 A 
ATOM      5  C   UNL     1      49.799   7.704  13.342  0.00  0.00    +0.000 A 
ATOM      6  N   UNL     1      50.400   7.910  14.546  0.00  0.00    +0.000 NA
ENDROOT
BRANCH   1   7
ATOM      7  C   UNL     1      50.290   8.763  16.863  0.00  0.00    +0.000 C 
BRANCH   7  11
ATOM      8  C   UNL     1      49.142   5.513  19.376  0.00  0.00    +0.000 A 
ATOM      9  C   UNL     1      50.451   5.962  19.455  0.00  0.00    +0.000 A 
ATOM     10  C   UNL     1      50.834   7.046  18.675  0.00  0.00    +0.000 A 
ATOM     11  C   UNL     1      49.912   7.643  17.807  0.00  0.00    +0.000 A 
ATOM     12  C   UNL     1      48.622   7.129  17.809  0.00  0.00    +0.000 A 
ATOM     13  N   UNL     1      48.208   6.098  18.582  0.00  0.00    +0.000 NA
BRANCH   8  14
ATOM     14  C   UNL     1      48.700   4.375  20.272  0.00  0.00    +0.000 C 
BRANCH  14  15
ATOM     15  N   UNL     1      48.241   3.193  19.509  0.00  0.00    +0.000 NA
ATOM     16  H   UNL     1      48.503   2.364  20.049  0.00  0.00    +0.000 HD
BRANCH  15  17
ATOM     17  C   UNL     1      48.964   3.138  18.224  0.00  0.00    +0.000 C 
BRANCH  17  18
ATOM     18  C   UNL     1      48.019   2.924  17.027  0.00  0.00    +0.000 C 
BRANCH  18  19
ATOM     19  N   UNL     1      46.647   3.300  17.374  0.00  0.00    +0.000 NA
ATOM     20  H   UNL     1      46.145   3.519  16.516  0.00  0.00    +0.000 HD
ATOM     21  H   UNL     1      46.672   4.158  17.924  0.00  0.00    +0.000 HD
ENDBRANCH  18  19
ENDBRANCH  17  18
ENDBRANCH  15  17
ENDBRANCH  14  15
ENDBRANCH   8  14
ENDBRANCH   7  11
ENDBRANCH   1   7
BRANCH   4  22
ATOM     22  C   UNL     1      47.949   7.851  11.646  0.00  0.00    +0.000 C 
BRANCH  22  23
ATOM     23  N   UNL     1      47.089   6.694  11.652  0.00  0.00    +0.000 N 
ATOM     24  C   UNL     1      45.720   6.797  11.677  0.00  0.00    +0.000 C 
ATOM     25  O   UNL     1      45.134   7.875  11.680  0.00  0.00    +0.000 OA
ATOM     26  H   UNL     1      47.478   5.849  12.055  0.00  0.00    +0.000 HD
BRANCH  24  27
ATOM     27  C   UNL     1      44.996   5.521  11.643  0.00  0.00    +0.000 A 
ATOM     28  C   UNL     1      44.256   5.107  12.743  0.00  0.00    +0.000 A 
ATOM     29  S   UNL     1      43.480   3.604  12.513  0.00  0.00    +0.000 S 
ATOM     30  C   UNL     1      44.128   3.442  10.949  0.00  0.00    +0.000 A 
ATOM     31  N   UNL     1      43.880   2.338  10.191  0.00  0.00    +0.000 NA
ATOM     32  C   UNL     1      44.452   2.337   9.043  0.00  0.00    +0.000 A 
ATOM     33  N   UNL     1      45.250   3.348   8.550  0.00  0.00    +0.000 N 
ATOM     34  C   UNL     1      45.474   4.501   9.263  0.00  0.00    +0.000 A 
ATOM     35  O   UNL     1      46.110   5.439   8.769  0.00  0.00    +0.000 OA
ATOM     36  C   UNL     1      44.895   4.535  10.587  0.00  0.00    +0.000 A 
ATOM     37  H   UNL     1      45.637   3.299   7.634  0.00  0.00    +0.000 HD
ENDBRANCH  24  27
ENDBRANCH  22  23
ENDBRANCH   4  22
TORSDOF 10
ENDMDL
MODEL 5
REMARK VINA RESULT:    -6.408      2.098      3.039
REMARK INTER + INTRA:         -11.151
REMARK INTER:                  -9.674
REMARK INTRA:                  -1.477
REMARK UNBOUND:                -1.183
REMARK  Name = 
REMARK  10 active torsions:
REMARK  status: ('A' for Active; 'I' for Inactive)
REMARK    1  A    between atoms: N_1  and  C_2
REMARK    2  A    between atoms: C_2  and  C_3
REMARK    3  A    between atoms: C_3  and  N_4
REMARK    4  A    between atoms: N_4  and  C_5
REMARK    5  A    between atoms: C_5  and  C_6
REMARK    6  A    between atoms: C_9  and  C_10
REMARK    7  A    between atoms: C_10  and  C_11
REMARK    8  A    between atoms: C_14  and  C_15
REMARK    9  A    between atoms: C_15  and  N_16
REMARK   10  A    between atoms: C_17  and  C_19
REMARK                            x       y       z     vdW  Elec       q    Type
REMARK                         _______ _______ _______ _____ _____    ______ ____
ROOT
ATOM      1  C   UNL     1      48.389   7.868  13.602  0.00  0.00    +0.000 A 
ATOM      2  C   UNL     1      47.954   8.557  14.726  0.00  0.00    +0.000 A 
ATOM      3  C   UNL     1      48.844   8.776  15.779  0.00  0.00    +0.000 A 
ATOM      4  C   UNL     1      50.136   8.246  15.724  0.00  0.00    +0.000 A 
ATOM      5  C   UNL     1      50.464   7.525  14.581  0.00  0.00    +0.000 A 
ATOM      6  N   UNL     1      49.633   7.335  13.521  0.00  0.00    +0.000 NA
ENDROOT
BRANCH   1   7
ATOM      7  C   UNL     1      47.483   7.792  12.391  0.00  0.00    +0.000 C 
BRANCH   7  11
ATOM      8  C   UNL     1      44.463   4.780  12.439  0.00  0.00    +0.000 A 
ATOM      9  C   UNL     1      45.562   4.609  13.266  0.00  0.00    +0.000 A 
ATOM     10  C   UNL     1      46.537   5.599  13.297  0.00  0.00    +0.000 A 
ATOM     11  C   UNL     1      46.413   6.726  12.477  0.00  0.00    +0.000 A 
ATOM     12  C   UNL     1      45.270   6.813  11.692  0.00  0.00    +0.000 A 
ATOM     13  N   UNL     1      44.286   5.883  11.667  0.00  0.00    +0.000 NA
BRANCH   8  14
ATOM     14  C   UNL     1      43.365   3.738  12.451  0.00  0.00    +0.000 C 
BRANCH  14  15
ATOM     15  N   UNL     1      42.985   3.292  11.092  0.00  0.00    +0.000 NA
ATOM     16  H   UNL     1      42.201   2.644  11.194  0.00  0.00    +0.000 HD
BRANCH  15  17
ATOM     17  C   UNL     1      44.111   2.544  10.499  0.00  0.00    +0.000 C 
BRANCH  17  18
ATOM     18  C   UNL     1      44.487   3.061   9.098  0.00  0.00    +0.000 C 
BRANCH  18  19
ATOM     19  N   UNL     1      43.924   4.393   8.867  0.00  0.00    +0.000 NA
ATOM     20  H   UNL     1      43.350   4.645   9.669  0.00  0.00    +0.000 HD
ATOM     21  H   UNL     1      43.298   4.348   8.063  0.00  0.00    +0.000 HD
ENDBRANCH  18  19
ENDBRANCH  17  18
ENDBRANCH  15  17
ENDBRANCH  14  15
ENDBRANCH   8  14
ENDBRANCH   7  11
ENDBRANCH   1   7
BRANCH   4  22
ATOM     22  C   UNL     1      51.144   8.412  16.833  0.00  0.00    +0.000 C 
BRANCH  22  23
ATOM     23  N   UNL     1      51.781   7.170  17.197  0.00  0.00    +0.000 N 
ATOM     24  C   UNL     1      51.269   6.337  18.160  0.00  0.00    +0.000 C 
ATOM     25  O   UNL     1      50.229   6.579  18.766  0.00  0.00    +0.000 OA
ATOM     26  H   UNL     1      52.784   7.125  17.059  0.00  0.00    +0.000 HD
BRANCH  24  27
ATOM     27  C   UNL     1      52.023   5.098  18.381  0.00  0.00    +0.000 A 
ATOM     28  C   UNL     1      53.250   5.131  19.032  0.00  0.00    +0.000 A 
ATOM     29  S   UNL     1      53.971   3.593  19.202  0.00  0.00    +0.000 S 
ATOM     30  C   UNL     1      52.685   2.835  18.389  0.00  0.00    +0.000 A 
ATOM     31  N   UNL     1      52.687   1.493  18.156  0.00  0.00    +0.000 NA
ATOM     32  C   UNL     1      51.667   1.058  17.511  0.00  0.00    +0.000 A 
ATOM     33  N   UNL     1      50.612   1.833  17.076  0.00  0.00    +0.000 N 
ATOM     34  C   UNL     1      50.547   3.179  17.344  0.00  0.00    +0.000 A 
ATOM     35  O   UNL     1      49.550   3.841  17.034  0.00  0.00    +0.000 OA
ATOM     36  C   UNL     1      51.696   3.732  18.024  0.00  0.00    +0.000 A 
ATOM     37  H   UNL     1      49.832   1.426  16.609  0.00  0.00    +0.000 HD
ENDBRANCH  24  27
ENDBRANCH  22  23
ENDBRANCH   4  22
TORSDOF 10
ENDMDL
MODEL 6
REMARK VINA RESULT:    -6.242      5.297      6.749
REMARK INTER + INTRA:         -10.892
REMARK INTER:                  -9.933
REMARK INTRA:                  -0.959
REMARK UNBOUND:                -1.183
REMARK  Name = 
REMARK  10 active torsions:
REMARK  status: ('A' for Active; 'I' for Inactive)
REMARK    1  A    between atoms: N_1  and  C_2
REMARK    2  A    between atoms: C_2  and  C_3
REMARK    3  A    between atoms: C_3  and  N_4
REMARK    4  A    between atoms: N_4  and  C_5
REMARK    5  A    between atoms: C_5  and  C_6
REMARK    6  A    between atoms: C_9  and  C_10
REMARK    7  A    between atoms: C_10  and  C_11
REMARK    8  A    between atoms: C_14  and  C_15
REMARK    9  A    between atoms: C_15  and  N_16
REMARK   10  A    between atoms: C_17  and  C_19
REMARK                            x       y       z     vdW  Elec       q    Type
REMARK                         _______ _______ _______ _____ _____    ______ ____
ROOT
ATOM      1  C   UNL     1      47.552   7.672  12.911  0.00  0.00    +0.000 A 
ATOM      2  C   UNL     1      47.788   8.624  11.928  0.00  0.00    +0.000 A 
ATOM      3  C   UNL     1      49.102   8.897  11.546  0.00  0.00    +0.000 A 
ATOM      4  C   UNL     1      50.166   8.264  12.196  0.00  0.00    +0.000 A 
ATOM      5  C   UNL     1      49.832   7.366  13.204  0.00  0.00    +0.000 A 
ATOM      6  N   UNL     1      48.560   7.047  13.566  0.00  0.00    +0.000 NA
ENDROOT
BRANCH   1   7
ATOM      7  C   UNL     1      46.125   7.247  13.193  0.00  0.00    +0.000 C 
BRANCH   7  11
ATOM      8  C   UNL     1      44.636   3.912  10.990  0.00  0.00    +0.000 A 
ATOM      9  C   UNL     1      44.918   5.075  10.292  0.00  0.00    +0.000 A 
ATOM     10  C   UNL     1      45.444   6.160  10.984  0.00  0.00    +0.000 A 
ATOM     11  C   UNL     1      45.648   6.074  12.366  0.00  0.00    +0.000 A 
ATOM     12  C   UNL     1      45.346   4.862  12.973  0.00  0.00    +0.000 A 
ATOM     13  N   UNL     1      44.867   3.776  12.321  0.00  0.00    +0.000 NA
BRANCH   8  14
ATOM     14  C   UNL     1      44.126   2.705  10.232  0.00  0.00    +0.000 C 
BRANCH  14  15
ATOM     15  N   UNL     1      45.219   1.883   9.665  0.00  0.00    +0.000 NA
ATOM     16  H   UNL     1      46.061   2.081  10.211  0.00  0.00    +0.000 HD
BRANCH  15  17
ATOM     17  C   UNL     1      45.473   2.312   8.276  0.00  0.00    +0.000 C 
BRANCH  17  18
ATOM     18  C   UNL     1      46.750   1.680   7.692  0.00  0.00    +0.000 C 
BRANCH  18  19
ATOM     19  N   UNL     1      46.715   0.222   7.818  0.00  0.00    +0.000 NA
ATOM     20  H   UNL     1      47.623  -0.148   7.544  0.00  0.00    +0.000 HD
ATOM     21  H   UNL     1      46.036  -0.147   7.153  0.00  0.00    +0.000 HD
ENDBRANCH  18  19
ENDBRANCH  17  18
ENDBRANCH  15  17
ENDBRANCH  14  15
ENDBRANCH   8  14
ENDBRANCH   7  11
ENDBRANCH   1   7
BRANCH   4  22
ATOM     22  C   UNL     1      51.612   8.529  11.862  0.00  0.00    +0.000 C 
BRANCH  22  23
ATOM     23  N   UNL     1      51.949   8.156  10.511  0.00  0.00    +0.000 N 
ATOM     24  C   UNL     1      52.935   8.790   9.798  0.00  0.00    +0.000 C 
ATOM     25  O   UNL     1      53.609   9.705  10.262  0.00  0.00    +0.000 OA
ATOM     26  H   UNL     1      51.205   7.738   9.963  0.00  0.00    +0.000 HD
BRANCH  24  27
ATOM     27  C   UNL     1      53.172   8.262   8.450  0.00  0.00    +0.000 A 
ATOM     28  C   UNL     1      53.133   9.108   7.349  0.00  0.00    +0.000 A 
ATOM     29  S   UNL     1      53.439   8.312   5.869  0.00  0.00    +0.000 S 
ATOM     30  C   UNL     1      53.607   6.809   6.644  0.00  0.00    +0.000 A 
ATOM     31  N   UNL     1      53.848   5.670   5.937  0.00  0.00    +0.000 NA
ATOM     32  C   UNL     1      53.927   4.604   6.646  0.00  0.00    +0.000 A 
ATOM     33  N   UNL     1      53.803   4.551   8.019  0.00  0.00    +0.000 N 
ATOM     34  C   UNL     1      53.617   5.686   8.771  0.00  0.00    +0.000 A 
ATOM     35  O   UNL     1      53.608   5.635  10.005  0.00  0.00    +0.000 OA
ATOM     36  C   UNL     1      53.470   6.912   8.018  0.00  0.00    +0.000 A 
ATOM     37  H   UNL     1      53.909   3.693   8.512  0.00  0.00    +0.000 HD
ENDBRANCH  24  27
ENDBRANCH  22  23
ENDBRANCH   4  22
TORSDOF 10
ENDMDL
MODEL 7
REMARK VINA RESULT:    -5.645      2.462      3.831
REMARK INTER + INTRA:          -9.963
REMARK INTER:                  -8.871
REMARK INTRA:                  -1.093
REMARK UNBOUND:                -1.183
REMARK  Name = 
REMARK  10 active torsions:
REMARK  status: ('A' for Active; 'I' for Inactive)
REMARK    1  A    between atoms: N_1  and  C_2
REMARK    2  A    between atoms: C_2  and  C_3
REMARK    3  A    between atoms: C_3  and  N_4
REMARK    4  A    between atoms: N_4  and  C_5
REMARK    5  A    between atoms: C_5  and  C_6
REMARK    6  A    between atoms: C_9  and  C_10
REMARK    7  A    between atoms: C_10  and  C_11
REMARK    8  A    between atoms: C_14  and  C_15
REMARK    9  A    between atoms: C_15  and  N_16
REMARK   10  A    between atoms: C_17  and  C_19
REMARK                            x       y       z     vdW  Elec       q    Type
REMARK                         _______ _______ _______ _____ _____    ______ ____
ROOT
ATOM      1  C   UNL     1      48.931   8.554  14.629  0.00  0.00    +0.000 A 
ATOM      2  C   UNL     1      49.545   9.563  15.358  0.00  0.00    +0.000 A 
ATOM      3  C   UNL     1      49.960   9.304  16.665  0.00  0.00    +0.000 A 
ATOM      4  C   UNL     1      49.696   8.061  17.250  0.00  0.00    +0.000 A 
ATOM      5  C   UNL     1      49.029   7.132  16.459  0.00  0.00    +0.000 A 
ATOM      6  N   UNL     1      48.653   7.342  15.168  0.00  0.00    +0.000 NA
ENDROOT
BRANCH   1   7
ATOM      7  C   UNL     1      48.649   8.779  13.157  0.00  0.00    +0.000 C 
BRANCH   7  11
ATOM      8  C   UNL     1      45.288   6.561  11.750  0.00  0.00    +0.000 A 
ATOM      9  C   UNL     1      45.045   7.688  12.519  0.00  0.00    +0.000 A 
ATOM     10  C   UNL     1      46.124   8.448  12.952  0.00  0.00    +0.000 A 
ATOM     11  C   UNL     1      47.429   8.051  12.637  0.00  0.00    +0.000 A 
ATOM     12  C   UNL     1      47.570   6.915  11.851  0.00  0.00    +0.000 A 
ATOM     13  N   UNL     1      46.538   6.174  11.384  0.00  0.00    +0.000 NA
BRANCH   8  14
ATOM     14  C   UNL     1      44.115   5.766  11.218  0.00  0.00    +0.000 C 
BRANCH  14  15
ATOM     15  N   UNL     1      44.413   5.096   9.933  0.00  0.00    +0.000 NA
ATOM     16  H   UNL     1      43.818   5.527   9.222  0.00  0.00    +0.000 HD
BRANCH  15  17
ATOM     17  C   UNL     1      44.034   3.673  10.032  0.00  0.00    +0.000 C 
BRANCH  17  18
ATOM     18  C   UNL     1      44.043   3.164  11.485  0.00  0.00    +0.000 C 
BRANCH  18  19
ATOM     19  N   UNL     1      43.025   2.130  11.680  0.00  0.00    +0.000 NA
ATOM     20  H   UNL     1      42.735   1.785  10.767  0.00  0.00    +0.000 HD
ATOM     21  H   UNL     1      42.202   2.558  12.104  0.00  0.00    +0.000 HD
ENDBRANCH  18  19
ENDBRANCH  17  18
ENDBRANCH  15  17
ENDBRANCH  14  15
ENDBRANCH   8  14
ENDBRANCH   7  11
ENDBRANCH   1   7
BRANCH   4  22
ATOM     22  C   UNL     1      50.083   7.716  18.665  0.00  0.00    +0.000 C 
BRANCH  22  23
ATOM     23  N   UNL     1      50.768   6.451  18.762  0.00  0.00    +0.000 N 
ATOM     24  C   UNL     1      52.080   6.295  18.392  0.00  0.00    +0.000 C 
ATOM     25  O   UNL     1      52.767   7.220  17.969  0.00  0.00    +0.000 OA
ATOM     26  H   UNL     1      50.187   5.622  18.698  0.00  0.00    +0.000 HD
BRANCH  24  27
ATOM     27  C   UNL     1      52.631   4.950  18.589  0.00  0.00    +0.000 A 
ATOM     28  C   UNL     1      53.819   4.774  19.288  0.00  0.00    +0.000 A 
ATOM     29  S   UNL     1      54.295   3.140  19.419  0.00  0.00    +0.000 S 
ATOM     30  C   UNL     1      52.948   2.614  18.524  0.00  0.00    +0.000 A 
ATOM     31  N   UNL     1      52.761   1.297  18.233  0.00  0.00    +0.000 NA
ATOM     32  C   UNL     1      51.718   1.045  17.531  0.00  0.00    +0.000 A 
ATOM     33  N   UNL     1      50.810   1.985  17.090  0.00  0.00    +0.000 N 
ATOM     34  C   UNL     1      50.935   3.315  17.413  0.00  0.00    +0.000 A 
ATOM     35  O   UNL     1      50.062   4.130  17.094  0.00  0.00    +0.000 OA
ATOM     36  C   UNL     1      52.122   3.663  18.161  0.00  0.00    +0.000 A 
ATOM     37  H   UNL     1      50.001   1.717  16.575  0.00  0.00    +0.000 HD
ENDBRANCH  24  27
ENDBRANCH  22  23
ENDBRANCH   4  22
TORSDOF 10
ENDMDL
MODEL 8
REMARK VINA RESULT:    -5.340      5.573      7.439
REMARK INTER + INTRA:          -9.489
REMARK INTER:                  -8.010
REMARK INTRA:                  -1.480
REMARK UNBOUND:                -1.183
REMARK  Name = 
REMARK  10 active torsions:
REMARK  status: ('A' for Active; 'I' for Inactive)
REMARK    1  A    between atoms: N_1  and  C_2
REMARK    2  A    between atoms: C_2  and  C_3
REMARK    3  A    between atoms: C_3  and  N_4
REMARK    4  A    between atoms: N_4  and  C_5
REMARK    5  A    between atoms: C_5  and  C_6
REMARK    6  A    between atoms: C_9  and  C_10
REMARK    7  A    between atoms: C_10  and  C_11
REMARK    8  A    between atoms: C_14  and  C_15
REMARK    9  A    between atoms: C_15  and  N_16
REMARK   10  A    between atoms: C_17  and  C_19
REMARK                            x       y       z     vdW  Elec       q    Type
REMARK                         _______ _______ _______ _____ _____    ______ ____
ROOT
ATOM      1  C   UNL     1      48.308   8.814  13.075  0.00  0.00    +0.000 A 
ATOM      2  C   UNL     1      48.474   9.771  12.083  0.00  0.00    +0.000 A 
ATOM      3  C   UNL     1      49.741   9.969  11.532  0.00  0.00    +0.000 A 
ATOM      4  C   UNL     1      50.838   9.257  12.026  0.00  0.00    +0.000 A 
ATOM      5  C   UNL     1      50.582   8.360  13.057  0.00  0.00    +0.000 A 
ATOM      6  N   UNL     1      49.351   8.113  13.582  0.00  0.00    +0.000 NA
ENDROOT
BRANCH   1   7
ATOM      7  C   UNL     1      46.907   8.473  13.540  0.00  0.00    +0.000 C 
BRANCH   7  11
ATOM      8  C   UNL     1      44.706   5.911  10.935  0.00  0.00    +0.000 A 
ATOM      9  C   UNL     1      44.168   7.154  11.228  0.00  0.00    +0.000 A 
ATOM     10  C   UNL     1      44.888   8.020  12.041  0.00  0.00    +0.000 A 
ATOM     11  C   UNL     1      46.119   7.618  12.573  0.00  0.00    +0.000 A 
ATOM     12  C   UNL     1      46.580   6.358  12.211  0.00  0.00    +0.000 A 
ATOM     13  N   UNL     1      45.919   5.506  11.393  0.00  0.00    +0.000 NA
BRANCH   8  14
ATOM     14  C   UNL     1      43.959   4.988   9.996  0.00  0.00    +0.000 C 
BRANCH  14  15
ATOM     15  N   UNL     1      44.045   3.568  10.401  0.00  0.00    +0.000 NA
ATOM     16  H   UNL     1      43.738   3.006   9.603  0.00  0.00    +0.000 HD
BRANCH  15  17
ATOM     17  C   UNL     1      43.102   3.325  11.510  0.00  0.00    +0.000 C 
BRANCH  17  18
ATOM     18  C   UNL     1      43.811   2.841  12.788  0.00  0.00    +0.000 C 
BRANCH  18  19
ATOM     19  N   UNL     1      45.256   2.740  12.576  0.00  0.00    +0.000 NA
ATOM     20  H   UNL     1      45.441   1.921  12.000  0.00  0.00    +0.000 HD
ATOM     21  H   UNL     1      45.707   2.572  13.475  0.00  0.00    +0.000 HD
ENDBRANCH  18  19
ENDBRANCH  17  18
ENDBRANCH  15  17
ENDBRANCH  14  15
ENDBRANCH   8  14
ENDBRANCH   7  11
ENDBRANCH   1   7
BRANCH   4  22
ATOM     22  C   UNL     1      52.241   9.437  11.506  0.00  0.00    +0.000 C 
BRANCH  22  23
ATOM     23  N   UNL     1      52.434   8.844  10.206  0.00  0.00    +0.000 N 
ATOM     24  C   UNL     1      53.456   9.220   9.371  0.00  0.00    +0.000 C 
ATOM     25  O   UNL     1      54.284  10.073   9.674  0.00  0.00    +0.000 OA
ATOM     26  H   UNL     1      51.603   8.477   9.754  0.00  0.00    +0.000 HD
BRANCH  24  27
ATOM     27  C   UNL     1      53.527   8.489   8.100  0.00  0.00    +0.000 A 
ATOM     28  C   UNL     1      53.503   9.178   6.894  0.00  0.00    +0.000 A 
ATOM     29  S   UNL     1      53.603   8.158   5.528  0.00  0.00    +0.000 S 
ATOM     30  C   UNL     1      53.652   6.763   6.498  0.00  0.00    +0.000 A 
ATOM     31  N   UNL     1      53.706   5.519   5.948  0.00  0.00    +0.000 NA
ATOM     32  C   UNL     1      53.713   4.556   6.796  0.00  0.00    +0.000 A 
ATOM     33  N   UNL     1      53.688   4.705   8.167  0.00  0.00    +0.000 N 
ATOM     34  C   UNL     1      53.692   5.945   8.759  0.00  0.00    +0.000 A 
ATOM     35  O   UNL     1      53.770   6.062   9.987  0.00  0.00    +0.000 OA
ATOM     36  C   UNL     1      53.633   7.066   7.849  0.00  0.00    +0.000 A 
ATOM     37  H   UNL     1      53.729   3.914   8.771  0.00  0.00    +0.000 HD
ENDBRANCH  24  27
ENDBRANCH  22  23
ENDBRANCH   4  22
TORSDOF 10
ENDMDL
MODEL 9
REMARK VINA RESULT:    -5.150      2.485      3.759
REMARK INTER + INTRA:          -9.194
REMARK INTER:                  -7.883
REMARK INTRA:                  -1.310
REMARK UNBOUND:                -1.183
REMARK  Name = 
REMARK  10 active torsions:
REMARK  status: ('A' for Active; 'I' for Inactive)
REMARK    1  A    between atoms: N_1  and  C_2
REMARK    2  A    between atoms: C_2  and  C_3
REMARK    3  A    between atoms: C_3  and  N_4
REMARK    4  A    between atoms: N_4  and  C_5
REMARK    5  A    between atoms: C_5  and  C_6
REMARK    6  A    between atoms: C_9  and  C_10
REMARK    7  A    between atoms: C_10  and  C_11
REMARK    8  A    between atoms: C_14  and  C_15
REMARK    9  A    between atoms: C_15  and  N_16
REMARK   10  A    between atoms: C_17  and  C_19
REMARK                            x       y       z     vdW  Elec       q    Type
REMARK                         _______ _______ _______ _____ _____    ______ ____
ROOT
ATOM      1  C   UNL     1      48.286   8.831  12.807  0.00  0.00    +0.000 A 
ATOM      2  C   UNL     1      48.419   9.256  14.121  0.00  0.00    +0.000 A 
ATOM      3  C   UNL     1      49.695   9.476  14.641  0.00  0.00    +0.000 A 
ATOM      4  C   UNL     1      50.824   9.205  13.862  0.00  0.00    +0.000 A 
ATOM      5  C   UNL     1      50.591   8.732  12.575  0.00  0.00    +0.000 A 
ATOM      6  N   UNL     1      49.359   8.551  12.028  0.00  0.00    +0.000 NA
ENDROOT
BRANCH   1   7
ATOM      7  C   UNL     1      46.903   8.769  12.190  0.00  0.00    +0.000 C 
BRANCH   7  11
ATOM      8  C   UNL     1      44.709   5.170  12.843  0.00  0.00    +0.000 A 
ATOM      9  C   UNL     1      45.989   5.253  13.370  0.00  0.00    +0.000 A 
ATOM     10  C   UNL     1      46.705   6.433  13.205  0.00  0.00    +0.000 A 
ATOM     11  C   UNL     1      46.142   7.496  12.489  0.00  0.00    +0.000 A 
ATOM     12  C   UNL     1      44.850   7.321  12.011  0.00  0.00    +0.000 A 
ATOM     13  N   UNL     1      44.114   6.198  12.186  0.00  0.00    +0.000 NA
BRANCH   8  14
ATOM     14  C   UNL     1      43.899   3.913  13.077  0.00  0.00    +0.000 C 
BRANCH  14  15
ATOM     15  N   UNL     1      44.344   2.780  12.236  0.00  0.00    +0.000 NA
ATOM     16  H   UNL     1      45.352   2.885  12.095  0.00  0.00    +0.000 HD
BRANCH  15  17
ATOM     17  C   UNL     1      43.695   2.878  10.914  0.00  0.00    +0.000 C 
BRANCH  17  18
ATOM     18  C   UNL     1      44.682   3.282   9.804  0.00  0.00    +0.000 C 
BRANCH  18  19
ATOM     19  N   UNL     1      44.096   4.303   8.933  0.00  0.00    +0.000 NA
ATOM     20  H   UNL     1      43.308   3.892   8.438  0.00  0.00    +0.000 HD
ATOM     21  H   UNL     1      44.783   4.561   8.225  0.00  0.00    +0.000 HD
ENDBRANCH  18  19
ENDBRANCH  17  18
ENDBRANCH  15  17
ENDBRANCH  14  15
ENDBRANCH   8  14
ENDBRANCH   7  11
ENDBRANCH   1   7
BRANCH   4  22
ATOM     22  C   UNL     1      52.235   9.387  14.362  0.00  0.00    +0.000 C 
BRANCH  22  23
ATOM     23  N   UNL     1      52.606   8.405  15.351  0.00  0.00    +0.000 N 
ATOM     24  C   UNL     1      53.539   7.430  15.102  0.00  0.00    +0.000 C 
ATOM     25  O   UNL     1      54.131   7.332  14.032  0.00  0.00    +0.000 OA
ATOM     26  H   UNL     1      51.902   8.180  16.045  0.00  0.00    +0.000 HD
BRANCH  24  27
ATOM     27  C   UNL     1      53.824   6.534  16.230  0.00  0.00    +0.000 A 
ATOM     28  C   UNL     1      55.126   6.377  16.688  0.00  0.00    +0.000 A 
ATOM     29  S   UNL     1      55.256   5.303  18.008  0.00  0.00    +0.000 S 
ATOM     30  C   UNL     1      53.585   4.990  17.995  0.00  0.00    +0.000 A 
ATOM     31  N   UNL     1      53.023   4.109  18.868  0.00  0.00    +0.000 NA
ATOM     32  C   UNL     1      51.758   3.950  18.731  0.00  0.00    +0.000 A 
ATOM     33  N   UNL     1      50.970   4.602  17.804  0.00  0.00    +0.000 N 
ATOM     34  C   UNL     1      51.493   5.540  16.947  0.00  0.00    +0.000 A 
ATOM     35  O   UNL     1      50.760   6.187  16.191  0.00  0.00    +0.000 OA
ATOM     36  C   UNL     1      52.925   5.722  17.024  0.00  0.00    +0.000 A 
ATOM     37  H   UNL     1      49.986   4.458  17.773  0.00  0.00    +0.000 HD
ENDBRANCH  24  27
ENDBRANCH  22  23
ENDBRANCH   4  22
TORSDOF 10
ENDMDL
