MODEL 1
REMARK VINA RESULT:    -7.763      0.000      0.000
REMARK INTER + INTRA:         -11.373
REMARK INTER:                 -10.712
REMARK INTRA:                  -0.661
REMARK UNBOUND:                -0.661
REMARK  Name = 
REMARK  8 active torsions:
REMARK  status: ('A' for Active; 'I' for Inactive)
REMARK    1  A    between atoms: C_1  and  O_2
REMARK    2  A    between atoms: O_2  and  C_3
REMARK    3  A    between atoms: C_3  and  C_5
REMARK    4  A    between atoms: C_8  and  O_9
REMARK    5  A    between atoms: O_9  and  C_10
REMARK    6  A    between atoms: C_10  and  C_11
REMARK    7  A    between atoms: C_14  and  C_15
REMARK    8  A    between atoms: C_15  and  N_16
REMARK                            x       y       z     vdW  Elec       q    Type
REMARK                         _______ _______ _______ _____ _____    ______ ____
ROOT
ATOM      1  O   UNL     1      44.377   5.536  10.653  0.00  0.00    +0.000 OA
ENDROOT
BRANCH   1   5
ATOM      2  C   UNL     1      46.639   4.959  14.037  0.00  0.00    +0.000 A 
ATOM      3  C   UNL     1      47.080   5.852  13.064  0.00  0.00    +0.000 A 
ATOM      4  C   UNL     1      46.277   6.057  11.939  0.00  0.00    +0.000 A 
ATOM      5  C   UNL     1      45.077   5.361  11.814  0.00  0.00    +0.000 A 
ATOM      6  C   UNL     1      44.698   4.535  12.865  0.00  0.00    +0.000 A 
ATOM      7  N   UNL     1      45.448   4.311  13.962  0.00  0.00    +0.000 NA
BRANCH   2   8
ATOM      8  C   UNL     1      47.505   4.657  15.215  0.00  0.00    +0.000 C 
ATOM      9  O   UNL     1      48.440   5.354  15.583  0.00  0.00    +0.000 OA
BRANCH   8  11
ATOM     10  C   UNL     1      47.209   3.440  17.205  0.00  0.00    +0.000 C 
ATOM     11  O   UNL     1      47.101   3.493  15.786  0.00  0.00    +0.000 OA
ENDBRANCH   8  11
ENDBRANCH   2   8
ENDBRANCH   1   5
BRANCH   1  12
ATOM     12  C   UNL     1      43.812   4.331  10.119  0.00  0.00    +0.000 C 
BRANCH  12  13
ATOM     13  C   UNL     1      44.791   3.624   9.218  0.00  0.00    +0.000 A 
ATOM     14  C   UNL     1      45.560   4.372   8.315  0.00  0.00    +0.000 A 
ATOM     15  C   UNL     1      46.488   3.749   7.481  0.00  0.00    +0.000 A 
ATOM     16  C   UNL     1      46.671   2.362   7.541  0.00  0.00    +0.000 A 
ATOM     17  C   UNL     1      45.921   1.618   8.462  0.00  0.00    +0.000 A 
ATOM     18  C   UNL     1      44.997   2.243   9.298  0.00  0.00    +0.000 A 
BRANCH  16  19
ATOM     19  C   UNL     1      47.638   1.675   6.610  0.00  0.00    +0.000 C 
BRANCH  19  20
ATOM     20  N   UNL     1      48.675   2.584   6.139  0.00  0.00    +0.000 NA
ATOM     21  H   UNL     1      48.462   2.854   5.180  0.00  0.00    +0.000 HD
ATOM     22  H   UNL     1      49.563   2.089   6.109  0.00  0.00    +0.000 HD
ENDBRANCH  19  20
ENDBRANCH  16  19
ENDBRANCH  12  13
ENDBRANCH   1  12
TORSDOF 7
ENDMDL
MODEL 2
REMARK VINA RESULT:    -7.286      1.197      1.732
REMARK INTER + INTRA:         -10.716
REMARK INTER:                 -10.065
REMARK INTRA:                  -0.651
REMARK UNBOUND:                -0.661
REMARK  Name = 
REMARK  8 active torsions:
REMARK  status: ('A' for Active; 'I' for Inactive)
REMARK    1  A    between atoms: C_1  and  O_2
REMARK    2  A    between atoms: O_2  and  C_3
REMARK    3  A    between atoms: C_3  and  C_5
REMARK    4  A    between atoms: C_8  and  O_9
REMARK    5  A    between atoms: O_9  and  C_10
REMARK    6  A    between atoms: C_10  and  C_11
REMARK    7  A    between atoms: C_14  and  C_15
REMARK    8  A    between atoms: C_15  and  N_16
REMARK                            x       y       z     vdW  Elec       q    Type
REMARK                         _______ _______ _______ _____ _____    ______ ____
ROOT
ATOM      1  O   UNL     1      43.681   3.610  11.324  0.00  0.00    +0.000 OA
ENDROOT
BRANCH   1   5
ATOM      2  C   UNL     1      46.729   4.977  13.720  0.00  0.00    +0.000 A 
ATOM      3  C   UNL     1      45.815   5.885  13.192  0.00  0.00    +0.000 A 
ATOM      4  C   UNL     1      44.768   5.392  12.409  0.00  0.00    +0.000 A 
ATOM      5  C   UNL     1      44.674   4.023  12.168  0.00  0.00    +0.000 A 
ATOM      6  C   UNL     1      45.601   3.194  12.787  0.00  0.00    +0.000 A 
ATOM      7  N   UNL     1      46.625   3.634  13.544  0.00  0.00    +0.000 NA
BRANCH   2   8
ATOM      8  C   UNL     1      47.903   5.473  14.499  0.00  0.00    +0.000 C 
ATOM      9  O   UNL     1      48.106   5.223  15.678  0.00  0.00    +0.000 OA
BRANCH   8  11
ATOM     10  C   UNL     1      49.288   7.366  14.338  0.00  0.00    +0.000 C 
ATOM     11  O   UNL     1      48.680   6.248  13.699  0.00  0.00    +0.000 OA
ENDBRANCH   8  11
ENDBRANCH   2   8
ENDBRANCH   1   5
BRANCH   1  12
ATOM     12  C   UNL     1      43.717   4.222  10.029  0.00  0.00    +0.000 C 
BRANCH  12  13
ATOM     13  C   UNL     1      44.729   3.549   9.137  0.00  0.00    +0.000 A 
ATOM     14  C   UNL     1      45.542   4.332   8.306  0.00  0.00    +0.000 A 
ATOM     15  C   UNL     1      46.501   3.741   7.482  0.00  0.00    +0.000 A 
ATOM     16  C   UNL     1      46.671   2.352   7.483  0.00  0.00    +0.000 A 
ATOM     17  C   UNL     1      45.877   1.571   8.335  0.00  0.00    +0.000 A 
ATOM     18  C   UNL     1      44.921   2.164   9.159  0.00  0.00    +0.000 A 
BRANCH  16  19
ATOM     19  C   UNL     1      47.672   1.701   6.563  0.00  0.00    +0.000 C 
BRANCH  19  20
ATOM     20  N   UNL     1      48.770   2.601   6.233  0.00  0.00    +0.000 NA
ATOM     21  H   UNL     1      49.096   2.388   5.291  0.00  0.00    +0.000 HD
ATOM     22  H   UNL     1      49.550   2.417   6.858  0.00  0.00    +0.000 HD
ENDBRANCH  19  20
ENDBRANCH  16  19
ENDBRANCH  12  13
ENDBRANCH   1  12
TORSDOF 7
ENDMDL
MODEL 3
REMARK VINA RESULT:    -7.145      1.299      2.202
REMARK INTER + INTRA:         -10.520
REMARK INTER:                  -9.876
REMARK INTRA:                  -0.644
REMARK UNBOUND:                -0.661
REMARK  Name = 
REMARK  8 active torsions:
REMARK  status: ('A' for Active; 'I' for Inactive)
REMARK    1  A    between atoms: C_1  and  O_2
REMARK    2  A    between atoms: O_2  and  C_3
REMARK    3  A    between atoms: C_3  and  C_5
REMARK    4  A    between atoms: C_8  and  O_9
REMARK    5  A    between atoms: O_9  and  C_10
REMARK    6  A    between atoms: C_10  and  C_11
REMARK    7  A    between atoms: C_14  and  C_15
REMARK    8  A    between atoms: C_15  and  N_16
REMARK                            x       y       z     vdW  Elec       q    Type
REMARK                         _______ _______ _______ _____ _____    ______ ____
ROOT
ATOM      1  O   UNL     1      43.849   3.944  11.441  0.00  0.00    +0.000 OA
ENDROOT
BRANCH   1   5
ATOM      2  C   UNL     1      47.041   5.313  13.641  0.00  0.00    +0.000 A 
ATOM      3  C   UNL     1      46.778   3.947  13.595  0.00  0.00    +0.000 A 
ATOM      4  C   UNL     1      45.709   3.503  12.812  0.00  0.00    +0.000 A 
ATOM      5  C   UNL     1      44.933   4.428  12.118  0.00  0.00    +0.000 A 
ATOM      6  C   UNL     1      45.311   5.764  12.182  0.00  0.00    +0.000 A 
ATOM      7  N   UNL     1      46.332   6.228  12.929  0.00  0.00    +0.000 NA
BRANCH   2   8
ATOM      8  C   UNL     1      48.127   5.832  14.525  0.00  0.00    +0.000 C 
ATOM      9  O   UNL     1      48.264   5.530  15.701  0.00  0.00    +0.000 OA
BRANCH   8  11
ATOM     10  C   UNL     1      49.869   7.409  14.591  0.00  0.00    +0.000 C 
ATOM     11  O   UNL     1      48.908   6.693  13.823  0.00  0.00    +0.000 OA
ENDBRANCH   8  11
ENDBRANCH   2   8
ENDBRANCH   1   5
BRANCH   1  12
ATOM     12  C   UNL     1      43.758   4.389  10.081  0.00  0.00    +0.000 C 
BRANCH  12  13
ATOM     13  C   UNL     1      44.778   3.696   9.213  0.00  0.00    +0.000 A 
ATOM     14  C   UNL     1      44.890   2.299   9.264  0.00  0.00    +0.000 A 
ATOM     15  C   UNL     1      45.810   1.627   8.461  0.00  0.00    +0.000 A 
ATOM     16  C   UNL     1      46.632   2.341   7.581  0.00  0.00    +0.000 A 
ATOM     17  C   UNL     1      46.501   3.735   7.510  0.00  0.00    +0.000 A 
ATOM     18  C   UNL     1      45.578   4.405   8.312  0.00  0.00    +0.000 A 
BRANCH  16  19
ATOM     19  C   UNL     1      47.662   1.627   6.743  0.00  0.00    +0.000 C 
BRANCH  19  20
ATOM     20  N   UNL     1      48.700   2.535   6.270  0.00  0.00    +0.000 NA
ATOM     21  H   UNL     1      49.582   2.026   6.220  0.00  0.00    +0.000 HD
ATOM     22  H   UNL     1      48.831   3.275   6.954  0.00  0.00    +0.000 HD
ENDBRANCH  19  20
ENDBRANCH  16  19
ENDBRANCH  12  13
ENDBRANCH   1  12
TORSDOF 7
ENDMDL
MODEL 4
REMARK VINA RESULT:    -7.043      2.997      6.579
REMARK INTER + INTRA:         -10.380
REMARK INTER:                 -10.245
REMARK INTRA:                  -0.135
REMARK UNBOUND:                -0.661
REMARK  Name = 
REMARK  8 active torsions:
REMARK  status: ('A' for Active; 'I' for Inactive)
REMARK    1  A    between atoms: C_1  and  O_2
REMARK    2  A    between atoms: O_2  and  C_3
REMARK    3  A    between atoms: C_3  and  C_5
REMARK    4  A    between atoms: C_8  and  O_9
REMARK    5  A    between atoms: O_9  and  C_10
REMARK    6  A    between atoms: C_10  and  C_11
REMARK    7  A    between atoms: C_14  and  C_15
REMARK    8  A    between atoms: C_15  and  N_16
REMARK                            x       y       z     vdW  Elec       q    Type
REMARK                         _______ _______ _______ _____ _____    ______ ____
ROOT
ATOM      1  O   UNL     1      43.617   4.719   9.664  0.00  0.00    +0.000 OA
ENDROOT
BRANCH   1   5
ATOM      2  C   UNL     1      46.252   2.039   7.998  0.00  0.00    +0.000 A 
ATOM      3  C   UNL     1      46.356   3.389   7.676  0.00  0.00    +0.000 A 
ATOM      4  C   UNL     1      45.471   4.285   8.282  0.00  0.00    +0.000 A 
ATOM      5  C   UNL     1      44.510   3.809   9.171  0.00  0.00    +0.000 A 
ATOM      6  C   UNL     1      44.526   2.452   9.471  0.00  0.00    +0.000 A 
ATOM      7  N   UNL     1      45.360   1.560   8.904  0.00  0.00    +0.000 NA
BRANCH   2   8
ATOM      8  C   UNL     1      47.130   1.042   7.315  0.00  0.00    +0.000 C 
ATOM      9  O   UNL     1      46.933  -0.164   7.309  0.00  0.00    +0.000 OA
BRANCH   8  11
ATOM     10  C   UNL     1      47.933   2.168   5.414  0.00  0.00    +0.000 C 
ATOM     11  O   UNL     1      48.174   1.686   6.731  0.00  0.00    +0.000 OA
ENDBRANCH   8  11
ENDBRANCH   2   8
ENDBRANCH   1   5
BRANCH   1  12
ATOM     12  C   UNL     1      43.436   4.654  11.085  0.00  0.00    +0.000 C 
BRANCH  12  13
ATOM     13  C   UNL     1      44.644   5.186  11.812  0.00  0.00    +0.000 A 
ATOM     14  C   UNL     1      45.132   6.462  11.494  0.00  0.00    +0.000 A 
ATOM     15  C   UNL     1      46.238   6.990  12.162  0.00  0.00    +0.000 A 
ATOM     16  C   UNL     1      46.872   6.253  13.169  0.00  0.00    +0.000 A 
ATOM     17  C   UNL     1      46.367   4.989  13.505  0.00  0.00    +0.000 A 
ATOM     18  C   UNL     1      45.260   4.464  12.839  0.00  0.00    +0.000 A 
BRANCH  16  19
ATOM     19  C   UNL     1      48.095   6.796  13.862  0.00  0.00    +0.000 C 
BRANCH  19  20
ATOM     20  N   UNL     1      49.301   6.595  13.070  0.00  0.00    +0.000 NA
ATOM     21  H   UNL     1      49.971   7.328  13.303  0.00  0.00    +0.000 HD
ATOM     22  H   UNL     1      49.076   6.713  12.085  0.00  0.00    +0.000 HD
ENDBRANCH  19  20
ENDBRANCH  16  19
ENDBRANCH  12  13
ENDBRANCH   1  12
TORSDOF 7
ENDMDL
MODEL 5
REMARK VINA RESULT:    -6.395      2.170      3.112
REMARK INTER + INTRA:          -9.486
REMARK INTER:                  -8.889
REMARK INTRA:                  -0.598
REMARK UNBOUND:                -0.661
REMARK  Name = 
REMARK  8 active torsions:
REMARK  status: ('A' for Active; 'I' for Inactive)
REMARK    1  A    between atoms: C_1  and  O_2
REMARK    2  A    between atoms: O_2  and  C_3
REMARK    3  A    between atoms: C_3  and  C_5
REMARK    4  A    between atoms: C_8  and  O_9
REMARK    5  A    between atoms: O_9  and  C_10
REMARK    6  A    between atoms: C_10  and  C_11
REMARK    7  A    between atoms: C_14  and  C_15
REMARK    8  A    between atoms: C_15  and  N_16
REMARK                            x       y       z     vdW  Elec       q    Type
REMARK                         _______ _______ _______ _____ _____    ______ ____
ROOT
ATOM      1  O   UNL     1      44.687   3.723  11.791  0.00  0.00    +0.000 OA
ENDROOT
BRANCH   1   5
ATOM      2  C   UNL     1      46.094   7.511  12.547  0.00  0.00    +0.000 A 
ATOM      3  C   UNL     1      44.854   7.352  11.934  0.00  0.00    +0.000 A 
ATOM      4  C   UNL     1      44.382   6.054  11.719  0.00  0.00    +0.000 A 
ATOM      5  C   UNL     1      45.160   4.966  12.105  0.00  0.00    +0.000 A 
ATOM      6  C   UNL     1      46.356   5.229  12.761  0.00  0.00    +0.000 A 
ATOM      7  N   UNL     1      46.844   6.466  12.981  0.00  0.00    +0.000 NA
BRANCH   2   8
ATOM      8  C   UNL     1      46.664   8.879  12.725  0.00  0.00    +0.000 C 
ATOM      9  O   UNL     1      46.167   9.900  12.272  0.00  0.00    +0.000 OA
BRANCH   8  11
ATOM     10  C   UNL     1      48.496  10.033  13.641  0.00  0.00    +0.000 C 
ATOM     11  O   UNL     1      47.815   8.799  13.441  0.00  0.00    +0.000 OA
ENDBRANCH   8  11
ENDBRANCH   2   8
ENDBRANCH   1   5
BRANCH   1  12
ATOM     12  C   UNL     1      43.925   3.674  10.577  0.00  0.00    +0.000 C 
BRANCH  12  13
ATOM     13  C   UNL     1      44.797   3.313   9.402  0.00  0.00    +0.000 A 
ATOM     14  C   UNL     1      45.237   4.324   8.536  0.00  0.00    +0.000 A 
ATOM     15  C   UNL     1      46.060   4.026   7.450  0.00  0.00    +0.000 A 
ATOM     16  C   UNL     1      46.466   2.707   7.214  0.00  0.00    +0.000 A 
ATOM     17  C   UNL     1      46.047   1.700   8.095  0.00  0.00    +0.000 A 
ATOM     18  C   UNL     1      45.228   2.001   9.183  0.00  0.00    +0.000 A 
BRANCH  16  19
ATOM     19  C   UNL     1      47.317   2.369   6.016  0.00  0.00    +0.000 C 
BRANCH  19  20
ATOM     20  N   UNL     1      48.632   1.878   6.407  0.00  0.00    +0.000 NA
ATOM     21  H   UNL     1      49.338   2.355   5.848  0.00  0.00    +0.000 HD
ATOM     22  H   UNL     1      48.700   0.890   6.178  0.00  0.00    +0.000 HD
ENDBRANCH  19  20
ENDBRANCH  16  19
ENDBRANCH  12  13
ENDBRANCH   1  12
TORSDOF 7
ENDMDL
MODEL 6
REMARK VINA RESULT:    -6.021      3.028      7.708
REMARK INTER + INTRA:          -8.970
REMARK INTER:                  -8.522
REMARK INTRA:                  -0.448
REMARK UNBOUND:                -0.661
REMARK  Name = 
REMARK  8 active torsions:
REMARK  status: ('A' for Active; 'I' for Inactive)
REMARK    1  A    between atoms: C_1  and  O_2
REMARK    2  A    between atoms: O_2  and  C_3
REMARK    3  A    between atoms: C_3  and  C_5
REMARK    4  A    between atoms: C_8  and  O_9
REMARK    5  A    between atoms: O_9  and  C_10
REMARK    6  A    between atoms: C_10  and  C_11
REMARK    7  A    between atoms: C_14  and  C_15
REMARK    8  A    between atoms: C_15  and  N_16
REMARK                            x       y       z     vdW  Elec       q    Type
REMARK                         _______ _______ _______ _____ _____    ______ ____
ROOT
ATOM      1  O   UNL     1      47.647   5.254  14.949  0.00  0.00    +0.000 OA
ENDROOT
BRANCH   1   5
ATOM      2  C   UNL     1      44.891   4.059  12.143  0.00  0.00    +0.000 A 
ATOM      3  C   UNL     1      45.035   5.415  12.426  0.00  0.00    +0.000 A 
ATOM      4  C   UNL     1      46.002   5.799  13.358  0.00  0.00    +0.000 A 
ATOM      5  C   UNL     1      46.779   4.827  13.984  0.00  0.00    +0.000 A 
ATOM      6  C   UNL     1      46.599   3.506  13.591  0.00  0.00    +0.000 A 
ATOM      7  N   UNL     1      45.674   3.100  12.700  0.00  0.00    +0.000 NA
BRANCH   2   8
ATOM      8  C   UNL     1      43.817   3.605  11.209  0.00  0.00    +0.000 C 
ATOM      9  O   UNL     1      43.057   2.675  11.431  0.00  0.00    +0.000 OA
BRANCH   8  11
ATOM     10  C   UNL     1      44.796   3.982   9.105  0.00  0.00    +0.000 C 
ATOM     11  O   UNL     1      43.841   4.370  10.088  0.00  0.00    +0.000 OA
ENDBRANCH   8  11
ENDBRANCH   2   8
ENDBRANCH   1   5
BRANCH   1  12
ATOM     12  C   UNL     1      47.456   4.636  16.228  0.00  0.00    +0.000 C 
BRANCH  12  13
ATOM     13  C   UNL     1      48.695   3.899  16.667  0.00  0.00    +0.000 A 
ATOM     14  C   UNL     1      49.746   4.613  17.261  0.00  0.00    +0.000 A 
ATOM     15  C   UNL     1      50.899   3.958  17.694  0.00  0.00    +0.000 A 
ATOM     16  C   UNL     1      51.018   2.571  17.550  0.00  0.00    +0.000 A 
ATOM     17  C   UNL     1      49.957   1.854  16.981  0.00  0.00    +0.000 A 
ATOM     18  C   UNL     1      48.804   2.510  16.551  0.00  0.00    +0.000 A 
BRANCH  16  19
ATOM     19  C   UNL     1      52.280   1.862  17.973  0.00  0.00    +0.000 C 
BRANCH  19  20
ATOM     20  N   UNL     1      52.070   0.428  18.124  0.00  0.00    +0.000 NA
ATOM     21  H   UNL     1      51.077   0.257  18.276  0.00  0.00    +0.000 HD
ATOM     22  H   UNL     1      52.550   0.108  18.961  0.00  0.00    +0.000 HD
ENDBRANCH  19  20
ENDBRANCH  16  19
ENDBRANCH  12  13
ENDBRANCH   1  12
TORSDOF 7
ENDMDL
MODEL 7
REMARK VINA RESULT:    -5.814      2.517      6.741
REMARK INTER + INTRA:          -8.684
REMARK INTER:                  -8.518
REMARK INTRA:                  -0.166
REMARK UNBOUND:                -0.661
REMARK  Name = 
REMARK  8 active torsions:
REMARK  status: ('A' for Active; 'I' for Inactive)
REMARK    1  A    between atoms: C_1  and  O_2
REMARK    2  A    between atoms: O_2  and  C_3
REMARK    3  A    between atoms: C_3  and  C_5
REMARK    4  A    between atoms: C_8  and  O_9
REMARK    5  A    between atoms: O_9  and  C_10
REMARK    6  A    between atoms: C_10  and  C_11
REMARK    7  A    between atoms: C_14  and  C_15
REMARK    8  A    between atoms: C_15  and  N_16
REMARK                            x       y       z     vdW  Elec       q    Type
REMARK                         _______ _______ _______ _____ _____    ______ ____
ROOT
ATOM      1  O   UNL     1      43.990   4.710  10.125  0.00  0.00    +0.000 OA
ENDROOT
BRANCH   1   5
ATOM      2  C   UNL     1      46.384   2.228   7.886  0.00  0.00    +0.000 A 
ATOM      3  C   UNL     1      45.475   1.674   8.785  0.00  0.00    +0.000 A 
ATOM      4  C   UNL     1      44.649   2.537   9.509  0.00  0.00    +0.000 A 
ATOM      5  C   UNL     1      44.762   3.913   9.326  0.00  0.00    +0.000 A 
ATOM      6  C   UNL     1      45.658   4.365   8.365  0.00  0.00    +0.000 A 
ATOM      7  N   UNL     1      46.473   3.562   7.652  0.00  0.00    +0.000 NA
BRANCH   2   8
ATOM      8  C   UNL     1      47.335   1.342   7.151  0.00  0.00    +0.000 C 
ATOM      9  O   UNL     1      47.951   1.671   6.148  0.00  0.00    +0.000 OA
BRANCH   8  11
ATOM     10  C   UNL     1      46.472  -0.843   7.254  0.00  0.00    +0.000 C 
ATOM     11  O   UNL     1      47.383   0.129   7.758  0.00  0.00    +0.000 OA
ENDBRANCH   8  11
ENDBRANCH   2   8
ENDBRANCH   1   5
BRANCH   1  12
ATOM     12  C   UNL     1      44.668   5.865  10.635  0.00  0.00    +0.000 C 
BRANCH  12  13
ATOM     13  C   UNL     1      45.451   5.531  11.879  0.00  0.00    +0.000 A 
ATOM     14  C   UNL     1      46.549   6.326  12.236  0.00  0.00    +0.000 A 
ATOM     15  C   UNL     1      47.282   6.053  13.391  0.00  0.00    +0.000 A 
ATOM     16  C   UNL     1      46.924   4.982  14.218  0.00  0.00    +0.000 A 
ATOM     17  C   UNL     1      45.809   4.203  13.875  0.00  0.00    +0.000 A 
ATOM     18  C   UNL     1      45.075   4.479  12.722  0.00  0.00    +0.000 A 
BRANCH  16  19
ATOM     19  C   UNL     1      47.739   4.652  15.442  0.00  0.00    +0.000 C 
BRANCH  19  20
ATOM     20  N   UNL     1      47.764   3.219  15.706  0.00  0.00    +0.000 NA
ATOM     21  H   UNL     1      48.571   2.813  15.234  0.00  0.00    +0.000 HD
ATOM     22  H   UNL     1      46.940   2.790  15.292  0.00  0.00    +0.000 HD
ENDBRANCH  19  20
ENDBRANCH  16  19
ENDBRANCH  12  13
ENDBRANCH   1  12
TORSDOF 7
ENDMDL
MODEL 8
REMARK VINA RESULT:    -5.316      3.827      6.450
REMARK INTER + INTRA:          -7.997
REMARK INTER:                  -7.565
REMARK INTRA:                  -0.431
REMARK UNBOUND:                -0.661
REMARK  Name = 
REMARK  8 active torsions:
REMARK  status: ('A' for Active; 'I' for Inactive)
REMARK    1  A    between atoms: C_1  and  O_2
REMARK    2  A    between atoms: O_2  and  C_3
REMARK    3  A    between atoms: C_3  and  C_5
REMARK    4  A    between atoms: C_8  and  O_9
REMARK    5  A    between atoms: O_9  and  C_10
REMARK    6  A    between atoms: C_10  and  C_11
REMARK    7  A    between atoms: C_14  and  C_15
REMARK    8  A    between atoms: C_15  and  N_16
REMARK                            x       y       z     vdW  Elec       q    Type
REMARK                         _______ _______ _______ _____ _____    ______ ____
ROOT
ATOM      1  O   UNL     1      46.957   6.785  13.522  0.00  0.00    +0.000 OA
ENDROOT
BRANCH   1   5
ATOM      2  C   UNL     1      44.658   3.947  11.635  0.00  0.00    +0.000 A 
ATOM      3  C   UNL     1      44.873   5.175  11.016  0.00  0.00    +0.000 A 
ATOM      4  C   UNL     1      45.686   6.110  11.661  0.00  0.00    +0.000 A 
ATOM      5  C   UNL     1      46.243   5.800  12.900  0.00  0.00    +0.000 A 
ATOM      6  C   UNL     1      46.016   4.527  13.408  0.00  0.00    +0.000 A 
ATOM      7  N   UNL     1      45.235   3.602  12.816  0.00  0.00    +0.000 NA
BRANCH   2   8
ATOM      8  C   UNL     1      43.734   2.952  11.012  0.00  0.00    +0.000 C 
ATOM      9  O   UNL     1      42.966   2.236  11.638  0.00  0.00    +0.000 OA
BRANCH   8  11
ATOM     10  C   UNL     1      44.860   2.035   9.164  0.00  0.00    +0.000 C 
ATOM     11  O   UNL     1      43.903   2.962   9.665  0.00  0.00    +0.000 OA
ENDBRANCH   8  11
ENDBRANCH   2   8
ENDBRANCH   1   5
BRANCH   1  12
ATOM     12  C   UNL     1      46.901   8.057  12.865  0.00  0.00    +0.000 C 
BRANCH  12  13
ATOM     13  C   UNL     1      48.230   8.410  12.248  0.00  0.00    +0.000 A 
ATOM     14  C   UNL     1      48.487   9.738  11.878  0.00  0.00    +0.000 A 
ATOM     15  C   UNL     1      49.714  10.100  11.322  0.00  0.00    +0.000 A 
ATOM     16  C   UNL     1      50.714   9.138  11.134  0.00  0.00    +0.000 A 
ATOM     17  C   UNL     1      50.467   7.816  11.528  0.00  0.00    +0.000 A 
ATOM     18  C   UNL     1      49.241   7.457  12.087  0.00  0.00    +0.000 A 
BRANCH  16  19
ATOM     19  C   UNL     1      52.025   9.512  10.490  0.00  0.00    +0.000 C 
BRANCH  19  20
ATOM     20  N   UNL     1      52.028  10.894  10.029  0.00  0.00    +0.000 NA
ATOM     21  H   UNL     1      51.233  11.032   9.406  0.00  0.00    +0.000 HD
ATOM     22  H   UNL     1      52.863  11.057   9.472  0.00  0.00    +0.000 HD
ENDBRANCH  19  20
ENDBRANCH  16  19
ENDBRANCH  12  13
ENDBRANCH   1  12
TORSDOF 7
ENDMDL
MODEL 9
REMARK VINA RESULT:    -5.288      2.599      7.983
REMARK INTER + INTRA:          -7.959
REMARK INTER:                  -7.673
REMARK INTRA:                  -0.286
REMARK UNBOUND:                -0.661
REMARK  Name = 
REMARK  8 active torsions:
REMARK  status: ('A' for Active; 'I' for Inactive)
REMARK    1  A    between atoms: C_1  and  O_2
REMARK    2  A    between atoms: O_2  and  C_3
REMARK    3  A    between atoms: C_3  and  C_5
REMARK    4  A    between atoms: C_8  and  O_9
REMARK    5  A    between atoms: O_9  and  C_10
REMARK    6  A    between atoms: C_10  and  C_11
REMARK    7  A    between atoms: C_14  and  C_15
REMARK    8  A    between atoms: C_15  and  N_16
REMARK                            x       y       z     vdW  Elec       q    Type
REMARK                         _______ _______ _______ _____ _____    ______ ____
ROOT
ATOM      1  O   UNL     1      47.086   6.676  13.926  0.00  0.00    +0.000 OA
ENDROOT
BRANCH   1   5
ATOM      2  C   UNL     1      44.838   4.093  11.650  0.00  0.00    +0.000 A 
ATOM      3  C   UNL     1      45.358   5.245  11.065  0.00  0.00    +0.000 A 
ATOM      4  C   UNL     1      46.147   6.089  11.850  0.00  0.00    +0.000 A 
ATOM      5  C   UNL     1      46.380   5.769  13.185  0.00  0.00    +0.000 A 
ATOM      6  C   UNL     1      45.866   4.569  13.660  0.00  0.00    +0.000 A 
ATOM      7  N   UNL     1      45.098   3.733  12.934  0.00  0.00    +0.000 NA
BRANCH   2   8
ATOM      8  C   UNL     1      43.929   3.206  10.865  0.00  0.00    +0.000 C 
ATOM      9  O   UNL     1      43.034   2.530  11.350  0.00  0.00    +0.000 OA
BRANCH   8  11
ATOM     10  C   UNL     1      44.930   2.103   9.045  0.00  0.00    +0.000 C 
ATOM     11  O   UNL     1      44.270   3.259   9.552  0.00  0.00    +0.000 OA
ENDBRANCH   8  11
ENDBRANCH   2   8
ENDBRANCH   1   5
BRANCH   1  12
ATOM     12  C   UNL     1      48.350   6.193  14.398  0.00  0.00    +0.000 C 
BRANCH  12  13
ATOM     13  C   UNL     1      48.310   5.922  15.880  0.00  0.00    +0.000 A 
ATOM     14  C   UNL     1      48.662   6.942  16.776  0.00  0.00    +0.000 A 
ATOM     15  C   UNL     1      48.618   6.728  18.154  0.00  0.00    +0.000 A 
ATOM     16  C   UNL     1      48.210   5.490  18.663  0.00  0.00    +0.000 A 
ATOM     17  C   UNL     1      47.831   4.479  17.768  0.00  0.00    +0.000 A 
ATOM     18  C   UNL     1      47.873   4.696  16.391  0.00  0.00    +0.000 A 
BRANCH  16  19
ATOM     19  C   UNL     1      48.203   5.236  20.149  0.00  0.00    +0.000 C 
BRANCH  19  20
ATOM     20  N   UNL     1      48.444   3.833  20.459  0.00  0.00    +0.000 NA
ATOM     21  H   UNL     1      49.099   3.454  19.776  0.00  0.00    +0.000 HD
ATOM     22  H   UNL     1      47.577   3.313  20.347  0.00  0.00    +0.000 HD
ENDBRANCH  19  20
ENDBRANCH  16  19
ENDBRANCH  12  13
ENDBRANCH   1  12
TORSDOF 7
ENDMDL
