MODEL 1
REMARK VINA RESULT:    -8.420      0.000      0.000
REMARK INTER + INTRA:         -11.250
REMARK INTER:                 -10.882
REMARK INTRA:                  -0.369
REMARK UNBOUND:                -0.369
REMARK  Name = 
REMARK  6 active torsions:
REMARK  status: ('A' for Active; 'I' for Inactive)
REMARK    1  A    between atoms: C_1  and  O_2
REMARK    2  A    between atoms: O_2  and  C_3
REMARK    3  A    between atoms: C_5  and  C_6
REMARK    4  A    between atoms: N_11  and  C_12
REMARK    5  A    between atoms: C_12  and  C_13
REMARK    6  A    between atoms: C_15  and  C_16
REMARK                            x       y       z     vdW  Elec       q    Type
REMARK                         _______ _______ _______ _____ _____    ______ ____
ROOT
ATOM      1  C   UNL     1      47.413   7.818  13.268  0.00  0.00    +0.000 A 
ATOM      2  C   UNL     1      47.644   6.689  14.000  0.00  0.00    +0.000 A 
ATOM      3  C   UNL     1      46.819   5.639  13.685  0.00  0.00    +0.000 A 
ATOM      4  N   UNL     1      45.853   5.681  12.733  0.00  0.00    +0.000 NA
ATOM      5  C   UNL     1      45.733   6.830  12.066  0.00  0.00    +0.000 A 
ATOM      6  N   UNL     1      44.840   6.945  11.024  0.00  0.00    +0.000 N 
ATOM      7  N   UNL     1      46.473   7.911  12.310  0.00  0.00    +0.000 NA
ATOM      8  H   UNL     1      44.697   7.930  10.828  0.00  0.00    +0.000 HD
ENDROOT
BRANCH   3   9
ATOM      9  C   UNL     1      46.968   4.346  14.415  0.00  0.00    +0.000 C 
ATOM     10  N   UNL     1      46.814   4.417  15.775  0.00  0.00    +0.000 N 
ATOM     11  O   UNL     1      47.208   3.289  13.849  0.00  0.00    +0.000 OA
ATOM     12  H   UNL     1      46.547   5.291  16.210  0.00  0.00    +0.000 HD
ATOM     13  H   UNL     1      46.858   3.567  16.322  0.00  0.00    +0.000 HD
ENDBRANCH   3   9
BRANCH   1  15
ATOM     14  C   UNL     1      48.092   9.948  12.578  0.00  0.00    +0.000 C 
ATOM     15  O   UNL     1      48.212   8.909  13.546  0.00  0.00    +0.000 OA
ENDBRANCH   1  15
BRANCH   6  16
ATOM     16  C   UNL     1      43.616   6.166  11.082  0.00  0.00    +0.000 C 
BRANCH  16  17
ATOM     17  C   UNL     1      43.855   4.719  10.698  0.00  0.00    +0.000 A 
ATOM     18  C   UNL     1      44.689   4.401   9.626  0.00  0.00    +0.000 A 
ATOM     19  C   UNL     1      44.923   3.059   9.285  0.00  0.00    +0.000 A 
ATOM     20  C   UNL     1      44.283   2.089  10.066  0.00  0.00    +0.000 A 
ATOM     21  C   UNL     1      43.473   2.483  11.119  0.00  0.00    +0.000 A 
ATOM     22  N   UNL     1      43.255   3.769  11.456  0.00  0.00    +0.000 NA
BRANCH  19  23
ATOM     23  C   UNL     1      45.805   2.689   8.156  0.00  0.00    +0.000 A 
ATOM     24  C   UNL     1      46.118   3.584   7.122  0.00  0.00    +0.000 A 
ATOM     25  C   UNL     1      46.951   3.199   6.071  0.00  0.00    +0.000 A 
ATOM     26  C   UNL     1      47.471   1.919   6.079  0.00  0.00    +0.000 A 
ATOM     27  N   UNL     1      47.208   1.018   7.046  0.00  0.00    +0.000 NA
ATOM     28  C   UNL     1      46.386   1.421   8.047  0.00  0.00    +0.000 A 
ENDBRANCH  19  23
ENDBRANCH  16  17
ENDBRANCH   6  16
TORSDOF 5
ENDMDL
MODEL 2
REMARK VINA RESULT:    -8.035      2.969      4.697
REMARK INTER + INTRA:         -10.753
REMARK INTER:                 -10.229
REMARK INTRA:                  -0.523
REMARK UNBOUND:                -0.369
REMARK  Name = 
REMARK  6 active torsions:
REMARK  status: ('A' for Active; 'I' for Inactive)
REMARK    1  A    between atoms: C_1  and  O_2
REMARK    2  A    between atoms: O_2  and  C_3
REMARK    3  A    between atoms: C_5  and  C_6
REMARK    4  A    between atoms: N_11  and  C_12
REMARK    5  A    between atoms: C_12  and  C_13
REMARK    6  A    between atoms: C_15  and  C_16
REMARK                            x       y       z     vdW  Elec       q    Type
REMARK                         _______ _______ _______ _____ _____    ______ ____
ROOT
ATOM      1  C   UNL     1      49.217   2.477  16.703  0.00  0.00    +0.000 A 
ATOM      2  C   UNL     1      49.100   3.208  17.851  0.00  0.00    +0.000 A 
ATOM      3  C   UNL     1      48.115   4.161  17.808  0.00  0.00    +0.000 A 
ATOM      4  N   UNL     1      47.307   4.384  16.741  0.00  0.00    +0.000 NA
ATOM      5  C   UNL     1      47.498   3.594  15.683  0.00  0.00    +0.000 A 
ATOM      6  N   UNL     1      46.674   3.685  14.584  0.00  0.00    +0.000 N 
ATOM      7  N   UNL     1      48.439   2.652  15.619  0.00  0.00    +0.000 NA
ATOM      8  H   UNL     1      47.124   3.219  13.803  0.00  0.00    +0.000 HD
ENDROOT
BRANCH   3   9
ATOM      9  C   UNL     1      47.885   5.030  19.000  0.00  0.00    +0.000 C 
ATOM     10  N   UNL     1      48.257   4.490  20.203  0.00  0.00    +0.000 N 
ATOM     11  O   UNL     1      47.401   6.151  18.919  0.00  0.00    +0.000 OA
ATOM     12  H   UNL     1      48.720   3.590  20.233  0.00  0.00    +0.000 HD
ATOM     13  H   UNL     1      48.170   5.047  21.042  0.00  0.00    +0.000 HD
ENDBRANCH   3   9
BRANCH   1  15
ATOM     14  C   UNL     1      51.369   1.884  17.402  0.00  0.00    +0.000 C 
ATOM     15  O   UNL     1      50.197   1.504  16.687  0.00  0.00    +0.000 OA
ENDBRANCH   1  15
BRANCH   6  16
ATOM     16  C   UNL     1      46.106   4.980  14.257  0.00  0.00    +0.000 C 
BRANCH  16  17
ATOM     17  C   UNL     1      45.219   4.909  13.030  0.00  0.00    +0.000 A 
ATOM     18  C   UNL     1      45.706   4.375  11.836  0.00  0.00    +0.000 A 
ATOM     19  C   UNL     1      44.876   4.293  10.707  0.00  0.00    +0.000 A 
ATOM     20  C   UNL     1      43.566   4.770  10.850  0.00  0.00    +0.000 A 
ATOM     21  C   UNL     1      43.154   5.282  12.070  0.00  0.00    +0.000 A 
ATOM     22  N   UNL     1      43.944   5.352  13.159  0.00  0.00    +0.000 NA
BRANCH  19  23
ATOM     23  C   UNL     1      45.360   3.728   9.428  0.00  0.00    +0.000 A 
ATOM     24  C   UNL     1      45.406   2.347   9.185  0.00  0.00    +0.000 A 
ATOM     25  C   UNL     1      45.872   1.851   7.968  0.00  0.00    +0.000 A 
ATOM     26  C   UNL     1      46.278   2.752   7.002  0.00  0.00    +0.000 A 
ATOM     27  N   UNL     1      46.254   4.087   7.177  0.00  0.00    +0.000 NA
ATOM     28  C   UNL     1      45.805   4.536   8.376  0.00  0.00    +0.000 A 
ENDBRANCH  19  23
ENDBRANCH  16  17
ENDBRANCH   6  16
TORSDOF 5
ENDMDL
MODEL 3
REMARK VINA RESULT:    -7.950      1.433      2.842
REMARK INTER + INTRA:         -10.643
REMARK INTER:                  -9.840
REMARK INTRA:                  -0.803
REMARK UNBOUND:                -0.369
REMARK  Name = 
REMARK  6 active torsions:
REMARK  status: ('A' for Active; 'I' for Inactive)
REMARK    1  A    between atoms: C_1  and  O_2
REMARK    2  A    between atoms: O_2  and  C_3
REMARK    3  A    between atoms: C_5  and  C_6
REMARK    4  A    between atoms: N_11  and  C_12
REMARK    5  A    between atoms: C_12  and  C_13
REMARK    6  A    between atoms: C_15  and  C_16
REMARK                            x       y       z     vdW  Elec       q    Type
REMARK                         _______ _______ _______ _____ _____    ______ ____
ROOT
ATOM      1  C   UNL     1      47.560   5.674  14.480  0.00  0.00    +0.000 A 
ATOM      2  C   UNL     1      48.525   6.410  13.854  0.00  0.00    +0.000 A 
ATOM      3  C   UNL     1      48.120   6.970  12.669  0.00  0.00    +0.000 A 
ATOM      4  N   UNL     1      46.879   6.829  12.138  0.00  0.00    +0.000 NA
ATOM      5  C   UNL     1      46.012   6.105  12.848  0.00  0.00    +0.000 A 
ATOM      6  N   UNL     1      44.705   5.974  12.437  0.00  0.00    +0.000 N 
ATOM      7  N   UNL     1      46.314   5.507  14.001  0.00  0.00    +0.000 NA
ATOM      8  H   UNL     1      44.286   5.195  12.933  0.00  0.00    +0.000 HD
ENDROOT
BRANCH   3   9
ATOM      9  C   UNL     1      49.081   7.798  11.884  0.00  0.00    +0.000 C 
ATOM     10  N   UNL     1      50.333   7.262  11.732  0.00  0.00    +0.000 N 
ATOM     11  O   UNL     1      48.783   8.882  11.403  0.00  0.00    +0.000 OA
ATOM     12  H   UNL     1      50.532   6.332  12.080  0.00  0.00    +0.000 HD
ATOM     13  H   UNL     1      51.016   7.753  11.172  0.00  0.00    +0.000 HD
ENDBRANCH   3   9
BRANCH   1  15
ATOM     14  C   UNL     1      47.564   3.702  15.740  0.00  0.00    +0.000 C 
ATOM     15  O   UNL     1      47.913   5.082  15.677  0.00  0.00    +0.000 OA
ENDBRANCH   1  15
BRANCH   6  16
ATOM     16  C   UNL     1      44.431   5.989  11.012  0.00  0.00    +0.000 C 
BRANCH  16  17
ATOM     17  C   UNL     1      44.490   4.595  10.417  0.00  0.00    +0.000 A 
ATOM     18  C   UNL     1      45.309   4.330   9.318  0.00  0.00    +0.000 A 
ATOM     19  C   UNL     1      45.376   3.035   8.781  0.00  0.00    +0.000 A 
ATOM     20  C   UNL     1      44.590   2.054   9.400  0.00  0.00    +0.000 A 
ATOM     21  C   UNL     1      43.805   2.393  10.491  0.00  0.00    +0.000 A 
ATOM     22  N   UNL     1      43.747   3.633  11.016  0.00  0.00    +0.000 NA
BRANCH  19  23
ATOM     23  C   UNL     1      46.237   2.721   7.620  0.00  0.00    +0.000 A 
ATOM     24  C   UNL     1      46.321   3.560   6.498  0.00  0.00    +0.000 A 
ATOM     25  C   UNL     1      47.142   3.230   5.419  0.00  0.00    +0.000 A 
ATOM     26  C   UNL     1      47.879   2.063   5.487  0.00  0.00    +0.000 A 
ATOM     27  N   UNL     1      47.841   1.221   6.537  0.00  0.00    +0.000 NA
ATOM     28  C   UNL     1      47.024   1.566   7.565  0.00  0.00    +0.000 A 
ENDBRANCH  19  23
ENDBRANCH  16  17
ENDBRANCH   6  16
TORSDOF 5
ENDMDL
MODEL 4
REMARK VINA RESULT:    -7.724      2.154      2.860
REMARK INTER + INTRA:         -10.350
REMARK INTER:                  -9.801
REMARK INTRA:                  -0.549
REMARK UNBOUND:                -0.369
REMARK  Name = 
REMARK  6 active torsions:
REMARK  status: ('A' for Active; 'I' for Inactive)
REMARK    1  A    between atoms: C_1  and  O_2
REMARK    2  A    between atoms: O_2  and  C_3
REMARK    3  A    between atoms: C_5  and  C_6
REMARK    4  A    between atoms: N_11  and  C_12
REMARK    5  A    between atoms: C_12  and  C_13
REMARK    6  A    between atoms: C_15  and  C_16
REMARK                            x       y       z     vdW  Elec       q    Type
REMARK                         _______ _______ _______ _____ _____    ______ ____
ROOT
ATOM      1  C   UNL     1      48.936   6.097  16.061  0.00  0.00    +0.000 A 
ATOM      2  C   UNL     1      48.769   5.200  17.077  0.00  0.00    +0.000 A 
ATOM      3  C   UNL     1      47.825   4.238  16.824  0.00  0.00    +0.000 A 
ATOM      4  N   UNL     1      47.105   4.151  15.677  0.00  0.00    +0.000 NA
ATOM      5  C   UNL     1      47.369   5.069  14.745  0.00  0.00    +0.000 A 
ATOM      6  N   UNL     1      46.754   5.015  13.515  0.00  0.00    +0.000 N 
ATOM      7  N   UNL     1      48.254   6.054  14.903  0.00  0.00    +0.000 NA
ATOM      8  H   UNL     1      46.864   5.914  13.058  0.00  0.00    +0.000 HD
ENDROOT
BRANCH   3   9
ATOM      9  C   UNL     1      47.545   3.197  17.856  0.00  0.00    +0.000 C 
ATOM     10  N   UNL     1      48.364   3.222  18.955  0.00  0.00    +0.000 N 
ATOM     11  O   UNL     1      46.648   2.374  17.741  0.00  0.00    +0.000 OA
ATOM     12  H   UNL     1      49.052   3.958  19.057  0.00  0.00    +0.000 HD
ATOM     13  H   UNL     1      48.196   2.572  19.711  0.00  0.00    +0.000 HD
ENDBRANCH   3   9
BRANCH   1  15
ATOM     14  C   UNL     1      50.625   7.394  15.091  0.00  0.00    +0.000 C 
ATOM     15  O   UNL     1      49.871   7.093  16.263  0.00  0.00    +0.000 OA
ENDBRANCH   1  15
BRANCH   6  16
ATOM     16  C   UNL     1      45.409   4.474  13.444  0.00  0.00    +0.000 C 
BRANCH  16  17
ATOM     17  C   UNL     1      44.880   4.473  12.023  0.00  0.00    +0.000 A 
ATOM     18  C   UNL     1      45.562   3.788  11.017  0.00  0.00    +0.000 A 
ATOM     19  C   UNL     1      45.059   3.773   9.706  0.00  0.00    +0.000 A 
ATOM     20  C   UNL     1      43.866   4.471   9.479  0.00  0.00    +0.000 A 
ATOM     21  C   UNL     1      43.244   5.123  10.533  0.00  0.00    +0.000 A 
ATOM     22  N   UNL     1      43.717   5.130  11.794  0.00  0.00    +0.000 NA
BRANCH  19  23
ATOM     23  C   UNL     1      45.756   3.054   8.617  0.00  0.00    +0.000 A 
ATOM     24  C   UNL     1      46.305   3.717   7.509  0.00  0.00    +0.000 A 
ATOM     25  C   UNL     1      46.953   3.005   6.499  0.00  0.00    +0.000 A 
ATOM     26  C   UNL     1      47.052   1.632   6.622  0.00  0.00    +0.000 A 
ATOM     27  N   UNL     1      46.548   0.943   7.663  0.00  0.00    +0.000 NA
ATOM     28  C   UNL     1      45.914   1.664   8.622  0.00  0.00    +0.000 A 
ENDBRANCH  19  23
ENDBRANCH  16  17
ENDBRANCH   6  16
TORSDOF 5
ENDMDL
MODEL 5
REMARK VINA RESULT:    -7.360      3.316      5.840
REMARK INTER + INTRA:          -9.880
REMARK INTER:                  -9.067
REMARK INTRA:                  -0.814
REMARK UNBOUND:                -0.369
REMARK  Name = 
REMARK  6 active torsions:
REMARK  status: ('A' for Active; 'I' for Inactive)
REMARK    1  A    between atoms: C_1  and  O_2
REMARK    2  A    between atoms: O_2  and  C_3
REMARK    3  A    between atoms: C_5  and  C_6
REMARK    4  A    between atoms: N_11  and  C_12
REMARK    5  A    between atoms: C_12  and  C_13
REMARK    6  A    between atoms: C_15  and  C_16
REMARK                            x       y       z     vdW  Elec       q    Type
REMARK                         _______ _______ _______ _____ _____    ______ ____
ROOT
ATOM      1  C   UNL     1      48.095   5.341  18.791  0.00  0.00    +0.000 A 
ATOM      2  C   UNL     1      48.534   4.065  18.576  0.00  0.00    +0.000 A 
ATOM      3  C   UNL     1      49.164   3.886  17.371  0.00  0.00    +0.000 A 
ATOM      4  N   UNL     1      49.356   4.866  16.452  0.00  0.00    +0.000 NA
ATOM      5  C   UNL     1      48.905   6.078  16.780  0.00  0.00    +0.000 A 
ATOM      6  N   UNL     1      49.128   7.156  15.952  0.00  0.00    +0.000 N 
ATOM      7  N   UNL     1      48.265   6.349  17.917  0.00  0.00    +0.000 NA
ATOM      8  H   UNL     1      48.499   7.905  16.221  0.00  0.00    +0.000 HD
ENDROOT
BRANCH   3   9
ATOM      9  C   UNL     1      49.689   2.536  17.013  0.00  0.00    +0.000 C 
ATOM     10  N   UNL     1      50.732   2.087  17.780  0.00  0.00    +0.000 N 
ATOM     11  O   UNL     1      49.226   1.866  16.100  0.00  0.00    +0.000 OA
ATOM     12  H   UNL     1      51.048   2.631  18.572  0.00  0.00    +0.000 HD
ATOM     13  H   UNL     1      51.102   1.160  17.616  0.00  0.00    +0.000 HD
ENDBRANCH   3   9
BRANCH   1  15
ATOM     14  C   UNL     1      47.598   6.920  20.444  0.00  0.00    +0.000 C 
ATOM     15  O   UNL     1      47.449   5.578  19.987  0.00  0.00    +0.000 OA
ENDBRANCH   1  15
BRANCH   6  16
ATOM     16  C   UNL     1      49.194   6.919  14.522  0.00  0.00    +0.000 C 
BRANCH  16  17
ATOM     17  C   UNL     1      47.847   7.127  13.857  0.00  0.00    +0.000 A 
ATOM     18  C   UNL     1      47.127   6.038  13.366  0.00  0.00    +0.000 A 
ATOM     19  C   UNL     1      45.871   6.231  12.768  0.00  0.00    +0.000 A 
ATOM     20  C   UNL     1      45.403   7.550  12.696  0.00  0.00    +0.000 A 
ATOM     21  C   UNL     1      46.175   8.579  13.212  0.00  0.00    +0.000 A 
ATOM     22  N   UNL     1      47.374   8.396  13.797  0.00  0.00    +0.000 NA
BRANCH  19  23
ATOM     23  C   UNL     1      45.081   5.097  12.240  0.00  0.00    +0.000 A 
ATOM     24  C   UNL     1      44.944   4.851  10.866  0.00  0.00    +0.000 A 
ATOM     25  C   UNL     1      44.189   3.773  10.404  0.00  0.00    +0.000 A 
ATOM     26  C   UNL     1      43.587   2.946  11.334  0.00  0.00    +0.000 A 
ATOM     27  N   UNL     1      43.685   3.131  12.664  0.00  0.00    +0.000 NA
ATOM     28  C   UNL     1      44.418   4.195  13.079  0.00  0.00    +0.000 A 
ENDBRANCH  19  23
ENDBRANCH  16  17
ENDBRANCH   6  16
TORSDOF 5
ENDMDL
MODEL 6
REMARK VINA RESULT:    -7.267      2.643      6.937
REMARK INTER + INTRA:          -9.759
REMARK INTER:                  -8.919
REMARK INTRA:                  -0.841
REMARK UNBOUND:                -0.369
REMARK  Name = 
REMARK  6 active torsions:
REMARK  status: ('A' for Active; 'I' for Inactive)
REMARK    1  A    between atoms: C_1  and  O_2
REMARK    2  A    between atoms: O_2  and  C_3
REMARK    3  A    between atoms: C_5  and  C_6
REMARK    4  A    between atoms: N_11  and  C_12
REMARK    5  A    between atoms: C_12  and  C_13
REMARK    6  A    between atoms: C_15  and  C_16
REMARK                            x       y       z     vdW  Elec       q    Type
REMARK                         _______ _______ _______ _____ _____    ______ ____
ROOT
ATOM      1  C   UNL     1      45.479   3.480   8.841  0.00  0.00    +0.000 A 
ATOM      2  C   UNL     1      44.777   2.671   9.690  0.00  0.00    +0.000 A 
ATOM      3  C   UNL     1      44.239   3.326  10.768  0.00  0.00    +0.000 A 
ATOM      4  N   UNL     1      44.369   4.656  11.003  0.00  0.00    +0.000 NA
ATOM      5  C   UNL     1      45.058   5.350  10.094  0.00  0.00    +0.000 A 
ATOM      6  N   UNL     1      45.173   6.718  10.197  0.00  0.00    +0.000 N 
ATOM      7  N   UNL     1      45.633   4.803   9.023  0.00  0.00    +0.000 NA
ATOM      8  H   UNL     1      45.931   7.024   9.597  0.00  0.00    +0.000 HD
ENDROOT
BRANCH   3   9
ATOM      9  C   UNL     1      43.450   2.556  11.774  0.00  0.00    +0.000 C 
ATOM     10  N   UNL     1      43.546   3.002  13.066  0.00  0.00    +0.000 N 
ATOM     11  O   UNL     1      42.758   1.592  11.475  0.00  0.00    +0.000 OA
ATOM     12  H   UNL     1      44.069   3.844  13.273  0.00  0.00    +0.000 HD
ATOM     13  H   UNL     1      42.999   2.550  13.786  0.00  0.00    +0.000 HD
ENDBRANCH   3   9
BRANCH   1  15
ATOM     14  C   UNL     1      46.383   1.507   7.967  0.00  0.00    +0.000 C 
ATOM     15  O   UNL     1      46.047   2.873   7.739  0.00  0.00    +0.000 OA
ENDBRANCH   1  15
BRANCH   6  16
ATOM     16  C   UNL     1      45.189   7.307  11.523  0.00  0.00    +0.000 C 
BRANCH  16  17
ATOM     17  C   UNL     1      46.516   7.079  12.220  0.00  0.00    +0.000 A 
ATOM     18  C   UNL     1      46.573   6.359  13.414  0.00  0.00    +0.000 A 
ATOM     19  C   UNL     1      47.806   6.134  14.047  0.00  0.00    +0.000 A 
ATOM     20  C   UNL     1      48.942   6.666  13.423  0.00  0.00    +0.000 A 
ATOM     21  C   UNL     1      48.806   7.366  12.234  0.00  0.00    +0.000 A 
ATOM     22  N   UNL     1      47.626   7.574  11.618  0.00  0.00    +0.000 NA
BRANCH  19  23
ATOM     23  C   UNL     1      47.900   5.372  15.311  0.00  0.00    +0.000 A 
ATOM     24  C   UNL     1      48.741   5.763  16.364  0.00  0.00    +0.000 A 
ATOM     25  C   UNL     1      48.806   5.017  17.541  0.00  0.00    +0.000 A 
ATOM     26  C   UNL     1      48.014   3.890  17.650  0.00  0.00    +0.000 A 
ATOM     27  N   UNL     1      47.187   3.468  16.675  0.00  0.00    +0.000 NA
ATOM     28  C   UNL     1      47.156   4.210  15.539  0.00  0.00    +0.000 A 
ENDBRANCH  19  23
ENDBRANCH  16  17
ENDBRANCH   6  16
TORSDOF 5
ENDMDL
MODEL 7
REMARK VINA RESULT:    -7.111      2.118      2.497
REMARK INTER + INTRA:          -9.558
REMARK INTER:                  -8.905
REMARK INTRA:                  -0.653
REMARK UNBOUND:                -0.369
REMARK  Name = 
REMARK  6 active torsions:
REMARK  status: ('A' for Active; 'I' for Inactive)
REMARK    1  A    between atoms: C_1  and  O_2
REMARK    2  A    between atoms: O_2  and  C_3
REMARK    3  A    between atoms: C_5  and  C_6
REMARK    4  A    between atoms: N_11  and  C_12
REMARK    5  A    between atoms: C_12  and  C_13
REMARK    6  A    between atoms: C_15  and  C_16
REMARK                            x       y       z     vdW  Elec       q    Type
REMARK                         _______ _______ _______ _____ _____    ______ ____
ROOT
ATOM      1  C   UNL     1      50.138   7.917  13.692  0.00  0.00    +0.000 A 
ATOM      2  C   UNL     1      50.085   7.255  14.885  0.00  0.00    +0.000 A 
ATOM      3  C   UNL     1      48.888   6.630  15.125  0.00  0.00    +0.000 A 
ATOM      4  N   UNL     1      47.831   6.643  14.274  0.00  0.00    +0.000 NA
ATOM      5  C   UNL     1      48.005   7.303  13.128  0.00  0.00    +0.000 A 
ATOM      6  N   UNL     1      47.023   7.303  12.163  0.00  0.00    +0.000 N 
ATOM      7  N   UNL     1      49.123   7.957  12.810  0.00  0.00    +0.000 NA
ATOM      8  H   UNL     1      47.214   8.054  11.508  0.00  0.00    +0.000 HD
ENDROOT
BRANCH   3   9
ATOM      9  C   UNL     1      48.700   5.872  16.396  0.00  0.00    +0.000 C 
ATOM     10  N   UNL     1      47.957   6.508  17.357  0.00  0.00    +0.000 N 
ATOM     11  O   UNL     1      49.169   4.757  16.579  0.00  0.00    +0.000 OA
ATOM     12  H   UNL     1      47.522   7.399  17.153  0.00  0.00    +0.000 HD
ATOM     13  H   UNL     1      47.755   6.028  18.223  0.00  0.00    +0.000 HD
ENDBRANCH   3   9
BRANCH   1  15
ATOM     14  C   UNL     1      52.076   8.898  14.561  0.00  0.00    +0.000 C 
ATOM     15  O   UNL     1      51.320   8.569  13.399  0.00  0.00    +0.000 OA
ENDBRANCH   1  15
BRANCH   6  16
ATOM     16  C   UNL     1      45.640   7.227  12.594  0.00  0.00    +0.000 C 
BRANCH  16  17
ATOM     17  C   UNL     1      44.892   6.117  11.880  0.00  0.00    +0.000 A 
ATOM     18  C   UNL     1      45.504   5.403  10.849  0.00  0.00    +0.000 A 
ATOM     19  C   UNL     1      44.816   4.364  10.202  0.00  0.00    +0.000 A 
ATOM     20  C   UNL     1      43.513   4.099  10.644  0.00  0.00    +0.000 A 
ATOM     21  C   UNL     1      42.975   4.849  11.678  0.00  0.00    +0.000 A 
ATOM     22  N   UNL     1      43.637   5.840  12.308  0.00  0.00    +0.000 NA
BRANCH  19  23
ATOM     23  C   UNL     1      45.437   3.586   9.109  0.00  0.00    +0.000 A 
ATOM     24  C   UNL     1      46.015   4.196   7.985  0.00  0.00    +0.000 A 
ATOM     25  C   UNL     1      46.590   3.430   6.972  0.00  0.00    +0.000 A 
ATOM     26  C   UNL     1      46.588   2.054   7.105  0.00  0.00    +0.000 A 
ATOM     27  N   UNL     1      46.051   1.413   8.161  0.00  0.00    +0.000 NA
ATOM     28  C   UNL     1      45.490   2.188   9.124  0.00  0.00    +0.000 A 
ENDBRANCH  19  23
ENDBRANCH  16  17
ENDBRANCH   6  16
TORSDOF 5
ENDMDL
MODEL 8
REMARK VINA RESULT:    -7.008      3.556      6.823
REMARK INTER + INTRA:          -9.425
REMARK INTER:                  -8.776
REMARK INTRA:                  -0.649
REMARK UNBOUND:                -0.369
REMARK  Name = 
REMARK  6 active torsions:
REMARK  status: ('A' for Active; 'I' for Inactive)
REMARK    1  A    between atoms: C_1  and  O_2
REMARK    2  A    between atoms: O_2  and  C_3
REMARK    3  A    between atoms: C_5  and  C_6
REMARK    4  A    between atoms: N_11  and  C_12
REMARK    5  A    between atoms: C_12  and  C_13
REMARK    6  A    between atoms: C_15  and  C_16
REMARK                            x       y       z     vdW  Elec       q    Type
REMARK                         _______ _______ _______ _____ _____    ______ ____
ROOT
ATOM      1  C   UNL     1      45.303   4.568   9.136  0.00  0.00    +0.000 A 
ATOM      2  C   UNL     1      44.478   3.716   9.814  0.00  0.00    +0.000 A 
ATOM      3  C   UNL     1      44.409   3.960  11.162  0.00  0.00    +0.000 A 
ATOM      4  N   UNL     1      45.080   4.953  11.799  0.00  0.00    +0.000 NA
ATOM      5  C   UNL     1      45.839   5.737  11.031  0.00  0.00    +0.000 A 
ATOM      6  N   UNL     1      46.492   6.824  11.568  0.00  0.00    +0.000 N 
ATOM      7  N   UNL     1      45.986   5.571   9.716  0.00  0.00    +0.000 NA
ATOM      8  H   UNL     1      47.209   7.124  10.917  0.00  0.00    +0.000 HD
ENDROOT
BRANCH   3   9
ATOM      9  C   UNL     1      43.543   3.097  12.019  0.00  0.00    +0.000 C 
ATOM     10  N   UNL     1      43.470   3.462  13.338  0.00  0.00    +0.000 N 
ATOM     11  O   UNL     1      42.934   2.130  11.584  0.00  0.00    +0.000 OA
ATOM     12  H   UNL     1      43.928   4.307  13.656  0.00  0.00    +0.000 HD
ATOM     13  H   UNL     1      42.864   2.944  13.960  0.00  0.00    +0.000 HD
ENDBRANCH   3   9
BRANCH   1  15
ATOM     14  C   UNL     1      46.131   3.178   7.447  0.00  0.00    +0.000 C 
ATOM     15  O   UNL     1      45.415   4.365   7.775  0.00  0.00    +0.000 OA
ENDBRANCH   1  15
BRANCH   6  16
ATOM     16  C   UNL     1      46.936   6.743  12.947  0.00  0.00    +0.000 C 
BRANCH  16  17
ATOM     17  C   UNL     1      48.347   7.273  13.112  0.00  0.00    +0.000 A 
ATOM     18  C   UNL     1      49.153   7.498  11.996  0.00  0.00    +0.000 A 
ATOM     19  C   UNL     1      50.452   8.007  12.151  0.00  0.00    +0.000 A 
ATOM     20  C   UNL     1      50.876   8.265  13.461  0.00  0.00    +0.000 A 
ATOM     21  C   UNL     1      50.015   8.021  14.520  0.00  0.00    +0.000 A 
ATOM     22  N   UNL     1      48.765   7.543  14.373  0.00  0.00    +0.000 NA
BRANCH  19  23
ATOM     23  C   UNL     1      51.329   8.260  10.987  0.00  0.00    +0.000 A 
ATOM     24  C   UNL     1      51.806   7.227  10.166  0.00  0.00    +0.000 A 
ATOM     25  C   UNL     1      52.634   7.503   9.078  0.00  0.00    +0.000 A 
ATOM     26  C   UNL     1      52.965   8.820   8.821  0.00  0.00    +0.000 A 
ATOM     27  N   UNL     1      52.535   9.852   9.571  0.00  0.00    +0.000 NA
ATOM     28  C   UNL     1      51.740   9.548  10.628  0.00  0.00    +0.000 A 
ENDBRANCH  19  23
ENDBRANCH  16  17
ENDBRANCH   6  16
TORSDOF 5
ENDMDL
MODEL 9
REMARK VINA RESULT:    -6.775      3.962      8.884
REMARK INTER + INTRA:          -9.124
REMARK INTER:                  -8.580
REMARK INTRA:                  -0.544
REMARK UNBOUND:                -0.369
REMARK  Name = 
REMARK  6 active torsions:
REMARK  status: ('A' for Active; 'I' for Inactive)
REMARK    1  A    between atoms: C_1  and  O_2
REMARK    2  A    between atoms: O_2  and  C_3
REMARK    3  A    between atoms: C_5  and  C_6
REMARK    4  A    between atoms: N_11  and  C_12
REMARK    5  A    between atoms: C_12  and  C_13
REMARK    6  A    between atoms: C_15  and  C_16
REMARK                            x       y       z     vdW  Elec       q    Type
REMARK                         _______ _______ _______ _____ _____    ______ ____
ROOT
ATOM      1  C   UNL     1      44.504   3.750  11.211  0.00  0.00    +0.000 A 
ATOM      2  C   UNL     1      44.336   5.075  10.923  0.00  0.00    +0.000 A 
ATOM      3  C   UNL     1      44.984   5.921  11.786  0.00  0.00    +0.000 A 
ATOM      4  N   UNL     1      45.737   5.515  12.840  0.00  0.00    +0.000 NA
ATOM      5  C   UNL     1      45.848   4.196  13.011  0.00  0.00    +0.000 A 
ATOM      6  N   UNL     1      46.658   3.684  13.999  0.00  0.00    +0.000 N 
ATOM      7  N   UNL     1      45.243   3.294  12.238  0.00  0.00    +0.000 NA
ATOM      8  H   UNL     1      46.409   2.712  14.149  0.00  0.00    +0.000 HD
ENDROOT
BRANCH   3   9
ATOM      9  C   UNL     1      44.879   7.396  11.582  0.00  0.00    +0.000 C 
ATOM     10  N   UNL     1      43.684   7.837  11.077  0.00  0.00    +0.000 N 
ATOM     11  O   UNL     1      45.791   8.168  11.847  0.00  0.00    +0.000 OA
ATOM     12  H   UNL     1      42.923   7.185  10.934  0.00  0.00    +0.000 HD
ATOM     13  H   UNL     1      43.535   8.830  10.960  0.00  0.00    +0.000 HD
ENDBRANCH   3   9
BRANCH   1  15
ATOM     14  C   UNL     1      44.713   2.366   9.337  0.00  0.00    +0.000 C 
ATOM     15  O   UNL     1      43.869   2.851  10.377  0.00  0.00    +0.000 OA
ENDBRANCH   1  15
BRANCH   6  16
ATOM     16  C   UNL     1      46.818   4.452  15.220  0.00  0.00    +0.000 C 
BRANCH  16  17
ATOM     17  C   UNL     1      47.989   3.952  16.045  0.00  0.00    +0.000 A 
ATOM     18  C   UNL     1      48.639   4.805  16.937  0.00  0.00    +0.000 A 
ATOM     19  C   UNL     1      49.710   4.334  17.713  0.00  0.00    +0.000 A 
ATOM     20  C   UNL     1      50.075   2.993  17.538  0.00  0.00    +0.000 A 
ATOM     21  C   UNL     1      49.376   2.206  16.635  0.00  0.00    +0.000 A 
ATOM     22  N   UNL     1      48.341   2.652  15.897  0.00  0.00    +0.000 NA
BRANCH  19  23
ATOM     23  C   UNL     1      50.418   5.212  18.670  0.00  0.00    +0.000 A 
ATOM     24  C   UNL     1      51.055   4.715  19.818  0.00  0.00    +0.000 A 
ATOM     25  C   UNL     1      51.710   5.573  20.700  0.00  0.00    +0.000 A 
ATOM     26  C   UNL     1      51.729   6.925  20.411  0.00  0.00    +0.000 A 
ATOM     27  N   UNL     1      51.139   7.459  19.325  0.00  0.00    +0.000 NA
ATOM     28  C   UNL     1      50.500   6.598  18.493  0.00  0.00    +0.000 A 
ENDBRANCH  19  23
ENDBRANCH  16  17
ENDBRANCH   6  16
TORSDOF 5
ENDMDL
