MODEL 1
REMARK VINA RESULT:    -6.784      0.000      0.000
REMARK INTER + INTRA:         -10.056
REMARK INTER:                  -9.759
REMARK INTRA:                  -0.298
REMARK UNBOUND:                -0.298
REMARK  Name = 
REMARK  11 active torsions:
REMARK  status: ('A' for Active; 'I' for Inactive)
REMARK    1  A    between atoms: C_1  and  C_2
REMARK    2  A    between atoms: C_2  and  C_3
REMARK    3  A    between atoms: C_2  and  C_22
REMARK    4  A    between atoms: C_3  and  O_4
REMARK    5  A    between atoms: C_3  and  C_5
REMARK    6  A    between atoms: C_8  and  N_9
REMARK    7  A    between atoms: N_9  and  C_10
REMARK    8  A    between atoms: C_10  and  C_11
REMARK    9  A    between atoms: C_11  and  C_12
REMARK   10  A    between atoms: C_11  and  C_13
REMARK   11  A    between atoms: C_11  and  C_14
REMARK                            x       y       z     vdW  Elec       q    Type
REMARK                         _______ _______ _______ _____ _____    ______ ____
ROOT
ATOM      1  C   UNL     1      45.059   5.183  11.586  0.00  0.00    +0.000 A 
ATOM      2  C   UNL     1      44.564   4.591  12.741  0.00  0.00    +0.000 A 
ATOM      3  N   UNL     1      45.271   4.508  13.899  0.00  0.00    +0.000 NA
ATOM      4  C   UNL     1      46.505   5.048  13.900  0.00  0.00    +0.000 A 
ATOM      5  C   UNL     1      46.955   5.719  12.758  0.00  0.00    +0.000 A 
ATOM      6  N   UNL     1      46.269   5.789  11.589  0.00  0.00    +0.000 NA
ENDROOT
BRANCH   4   7
ATOM      7  N   UNL     1      47.301   5.036  15.057  0.00  0.00    +0.000 N 
ATOM      8  H   UNL     1      48.226   5.397  14.835  0.00  0.00    +0.000 HD
BRANCH   7   9
ATOM      9  C   UNL     1      47.430   3.735  15.747  0.00  0.00    +0.000 C 
BRANCH   9  10
ATOM     10  C   UNL     1      47.910   3.878  17.223  0.00  0.00    +0.000 C 
ATOM     11  C   UNL     1      47.143   5.028  17.911  0.00  0.00    +0.000 C 
ATOM     12  C   UNL     1      47.650   2.556  17.972  0.00  0.00    +0.000 C 
BRANCH  10  13
ATOM     13  C   UNL     1      49.414   4.218  17.256  0.00  0.00    +0.000 A 
ATOM     14  C   UNL     1      50.358   3.295  17.715  0.00  0.00    +0.000 A 
ATOM     15  C   UNL     1      51.703   3.659  17.786  0.00  0.00    +0.000 A 
ATOM     16  C   UNL     1      52.083   4.933  17.395  0.00  0.00    +0.000 A 
ATOM     17  C   UNL     1      51.100   5.794  16.949  0.00  0.00    +0.000 A 
ATOM     18  N   UNL     1      49.789   5.469  16.878  0.00  0.00    +0.000 NA
ENDBRANCH  10  13
ENDBRANCH   9  10
ENDBRANCH   7   9
ENDBRANCH   4   7
BRANCH   1  19
ATOM     19  C   UNL     1      44.269   5.185  10.289  0.00  0.00    +0.000 C 
BRANCH  19  21
ATOM     20  C   UNL     1      44.325   2.668  10.601  0.00  0.00    +0.000 C 
ATOM     21  C   UNL     1      44.217   3.810   9.587  0.00  0.00    +0.000 C 
BRANCH  21  22
ATOM     22  C   UNL     1      45.288   3.691   8.507  0.00  0.00    +0.000 C 
ATOM     23  F   UNL     1      46.090   4.782   8.464  0.00  0.00    +0.000 F 
ATOM     24  F   UNL     1      46.094   2.628   8.729  0.00  0.00    +0.000 F 
ATOM     25  F   UNL     1      44.764   3.557   7.266  0.00  0.00    +0.000 F 
ENDBRANCH  21  22
ENDBRANCH  19  21
BRANCH  19  26
ATOM     26  O   UNL     1      42.935   5.680  10.480  0.00  0.00    +0.000 OA
ATOM     27  H   UNL     1      42.510   5.135  11.173  0.00  0.00    +0.000 HD
ENDBRANCH  19  26
ENDBRANCH   1  19
TORSDOF 8
ENDMDL
MODEL 2
REMARK VINA RESULT:    -6.769      4.649      8.671
REMARK INTER + INTRA:         -10.034
REMARK INTER:                  -9.730
REMARK INTRA:                  -0.305
REMARK UNBOUND:                -0.298
REMARK  Name = 
REMARK  11 active torsions:
REMARK  status: ('A' for Active; 'I' for Inactive)
REMARK    1  A    between atoms: C_1  and  C_2
REMARK    2  A    between atoms: C_2  and  C_3
REMARK    3  A    between atoms: C_2  and  C_22
REMARK    4  A    between atoms: C_3  and  O_4
REMARK    5  A    between atoms: C_3  and  C_5
REMARK    6  A    between atoms: C_8  and  N_9
REMARK    7  A    between atoms: N_9  and  C_10
REMARK    8  A    between atoms: C_10  and  C_11
REMARK    9  A    between atoms: C_11  and  C_12
REMARK   10  A    between atoms: C_11  and  C_13
REMARK   11  A    between atoms: C_11  and  C_14
REMARK                            x       y       z     vdW  Elec       q    Type
REMARK                         _______ _______ _______ _____ _____    ______ ____
ROOT
ATOM      1  C   UNL     1      48.227   4.617  16.708  0.00  0.00    +0.000 A 
ATOM      2  C   UNL     1      47.464   3.603  16.143  0.00  0.00    +0.000 A 
ATOM      3  N   UNL     1      46.882   3.701  14.919  0.00  0.00    +0.000 NA
ATOM      4  C   UNL     1      47.085   4.844  14.237  0.00  0.00    +0.000 A 
ATOM      5  C   UNL     1      47.928   5.819  14.779  0.00  0.00    +0.000 A 
ATOM      6  N   UNL     1      48.496   5.744  16.010  0.00  0.00    +0.000 NA
ENDROOT
BRANCH   4   7
ATOM      7  N   UNL     1      46.548   5.027  12.953  0.00  0.00    +0.000 N 
ATOM      8  H   UNL     1      46.544   6.019  12.726  0.00  0.00    +0.000 HD
BRANCH   7   9
ATOM      9  C   UNL     1      45.202   4.462  12.721  0.00  0.00    +0.000 C 
BRANCH   9  10
ATOM     10  C   UNL     1      44.529   5.010  11.426  0.00  0.00    +0.000 C 
ATOM     11  C   UNL     1      42.995   4.885  11.544  0.00  0.00    +0.000 C 
ATOM     12  C   UNL     1      44.920   6.490  11.238  0.00  0.00    +0.000 C 
BRANCH  10  13
ATOM     13  C   UNL     1      44.984   4.184  10.206  0.00  0.00    +0.000 A 
ATOM     14  C   UNL     1      45.601   4.790   9.108  0.00  0.00    +0.000 A 
ATOM     15  C   UNL     1      45.946   4.019   7.997  0.00  0.00    +0.000 A 
ATOM     16  C   UNL     1      45.675   2.660   8.002  0.00  0.00    +0.000 A 
ATOM     17  C   UNL     1      45.067   2.126   9.121  0.00  0.00    +0.000 A 
ATOM     18  N   UNL     1      44.716   2.852  10.207  0.00  0.00    +0.000 NA
ENDBRANCH  10  13
ENDBRANCH   9  10
ENDBRANCH   7   9
ENDBRANCH   4   7
BRANCH   1  19
ATOM     19  C   UNL     1      48.793   4.501  18.112  0.00  0.00    +0.000 C 
BRANCH  19  21
ATOM     20  C   UNL     1      49.731   5.777  20.094  0.00  0.00    +0.000 C 
ATOM     21  C   UNL     1      48.764   5.824  18.909  0.00  0.00    +0.000 C 
BRANCH  21  22
ATOM     22  C   UNL     1      47.350   6.173  19.365  0.00  0.00    +0.000 C 
ATOM     23  F   UNL     1      46.409   5.500  18.661  0.00  0.00    +0.000 F 
ATOM     24  F   UNL     1      47.161   5.854  20.665  0.00  0.00    +0.000 F 
ATOM     25  F   UNL     1      47.065   7.488  19.219  0.00  0.00    +0.000 F 
ENDBRANCH  21  22
ENDBRANCH  19  21
BRANCH  19  26
ATOM     26  O   UNL     1      48.140   3.469  18.866  0.00  0.00    +0.000 OA
ATOM     27  H   UNL     1      47.762   3.879  19.669  0.00  0.00    +0.000 HD
ENDBRANCH  19  26
ENDBRANCH   1  19
TORSDOF 8
ENDMDL
MODEL 3
REMARK VINA RESULT:    -6.635      2.165      3.405
REMARK INTER + INTRA:          -9.842
REMARK INTER:                  -8.900
REMARK INTRA:                  -0.942
REMARK UNBOUND:                -0.298
REMARK  Name = 
REMARK  11 active torsions:
REMARK  status: ('A' for Active; 'I' for Inactive)
REMARK    1  A    between atoms: C_1  and  C_2
REMARK    2  A    between atoms: C_2  and  C_3
REMARK    3  A    between atoms: C_2  and  C_22
REMARK    4  A    between atoms: C_3  and  O_4
REMARK    5  A    between atoms: C_3  and  C_5
REMARK    6  A    between atoms: C_8  and  N_9
REMARK    7  A    between atoms: N_9  and  C_10
REMARK    8  A    between atoms: C_10  and  C_11
REMARK    9  A    between atoms: C_11  and  C_12
REMARK   10  A    between atoms: C_11  and  C_13
REMARK   11  A    between atoms: C_11  and  C_14
REMARK                            x       y       z     vdW  Elec       q    Type
REMARK                         _______ _______ _______ _____ _____    ______ ____
ROOT
ATOM      1  C   UNL     1      44.867   6.269  11.643  0.00  0.00    +0.000 A 
ATOM      2  C   UNL     1      44.732   7.477  12.315  0.00  0.00    +0.000 A 
ATOM      3  N   UNL     1      45.753   8.080  12.979  0.00  0.00    +0.000 NA
ATOM      4  C   UNL     1      46.947   7.459  12.955  0.00  0.00    +0.000 A 
ATOM      5  C   UNL     1      47.091   6.290  12.199  0.00  0.00    +0.000 A 
ATOM      6  N   UNL     1      46.075   5.665  11.551  0.00  0.00    +0.000 NA
ENDROOT
BRANCH   4   7
ATOM      7  N   UNL     1      48.069   8.018  13.588  0.00  0.00    +0.000 N 
ATOM      8  H   UNL     1      48.497   8.707  12.973  0.00  0.00    +0.000 HD
BRANCH   7   9
ATOM      9  C   UNL     1      49.097   7.065  14.055  0.00  0.00    +0.000 C 
BRANCH   9  10
ATOM     10  C   UNL     1      49.304   7.106  15.600  0.00  0.00    +0.000 C 
ATOM     11  C   UNL     1      50.810   7.010  15.926  0.00  0.00    +0.000 C 
ATOM     12  C   UNL     1      48.733   8.425  16.154  0.00  0.00    +0.000 C 
BRANCH  10  13
ATOM     13  C   UNL     1      48.594   5.904  16.257  0.00  0.00    +0.000 A 
ATOM     14  C   UNL     1      48.713   5.651  17.626  0.00  0.00    +0.000 A 
ATOM     15  C   UNL     1      48.105   4.521  18.175  0.00  0.00    +0.000 A 
ATOM     16  C   UNL     1      47.386   3.669  17.351  0.00  0.00    +0.000 A 
ATOM     17  C   UNL     1      47.306   3.981  16.009  0.00  0.00    +0.000 A 
ATOM     18  N   UNL     1      47.893   5.065  15.451  0.00  0.00    +0.000 NA
ENDBRANCH  10  13
ENDBRANCH   9  10
ENDBRANCH   7   9
ENDBRANCH   4   7
BRANCH   1  19
ATOM     19  C   UNL     1      43.683   5.587  10.981  0.00  0.00    +0.000 C 
BRANCH  19  21
ATOM     20  C   UNL     1      43.143   4.719  13.303  0.00  0.00    +0.000 C 
ATOM     21  C   UNL     1      43.095   4.419  11.802  0.00  0.00    +0.000 C 
BRANCH  21  22
ATOM     22  C   UNL     1      43.793   3.100  11.482  0.00  0.00    +0.000 C 
ATOM     23  F   UNL     1      44.844   2.869  12.304  0.00  0.00    +0.000 F 
ATOM     24  F   UNL     1      42.953   2.051  11.627  0.00  0.00    +0.000 F 
ATOM     25  F   UNL     1      44.284   3.063  10.221  0.00  0.00    +0.000 F 
ENDBRANCH  21  22
ENDBRANCH  19  21
BRANCH  19  26
ATOM     26  O   UNL     1      42.643   6.523  10.660  0.00  0.00    +0.000 OA
ATOM     27  H   UNL     1      43.050   7.409  10.587  0.00  0.00    +0.000 HD
ENDBRANCH  19  26
ENDBRANCH   1  19
TORSDOF 8
ENDMDL
MODEL 4
REMARK VINA RESULT:    -6.537      1.850      3.157
REMARK INTER + INTRA:          -9.701
REMARK INTER:                  -9.464
REMARK INTRA:                  -0.237
REMARK UNBOUND:                -0.298
REMARK  Name = 
REMARK  11 active torsions:
REMARK  status: ('A' for Active; 'I' for Inactive)
REMARK    1  A    between atoms: C_1  and  C_2
REMARK    2  A    between atoms: C_2  and  C_3
REMARK    3  A    between atoms: C_2  and  C_22
REMARK    4  A    between atoms: C_3  and  O_4
REMARK    5  A    between atoms: C_3  and  C_5
REMARK    6  A    between atoms: C_8  and  N_9
REMARK    7  A    between atoms: N_9  and  C_10
REMARK    8  A    between atoms: C_10  and  C_11
REMARK    9  A    between atoms: C_11  and  C_12
REMARK   10  A    between atoms: C_11  and  C_13
REMARK   11  A    between atoms: C_11  and  C_14
REMARK                            x       y       z     vdW  Elec       q    Type
REMARK                         _______ _______ _______ _____ _____    ______ ____
ROOT
ATOM      1  C   UNL     1      46.331   4.596  13.573  0.00  0.00    +0.000 A 
ATOM      2  C   UNL     1      47.194   5.563  13.073  0.00  0.00    +0.000 A 
ATOM      3  N   UNL     1      48.141   6.181  13.827  0.00  0.00    +0.000 NA
ATOM      4  C   UNL     1      48.232   5.807  15.117  0.00  0.00    +0.000 A 
ATOM      5  C   UNL     1      47.418   4.770  15.584  0.00  0.00    +0.000 A 
ATOM      6  N   UNL     1      46.453   4.160  14.848  0.00  0.00    +0.000 NA
ENDROOT
BRANCH   4   7
ATOM      7  N   UNL     1      49.198   6.369  15.968  0.00  0.00    +0.000 N 
ATOM      8  H   UNL     1      50.101   6.370  15.500  0.00  0.00    +0.000 HD
BRANCH   7   9
ATOM      9  C   UNL     1      49.332   5.747  17.302  0.00  0.00    +0.000 C 
BRANCH   9  10
ATOM     10  C   UNL     1      50.817   5.521  17.718  0.00  0.00    +0.000 C 
ATOM     11  C   UNL     1      51.752   6.251  16.729  0.00  0.00    +0.000 C 
ATOM     12  C   UNL     1      51.035   6.069  19.142  0.00  0.00    +0.000 C 
BRANCH  10  13
ATOM     13  C   UNL     1      51.154   4.017  17.672  0.00  0.00    +0.000 A 
ATOM     14  C   UNL     1      52.384   3.533  18.125  0.00  0.00    +0.000 A 
ATOM     15  C   UNL     1      52.675   2.173  18.013  0.00  0.00    +0.000 A 
ATOM     16  C   UNL     1      51.735   1.320  17.458  0.00  0.00    +0.000 A 
ATOM     17  C   UNL     1      50.539   1.864  17.034  0.00  0.00    +0.000 A 
ATOM     18  N   UNL     1      50.235   3.179  17.123  0.00  0.00    +0.000 NA
ENDBRANCH  10  13
ENDBRANCH   9  10
ENDBRANCH   7   9
ENDBRANCH   4   7
BRANCH   1  19
ATOM     19  C   UNL     1      45.234   3.987  12.719  0.00  0.00    +0.000 C 
BRANCH  19  21
ATOM     20  C   UNL     1      44.354   6.028  11.495  0.00  0.00    +0.000 C 
ATOM     21  C   UNL     1      45.055   4.675  11.347  0.00  0.00    +0.000 C 
BRANCH  21  22
ATOM     22  C   UNL     1      44.316   3.777  10.360  0.00  0.00    +0.000 C 
ATOM     23  F   UNL     1      45.145   2.888   9.762  0.00  0.00    +0.000 F 
ATOM     24  F   UNL     1      43.356   3.052  10.979  0.00  0.00    +0.000 F 
ATOM     25  F   UNL     1      43.725   4.474   9.362  0.00  0.00    +0.000 F 
ENDBRANCH  21  22
ENDBRANCH  19  21
BRANCH  19  26
ATOM     26  O   UNL     1      45.429   2.577  12.529  0.00  0.00    +0.000 OA
ATOM     27  H   UNL     1      45.088   2.119  13.323  0.00  0.00    +0.000 HD
ENDBRANCH  19  26
ENDBRANCH   1  19
TORSDOF 8
ENDMDL
MODEL 5
REMARK VINA RESULT:    -6.533      5.073      8.773
REMARK INTER + INTRA:          -9.695
REMARK INTER:                  -9.115
REMARK INTRA:                  -0.579
REMARK UNBOUND:                -0.298
REMARK  Name = 
REMARK  11 active torsions:
REMARK  status: ('A' for Active; 'I' for Inactive)
REMARK    1  A    between atoms: C_1  and  C_2
REMARK    2  A    between atoms: C_2  and  C_3
REMARK    3  A    between atoms: C_2  and  C_22
REMARK    4  A    between atoms: C_3  and  O_4
REMARK    5  A    between atoms: C_3  and  C_5
REMARK    6  A    between atoms: C_8  and  N_9
REMARK    7  A    between atoms: N_9  and  C_10
REMARK    8  A    between atoms: C_10  and  C_11
REMARK    9  A    between atoms: C_11  and  C_12
REMARK   10  A    between atoms: C_11  and  C_13
REMARK   11  A    between atoms: C_11  and  C_14
REMARK                            x       y       z     vdW  Elec       q    Type
REMARK                         _______ _______ _______ _____ _____    ______ ____
ROOT
ATOM      1  C   UNL     1      48.252   5.111  16.581  0.00  0.00    +0.000 A 
ATOM      2  C   UNL     1      47.323   4.115  16.310  0.00  0.00    +0.000 A 
ATOM      3  N   UNL     1      46.661   4.012  15.127  0.00  0.00    +0.000 NA
ATOM      4  C   UNL     1      46.953   4.927  14.184  0.00  0.00    +0.000 A 
ATOM      5  C   UNL     1      47.956   5.869  14.437  0.00  0.00    +0.000 A 
ATOM      6  N   UNL     1      48.608   5.997  15.622  0.00  0.00    +0.000 NA
ENDROOT
BRANCH   4   7
ATOM      7  N   UNL     1      46.342   4.887  12.921  0.00  0.00    +0.000 N 
ATOM      8  H   UNL     1      46.545   5.748  12.419  0.00  0.00    +0.000 HD
BRANCH   7   9
ATOM      9  C   UNL     1      44.886   4.638  12.908  0.00  0.00    +0.000 C 
BRANCH   9  10
ATOM     10  C   UNL     1      44.187   5.197  11.631  0.00  0.00    +0.000 C 
ATOM     11  C   UNL     1      42.655   5.105  11.794  0.00  0.00    +0.000 C 
ATOM     12  C   UNL     1      44.603   6.668  11.428  0.00  0.00    +0.000 C 
BRANCH  10  13
ATOM     13  C   UNL     1      44.589   4.359  10.401  0.00  0.00    +0.000 A 
ATOM     14  C   UNL     1      44.245   3.009  10.299  0.00  0.00    +0.000 A 
ATOM     15  C   UNL     1      44.677   2.267   9.198  0.00  0.00    +0.000 A 
ATOM     16  C   UNL     1      45.437   2.886   8.218  0.00  0.00    +0.000 A 
ATOM     17  C   UNL     1      45.737   4.223   8.380  0.00  0.00    +0.000 A 
ATOM     18  N   UNL     1      45.338   4.962   9.441  0.00  0.00    +0.000 NA
ENDBRANCH  10  13
ENDBRANCH   9  10
ENDBRANCH   7   9
ENDBRANCH   4   7
BRANCH   1  19
ATOM     19  C   UNL     1      48.911   5.239  17.943  0.00  0.00    +0.000 C 
BRANCH  19  21
ATOM     20  C   UNL     1      50.542   3.368  17.415  0.00  0.00    +0.000 C 
ATOM     21  C   UNL     1      50.389   4.788  17.967  0.00  0.00    +0.000 C 
BRANCH  21  22
ATOM     22  C   UNL     1      50.988   4.903  19.365  0.00  0.00    +0.000 C 
ATOM     23  F   UNL     1      52.014   4.038  19.550  0.00  0.00    +0.000 F 
ATOM     24  F   UNL     1      51.483   6.141  19.587  0.00  0.00    +0.000 F 
ATOM     25  F   UNL     1      50.088   4.639  20.341  0.00  0.00    +0.000 F 
ENDBRANCH  21  22
ENDBRANCH  19  21
BRANCH  19  26
ATOM     26  O   UNL     1      48.805   6.574  18.461  0.00  0.00    +0.000 OA
ATOM     27  H   UNL     1      49.625   7.052  18.225  0.00  0.00    +0.000 HD
ENDBRANCH  19  26
ENDBRANCH   1  19
TORSDOF 8
ENDMDL
MODEL 6
REMARK VINA RESULT:    -6.522      4.467      8.323
REMARK INTER + INTRA:          -9.679
REMARK INTER:                  -9.394
REMARK INTRA:                  -0.285
REMARK UNBOUND:                -0.298
REMARK  Name = 
REMARK  11 active torsions:
REMARK  status: ('A' for Active; 'I' for Inactive)
REMARK    1  A    between atoms: C_1  and  C_2
REMARK    2  A    between atoms: C_2  and  C_3
REMARK    3  A    between atoms: C_2  and  C_22
REMARK    4  A    between atoms: C_3  and  O_4
REMARK    5  A    between atoms: C_3  and  C_5
REMARK    6  A    between atoms: C_8  and  N_9
REMARK    7  A    between atoms: N_9  and  C_10
REMARK    8  A    between atoms: C_10  and  C_11
REMARK    9  A    between atoms: C_11  and  C_12
REMARK   10  A    between atoms: C_11  and  C_13
REMARK   11  A    between atoms: C_11  and  C_14
REMARK                            x       y       z     vdW  Elec       q    Type
REMARK                         _______ _______ _______ _____ _____    ______ ____
ROOT
ATOM      1  C   UNL     1      48.493   5.411  15.983  0.00  0.00    +0.000 A 
ATOM      2  C   UNL     1      48.360   6.507  15.140  0.00  0.00    +0.000 A 
ATOM      3  N   UNL     1      47.638   6.481  13.989  0.00  0.00    +0.000 NA
ATOM      4  C   UNL     1      47.019   5.325  13.685  0.00  0.00    +0.000 A 
ATOM      5  C   UNL     1      47.087   4.258  14.587  0.00  0.00    +0.000 A 
ATOM      6  N   UNL     1      47.823   4.264  15.728  0.00  0.00    +0.000 NA
ENDROOT
BRANCH   4   7
ATOM      7  N   UNL     1      46.227   5.208  12.531  0.00  0.00    +0.000 N 
ATOM      8  H   UNL     1      46.694   5.666  11.752  0.00  0.00    +0.000 HD
BRANCH   7   9
ATOM      9  C   UNL     1      44.840   5.707  12.639  0.00  0.00    +0.000 C 
BRANCH   9  10
ATOM     10  C   UNL     1      43.793   4.725  12.030  0.00  0.00    +0.000 C 
ATOM     11  C   UNL     1      43.580   3.533  12.987  0.00  0.00    +0.000 C 
ATOM     12  C   UNL     1      42.460   5.470  11.819  0.00  0.00    +0.000 C 
BRANCH  10  13
ATOM     13  C   UNL     1      44.309   4.174  10.685  0.00  0.00    +0.000 A 
ATOM     14  C   UNL     1      44.110   2.839  10.323  0.00  0.00    +0.000 A 
ATOM     15  C   UNL     1      44.642   2.361   9.125  0.00  0.00    +0.000 A 
ATOM     16  C   UNL     1      45.358   3.222   8.308  0.00  0.00    +0.000 A 
ATOM     17  C   UNL     1      45.515   4.528   8.725  0.00  0.00    +0.000 A 
ATOM     18  N   UNL     1      45.016   5.015   9.885  0.00  0.00    +0.000 NA
ENDBRANCH  10  13
ENDBRANCH   9  10
ENDBRANCH   7   9
ENDBRANCH   4   7
BRANCH   1  19
ATOM     19  C   UNL     1      49.374   5.457  17.219  0.00  0.00    +0.000 C 
BRANCH  19  21
ATOM     20  C   UNL     1      48.255   3.449  18.290  0.00  0.00    +0.000 C 
ATOM     21  C   UNL     1      48.696   4.901  18.490  0.00  0.00    +0.000 C 
BRANCH  21  22
ATOM     22  C   UNL     1      47.527   5.776  18.932  0.00  0.00    +0.000 C 
ATOM     23  F   UNL     1      47.648   7.049  18.483  0.00  0.00    +0.000 F 
ATOM     24  F   UNL     1      46.353   5.308  18.451  0.00  0.00    +0.000 F 
ATOM     25  F   UNL     1      47.416   5.858  20.278  0.00  0.00    +0.000 F 
ENDBRANCH  21  22
ENDBRANCH  19  21
BRANCH  19  26
ATOM     26  O   UNL     1      50.625   4.786  17.005  0.00  0.00    +0.000 OA
ATOM     27  H   UNL     1      51.252   5.435  16.628  0.00  0.00    +0.000 HD
ENDBRANCH  19  26
ENDBRANCH   1  19
TORSDOF 8
ENDMDL
MODEL 7
REMARK VINA RESULT:    -6.301      2.308      3.312
REMARK INTER + INTRA:          -9.361
REMARK INTER:                  -8.681
REMARK INTRA:                  -0.680
REMARK UNBOUND:                -0.298
REMARK  Name = 
REMARK  11 active torsions:
REMARK  status: ('A' for Active; 'I' for Inactive)
REMARK    1  A    between atoms: C_1  and  C_2
REMARK    2  A    between atoms: C_2  and  C_3
REMARK    3  A    between atoms: C_2  and  C_22
REMARK    4  A    between atoms: C_3  and  O_4
REMARK    5  A    between atoms: C_3  and  C_5
REMARK    6  A    between atoms: C_8  and  N_9
REMARK    7  A    between atoms: N_9  and  C_10
REMARK    8  A    between atoms: C_10  and  C_11
REMARK    9  A    between atoms: C_11  and  C_12
REMARK   10  A    between atoms: C_11  and  C_13
REMARK   11  A    between atoms: C_11  and  C_14
REMARK                            x       y       z     vdW  Elec       q    Type
REMARK                         _______ _______ _______ _____ _____    ______ ____
ROOT
ATOM      1  C   UNL     1      46.063   6.248  12.479  0.00  0.00    +0.000 A 
ATOM      2  C   UNL     1      46.607   5.178  13.178  0.00  0.00    +0.000 A 
ATOM      3  N   UNL     1      47.640   5.304  14.051  0.00  0.00    +0.000 NA
ATOM      4  C   UNL     1      48.132   6.543  14.238  0.00  0.00    +0.000 A 
ATOM      5  C   UNL     1      47.517   7.624  13.596  0.00  0.00    +0.000 A 
ATOM      6  N   UNL     1      46.499   7.508  12.705  0.00  0.00    +0.000 NA
ENDROOT
BRANCH   4   7
ATOM      7  N   UNL     1      49.182   6.779  15.140  0.00  0.00    +0.000 N 
ATOM      8  H   UNL     1      49.595   5.891  15.418  0.00  0.00    +0.000 HD
BRANCH   7   9
ATOM      9  C   UNL     1      48.843   7.565  16.345  0.00  0.00    +0.000 C 
BRANCH   9  10
ATOM     10  C   UNL     1      49.070   6.774  17.668  0.00  0.00    +0.000 C 
ATOM     11  C   UNL     1      50.544   6.905  18.107  0.00  0.00    +0.000 C 
ATOM     12  C   UNL     1      48.147   7.342  18.764  0.00  0.00    +0.000 C 
BRANCH  10  13
ATOM     13  C   UNL     1      48.768   5.278  17.446  0.00  0.00    +0.000 A 
ATOM     14  C   UNL     1      47.476   4.768  17.597  0.00  0.00    +0.000 A 
ATOM     15  C   UNL     1      47.252   3.399  17.445  0.00  0.00    +0.000 A 
ATOM     16  C   UNL     1      48.317   2.565  17.141  0.00  0.00    +0.000 A 
ATOM     17  C   UNL     1      49.566   3.136  17.002  0.00  0.00    +0.000 A 
ATOM     18  N   UNL     1      49.811   4.458  17.153  0.00  0.00    +0.000 NA
ENDBRANCH  10  13
ENDBRANCH   9  10
ENDBRANCH   7   9
ENDBRANCH   4   7
BRANCH   1  19
ATOM     19  C   UNL     1      44.960   6.053  11.453  0.00  0.00    +0.000 C 
BRANCH  19  21
ATOM     20  C   UNL     1      44.463   4.261   9.727  0.00  0.00    +0.000 C 
ATOM     21  C   UNL     1      44.578   4.574  11.221  0.00  0.00    +0.000 C 
BRANCH  21  22
ATOM     22  C   UNL     1      43.296   4.203  11.962  0.00  0.00    +0.000 C 
ATOM     23  F   UNL     1      42.224   4.886  11.494  0.00  0.00    +0.000 F 
ATOM     24  F   UNL     1      43.009   2.890  11.819  0.00  0.00    +0.000 F 
ATOM     25  F   UNL     1      43.365   4.468  13.287  0.00  0.00    +0.000 F 
ENDBRANCH  21  22
ENDBRANCH  19  21
BRANCH  19  26
ATOM     26  O   UNL     1      43.787   6.810  11.784  0.00  0.00    +0.000 OA
ATOM     27  H   UNL     1      43.699   7.529  11.127  0.00  0.00    +0.000 HD
ENDBRANCH  19  26
ENDBRANCH   1  19
TORSDOF 8
ENDMDL
MODEL 8
REMARK VINA RESULT:    -6.081      2.017      2.996
REMARK INTER + INTRA:          -9.045
REMARK INTER:                  -8.477
REMARK INTRA:                  -0.568
REMARK UNBOUND:                -0.298
REMARK  Name = 
REMARK  11 active torsions:
REMARK  status: ('A' for Active; 'I' for Inactive)
REMARK    1  A    between atoms: C_1  and  C_2
REMARK    2  A    between atoms: C_2  and  C_3
REMARK    3  A    between atoms: C_2  and  C_22
REMARK    4  A    between atoms: C_3  and  O_4
REMARK    5  A    between atoms: C_3  and  C_5
REMARK    6  A    between atoms: C_8  and  N_9
REMARK    7  A    between atoms: N_9  and  C_10
REMARK    8  A    between atoms: C_10  and  C_11
REMARK    9  A    between atoms: C_11  and  C_12
REMARK   10  A    between atoms: C_11  and  C_13
REMARK   11  A    between atoms: C_11  and  C_14
REMARK                            x       y       z     vdW  Elec       q    Type
REMARK                         _______ _______ _______ _____ _____    ______ ____
ROOT
ATOM      1  C   UNL     1      46.326   5.853  12.418  0.00  0.00    +0.000 A 
ATOM      2  C   UNL     1      46.920   5.030  13.366  0.00  0.00    +0.000 A 
ATOM      3  N   UNL     1      47.687   5.497  14.386  0.00  0.00    +0.000 NA
ATOM      4  C   UNL     1      47.850   6.831  14.464  0.00  0.00    +0.000 A 
ATOM      5  C   UNL     1      47.173   7.654  13.557  0.00  0.00    +0.000 A 
ATOM      6  N   UNL     1      46.423   7.199  12.521  0.00  0.00    +0.000 NA
ENDROOT
BRANCH   4   7
ATOM      7  N   UNL     1      48.603   7.410  15.498  0.00  0.00    +0.000 N 
ATOM      8  H   UNL     1      48.808   8.379  15.265  0.00  0.00    +0.000 HD
BRANCH   7   9
ATOM      9  C   UNL     1      49.853   6.713  15.865  0.00  0.00    +0.000 C 
BRANCH   9  10
ATOM     10  C   UNL     1      49.846   6.190  17.333  0.00  0.00    +0.000 C 
ATOM     11  C   UNL     1      50.953   6.897  18.144  0.00  0.00    +0.000 C 
ATOM     12  C   UNL     1      48.471   6.476  17.969  0.00  0.00    +0.000 C 
BRANCH  10  13
ATOM     13  C   UNL     1      50.133   4.674  17.353  0.00  0.00    +0.000 A 
ATOM     14  C   UNL     1      51.404   4.180  17.655  0.00  0.00    +0.000 A 
ATOM     15  C   UNL     1      51.641   2.805  17.605  0.00  0.00    +0.000 A 
ATOM     16  C   UNL     1      50.606   1.950  17.261  0.00  0.00    +0.000 A 
ATOM     17  C   UNL     1      49.374   2.505  16.978  0.00  0.00    +0.000 A 
ATOM     18  N   UNL     1      49.121   3.834  17.011  0.00  0.00    +0.000 NA
ENDBRANCH  10  13
ENDBRANCH   9  10
ENDBRANCH   7   9
ENDBRANCH   4   7
BRANCH   1  19
ATOM     19  C   UNL     1      45.542   5.287  11.248  0.00  0.00    +0.000 C 
BRANCH  19  21
ATOM     20  C   UNL     1      43.684   5.288  12.976  0.00  0.00    +0.000 C 
ATOM     21  C   UNL     1      44.162   4.713  11.640  0.00  0.00    +0.000 C 
BRANCH  21  22
ATOM     22  C   UNL     1      44.177   3.187  11.671  0.00  0.00    +0.000 C 
ATOM     23  F   UNL     1      43.397   2.692  12.661  0.00  0.00    +0.000 F 
ATOM     24  F   UNL     1      43.708   2.668  10.514  0.00  0.00    +0.000 F 
ATOM     25  F   UNL     1      45.416   2.682  11.876  0.00  0.00    +0.000 F 
ENDBRANCH  21  22
ENDBRANCH  19  21
BRANCH  19  26
ATOM     26  O   UNL     1      45.382   6.252  10.198  0.00  0.00    +0.000 OA
ATOM     27  H   UNL     1      46.181   6.816  10.186  0.00  0.00    +0.000 HD
ENDBRANCH  19  26
ENDBRANCH   1  19
TORSDOF 8
ENDMDL
MODEL 9
REMARK VINA RESULT:    -5.919      2.329      3.621
REMARK INTER + INTRA:          -8.812
REMARK INTER:                  -8.390
REMARK INTRA:                  -0.422
REMARK UNBOUND:                -0.298
REMARK  Name = 
REMARK  11 active torsions:
REMARK  status: ('A' for Active; 'I' for Inactive)
REMARK    1  A    between atoms: C_1  and  C_2
REMARK    2  A    between atoms: C_2  and  C_3
REMARK    3  A    between atoms: C_2  and  C_22
REMARK    4  A    between atoms: C_3  and  O_4
REMARK    5  A    between atoms: C_3  and  C_5
REMARK    6  A    between atoms: C_8  and  N_9
REMARK    7  A    between atoms: N_9  and  C_10
REMARK    8  A    between atoms: C_10  and  C_11
REMARK    9  A    between atoms: C_11  and  C_12
REMARK   10  A    between atoms: C_11  and  C_13
REMARK   11  A    between atoms: C_11  and  C_14
REMARK                            x       y       z     vdW  Elec       q    Type
REMARK                         _______ _______ _______ _____ _____    ______ ____
ROOT
ATOM      1  C   UNL     1      45.989   5.587  11.868  0.00  0.00    +0.000 A 
ATOM      2  C   UNL     1      46.651   4.861  12.849  0.00  0.00    +0.000 A 
ATOM      3  N   UNL     1      47.387   5.438  13.836  0.00  0.00    +0.000 NA
ATOM      4  C   UNL     1      47.446   6.783  13.844  0.00  0.00    +0.000 A 
ATOM      5  C   UNL     1      46.701   7.503  12.905  0.00  0.00    +0.000 A 
ATOM      6  N   UNL     1      45.982   6.940  11.901  0.00  0.00    +0.000 NA
ENDROOT
BRANCH   4   7
ATOM      7  N   UNL     1      48.158   7.471  14.840  0.00  0.00    +0.000 N 
ATOM      8  H   UNL     1      48.053   8.473  14.700  0.00  0.00    +0.000 HD
BRANCH   7   9
ATOM      9  C   UNL     1      49.593   7.138  14.965  0.00  0.00    +0.000 C 
BRANCH   9  10
ATOM     10  C   UNL     1      50.101   7.194  16.438  0.00  0.00    +0.000 C 
ATOM     11  C   UNL     1      51.292   6.227  16.615  0.00  0.00    +0.000 C 
ATOM     12  C   UNL     1      50.545   8.633  16.767  0.00  0.00    +0.000 C 
BRANCH  10  13
ATOM     13  C   UNL     1      48.979   6.753  17.400  0.00  0.00    +0.000 A 
ATOM     14  C   UNL     1      48.549   7.579  18.441  0.00  0.00    +0.000 A 
ATOM     15  C   UNL     1      47.573   7.123  19.327  0.00  0.00    +0.000 A 
ATOM     16  C   UNL     1      47.040   5.854  19.157  0.00  0.00    +0.000 A 
ATOM     17  C   UNL     1      47.508   5.092  18.105  0.00  0.00    +0.000 A 
ATOM     18  N   UNL     1      48.459   5.508  17.237  0.00  0.00    +0.000 NA
ENDBRANCH  10  13
ENDBRANCH   9  10
ENDBRANCH   7   9
ENDBRANCH   4   7
BRANCH   1  19
ATOM     19  C   UNL     1      45.243   4.902  10.736  0.00  0.00    +0.000 C 
BRANCH  19  21
ATOM     20  C   UNL     1      44.800   2.597   9.772  0.00  0.00    +0.000 C 
ATOM     21  C   UNL     1      44.840   3.443  11.047  0.00  0.00    +0.000 C 
BRANCH  21  22
ATOM     22  C   UNL     1      43.511   3.375  11.794  0.00  0.00    +0.000 C 
ATOM     23  F   UNL     1      42.575   4.183  11.240  0.00  0.00    +0.000 F 
ATOM     24  F   UNL     1      43.000   2.124  11.775  0.00  0.00    +0.000 F 
ATOM     25  F   UNL     1      43.621   3.754  13.089  0.00  0.00    +0.000 F 
ENDBRANCH  21  22
ENDBRANCH  19  21
BRANCH  19  26
ATOM     26  O   UNL     1      44.084   5.648  10.335  0.00  0.00    +0.000 OA
ATOM     27  H   UNL     1      44.285   6.598  10.452  0.00  0.00    +0.000 HD
ENDBRANCH  19  26
ENDBRANCH   1  19
TORSDOF 8
ENDMDL
