MODEL 1
REMARK VINA RESULT:    -9.290      0.000      0.000
REMARK INTER + INTRA:         -13.446
REMARK INTER:                 -12.548
REMARK INTRA:                  -0.898
REMARK UNBOUND:                -0.898
REMARK  Name = 
REMARK  6 active torsions:
REMARK  status: ('A' for Active; 'I' for Inactive)
REMARK    1  A    between atoms: C_2  and  C_4
REMARK    2  A    between atoms: N_8  and  C_9
REMARK    3  A    between atoms: C_9  and  C_10
REMARK    4  A    between atoms: C_10  and  C_13
REMARK    5  A    between atoms: C_17  and  C_18
REMARK    6  A    between atoms: C_18  and  C_19
REMARK                            x       y       z     vdW  Elec       q    Type
REMARK                         _______ _______ _______ _____ _____    ______ ____
ROOT
ATOM      1  C   UNL     1      43.479   5.676  12.020  0.00  0.00    +0.000 C 
ATOM      2  F   UNL     1      43.103   6.847  11.428  0.00  0.00    +0.000 F 
ATOM      3  F   UNL     1      42.630   5.522  13.085  0.00  0.00    +0.000 F 
ENDROOT
BRANCH   1   4
ATOM      4  C   UNL     1      44.929   5.680  12.462  0.00  0.00    +0.000 A 
ATOM      5  C   UNL     1      45.762   6.712  12.008  0.00  0.00    +0.000 A 
ATOM      6  C   UNL     1      47.079   6.792  12.447  0.00  0.00    +0.000 A 
ATOM      7  C   UNL     1      47.574   5.855  13.366  0.00  0.00    +0.000 A 
ATOM      8  C   UNL     1      46.766   4.806  13.835  0.00  0.00    +0.000 A 
ATOM      9  C   UNL     1      45.447   4.718  13.351  0.00  0.00    +0.000 A 
BRANCH   8  10
ATOM     10  C   UNL     1      47.284   3.767  14.822  0.00  0.00    +0.000 C 
BRANCH  10  11
ATOM     11  C   UNL     1      47.154   4.211  16.282  0.00  0.00    +0.000 C 
ATOM     12  C   UNL     1      48.317   4.960  16.955  0.00  0.00    +0.000 C 
ATOM     13  N   UNL     1      48.321   3.999  18.064  0.00  0.00    +0.000 NA
ATOM     14  C   UNL     1      47.368   3.126  17.372  0.00  0.00    +0.000 C 
ATOM     15  H   UNL     1      47.976   4.379  18.946  0.00  0.00    +0.000 HD
ENDBRANCH  10  11
ENDBRANCH   8  10
ENDBRANCH   1   4
BRANCH   1  16
ATOM     16  C   UNL     1      43.220   4.511  11.028  0.00  0.00    +0.000 C 
BRANCH  16  21
ATOM     17  C   UNL     1      46.499   2.482   7.679  0.00  0.00    +0.000 A 
ATOM     18  C   UNL     1      45.667   1.854   8.597  0.00  0.00    +0.000 A 
ATOM     19  C   UNL     1      44.756   2.622   9.317  0.00  0.00    +0.000 A 
ATOM     20  C   UNL     1      44.687   3.999   9.100  0.00  0.00    +0.000 A 
ATOM     21  N   UNL     1      43.721   4.791   9.678  0.00  0.00    +0.000 N 
ATOM     22  N   UNL     1      45.514   4.621   8.237  0.00  0.00    +0.000 NA
ATOM     23  C   UNL     1      46.410   3.856   7.555  0.00  0.00    +0.000 A 
ATOM     24  H   UNL     1      43.847   5.770   9.429  0.00  0.00    +0.000 HD
BRANCH  17  26
ATOM     25  N   UNL     1      48.552   2.437   6.387  0.00  0.00    +0.000 N 
ATOM     26  C   UNL     1      47.453   1.739   6.838  0.00  0.00    +0.000 C 
ATOM     27  O   UNL     1      47.306   0.560   6.586  0.00  0.00    +0.000 OA
ATOM     28  H   UNL     1      49.261   1.893   5.920  0.00  0.00    +0.000 HD
ATOM     29  H   UNL     1      48.832   3.315   6.801  0.00  0.00    +0.000 HD
ENDBRANCH  17  26
ENDBRANCH  16  21
ENDBRANCH   1  16
TORSDOF 6
ENDMDL
MODEL 2
REMARK VINA RESULT:    -8.943      2.145      3.323
REMARK INTER + INTRA:         -12.977
REMARK INTER:                 -12.011
REMARK INTRA:                  -0.967
REMARK UNBOUND:                -0.898
REMARK  Name = 
REMARK  6 active torsions:
REMARK  status: ('A' for Active; 'I' for Inactive)
REMARK    1  A    between atoms: C_2  and  C_4
REMARK    2  A    between atoms: N_8  and  C_9
REMARK    3  A    between atoms: C_9  and  C_10
REMARK    4  A    between atoms: C_10  and  C_13
REMARK    5  A    between atoms: C_17  and  C_18
REMARK    6  A    between atoms: C_18  and  C_19
REMARK                            x       y       z     vdW  Elec       q    Type
REMARK                         _______ _______ _______ _____ _____    ______ ____
ROOT
ATOM      1  C   UNL     1      43.370   5.517  12.196  0.00  0.00    +0.000 C 
ATOM      2  F   UNL     1      42.974   6.666  11.575  0.00  0.00    +0.000 F 
ATOM      3  F   UNL     1      42.459   5.320  13.201  0.00  0.00    +0.000 F 
ENDROOT
BRANCH   1   4
ATOM      4  C   UNL     1      44.784   5.599  12.736  0.00  0.00    +0.000 A 
ATOM      5  C   UNL     1      45.387   4.425  13.207  0.00  0.00    +0.000 A 
ATOM      6  C   UNL     1      46.707   4.444  13.644  0.00  0.00    +0.000 A 
ATOM      7  C   UNL     1      47.451   5.631  13.592  0.00  0.00    +0.000 A 
ATOM      8  C   UNL     1      46.873   6.825  13.129  0.00  0.00    +0.000 A 
ATOM      9  C   UNL     1      45.525   6.798  12.727  0.00  0.00    +0.000 A 
BRANCH   8  10
ATOM     10  C   UNL     1      47.655   8.132  13.075  0.00  0.00    +0.000 C 
BRANCH  10  11
ATOM     11  C   UNL     1      48.522   8.261  11.819  0.00  0.00    +0.000 C 
ATOM     12  C   UNL     1      49.975   7.756  11.843  0.00  0.00    +0.000 C 
ATOM     13  N   UNL     1      50.456   9.055  11.359  0.00  0.00    +0.000 NA
ATOM     14  C   UNL     1      49.129   9.658  11.519  0.00  0.00    +0.000 C 
ATOM     15  H   UNL     1      50.795   9.041  10.397  0.00  0.00    +0.000 HD
ENDBRANCH  10  11
ENDBRANCH   8  10
ENDBRANCH   1   4
BRANCH   1  16
ATOM     16  C   UNL     1      43.241   4.340  11.194  0.00  0.00    +0.000 C 
BRANCH  16  21
ATOM     17  C   UNL     1      46.481   2.511   7.694  0.00  0.00    +0.000 A 
ATOM     18  C   UNL     1      45.679   1.831   8.602  0.00  0.00    +0.000 A 
ATOM     19  C   UNL     1      44.772   2.551   9.373  0.00  0.00    +0.000 A 
ATOM     20  C   UNL     1      44.675   3.934   9.216  0.00  0.00    +0.000 A 
ATOM     21  N   UNL     1      43.709   4.685   9.847  0.00  0.00    +0.000 N 
ATOM     22  N   UNL     1      45.472   4.607   8.363  0.00  0.00    +0.000 NA
ATOM     23  C   UNL     1      46.367   3.888   7.631  0.00  0.00    +0.000 A 
ATOM     24  H   UNL     1      43.813   5.676   9.637  0.00  0.00    +0.000 HD
BRANCH  17  26
ATOM     25  N   UNL     1      48.546   2.532   6.421  0.00  0.00    +0.000 N 
ATOM     26  C   UNL     1      47.430   1.822   6.803  0.00  0.00    +0.000 C 
ATOM     27  O   UNL     1      47.263   0.670   6.455  0.00  0.00    +0.000 OA
ATOM     28  H   UNL     1      49.248   2.014   5.916  0.00  0.00    +0.000 HD
ATOM     29  H   UNL     1      48.837   3.367   6.907  0.00  0.00    +0.000 HD
ENDBRANCH  17  26
ENDBRANCH  16  21
ENDBRANCH   1  16
TORSDOF 6
ENDMDL
MODEL 3
REMARK VINA RESULT:    -8.347      2.504      4.143
REMARK INTER + INTRA:         -12.173
REMARK INTER:                 -11.665
REMARK INTRA:                  -0.508
REMARK UNBOUND:                -0.898
REMARK  Name = 
REMARK  6 active torsions:
REMARK  status: ('A' for Active; 'I' for Inactive)
REMARK    1  A    between atoms: C_2  and  C_4
REMARK    2  A    between atoms: N_8  and  C_9
REMARK    3  A    between atoms: C_9  and  C_10
REMARK    4  A    between atoms: C_10  and  C_13
REMARK    5  A    between atoms: C_17  and  C_18
REMARK    6  A    between atoms: C_18  and  C_19
REMARK                            x       y       z     vdW  Elec       q    Type
REMARK                         _______ _______ _______ _____ _____    ______ ____
ROOT
ATOM      1  C   UNL     1      43.172   5.168  12.309  0.00  0.00    +0.000 C 
ATOM      2  F   UNL     1      42.268   6.077  11.841  0.00  0.00    +0.000 F 
ATOM      3  F   UNL     1      42.608   4.653  13.447  0.00  0.00    +0.000 F 
ENDROOT
BRANCH   1   4
ATOM      4  C   UNL     1      44.530   5.782  12.591  0.00  0.00    +0.000 A 
ATOM      5  C   UNL     1      45.604   4.926  12.871  0.00  0.00    +0.000 A 
ATOM      6  C   UNL     1      46.879   5.445  13.064  0.00  0.00    +0.000 A 
ATOM      7  C   UNL     1      47.104   6.825  12.955  0.00  0.00    +0.000 A 
ATOM      8  C   UNL     1      46.047   7.709  12.680  0.00  0.00    +0.000 A 
ATOM      9  C   UNL     1      44.755   7.171  12.525  0.00  0.00    +0.000 A 
BRANCH   8  10
ATOM     10  C   UNL     1      46.262   9.214  12.570  0.00  0.00    +0.000 C 
BRANCH  10  11
ATOM     11  C   UNL     1      45.008   9.966  12.115  0.00  0.00    +0.000 C 
ATOM     12  C   UNL     1      44.405   9.671  10.730  0.00  0.00    +0.000 C 
ATOM     13  N   UNL     1      44.434  11.099  10.392  0.00  0.00    +0.000 NA
ATOM     14  C   UNL     1      45.202  11.417  11.600  0.00  0.00    +0.000 C 
ATOM     15  H   UNL     1      43.513  11.537  10.355  0.00  0.00    +0.000 HD
ENDBRANCH  10  11
ENDBRANCH   8  10
ENDBRANCH   1   4
BRANCH   1  16
ATOM     16  C   UNL     1      43.303   4.018  11.276  0.00  0.00    +0.000 C 
BRANCH  16  21
ATOM     17  C   UNL     1      46.548   2.686   7.564  0.00  0.00    +0.000 A 
ATOM     18  C   UNL     1      45.828   1.885   8.441  0.00  0.00    +0.000 A 
ATOM     19  C   UNL     1      44.897   2.481   9.288  0.00  0.00    +0.000 A 
ATOM     20  C   UNL     1      44.696   3.861   9.235  0.00  0.00    +0.000 A 
ATOM     21  N   UNL     1      43.700   4.491   9.946  0.00  0.00    +0.000 N 
ATOM     22  N   UNL     1      45.415   4.648   8.412  0.00  0.00    +0.000 NA
ATOM     23  C   UNL     1      46.333   4.051   7.604  0.00  0.00    +0.000 A 
ATOM     24  H   UNL     1      43.726   5.500   9.805  0.00  0.00    +0.000 HD
BRANCH  17  26
ATOM     25  N   UNL     1      47.966   2.987   5.619  0.00  0.00    +0.000 N 
ATOM     26  C   UNL     1      47.513   2.132   6.599  0.00  0.00    +0.000 C 
ATOM     27  O   UNL     1      47.926   0.993   6.683  0.00  0.00    +0.000 OA
ATOM     28  H   UNL     1      48.717   2.641   5.042  0.00  0.00    +0.000 HD
ATOM     29  H   UNL     1      47.854   3.988   5.692  0.00  0.00    +0.000 HD
ENDBRANCH  17  26
ENDBRANCH  16  21
ENDBRANCH   1  16
TORSDOF 6
ENDMDL
MODEL 4
REMARK VINA RESULT:    -8.268      1.959      2.561
REMARK INTER + INTRA:         -12.066
REMARK INTER:                 -11.506
REMARK INTRA:                  -0.560
REMARK UNBOUND:                -0.898
REMARK  Name = 
REMARK  6 active torsions:
REMARK  status: ('A' for Active; 'I' for Inactive)
REMARK    1  A    between atoms: C_2  and  C_4
REMARK    2  A    between atoms: N_8  and  C_9
REMARK    3  A    between atoms: C_9  and  C_10
REMARK    4  A    between atoms: C_10  and  C_13
REMARK    5  A    between atoms: C_17  and  C_18
REMARK    6  A    between atoms: C_18  and  C_19
REMARK                            x       y       z     vdW  Elec       q    Type
REMARK                         _______ _______ _______ _____ _____    ______ ____
ROOT
ATOM      1  C   UNL     1      44.383   4.281  12.235  0.00  0.00    +0.000 C 
ATOM      2  F   UNL     1      43.684   4.171  13.403  0.00  0.00    +0.000 F 
ATOM      3  F   UNL     1      45.239   3.211  12.226  0.00  0.00    +0.000 F 
ENDROOT
BRANCH   1   4
ATOM      4  C   UNL     1      45.133   5.594  12.121  0.00  0.00    +0.000 A 
ATOM      5  C   UNL     1      44.393   6.776  11.981  0.00  0.00    +0.000 A 
ATOM      6  C   UNL     1      45.040   8.006  11.945  0.00  0.00    +0.000 A 
ATOM      7  C   UNL     1      46.435   8.073  12.073  0.00  0.00    +0.000 A 
ATOM      8  C   UNL     1      47.205   6.906  12.210  0.00  0.00    +0.000 A 
ATOM      9  C   UNL     1      46.538   5.667  12.206  0.00  0.00    +0.000 A 
BRANCH   8  10
ATOM     10  C   UNL     1      48.723   6.951  12.337  0.00  0.00    +0.000 C 
BRANCH  10  11
ATOM     11  C   UNL     1      49.198   7.137  13.781  0.00  0.00    +0.000 C 
ATOM     12  C   UNL     1      48.367   6.553  14.936  0.00  0.00    +0.000 C 
ATOM     13  N   UNL     1      48.338   7.860  15.603  0.00  0.00    +0.000 NA
ATOM     14  C   UNL     1      48.938   8.519  14.438  0.00  0.00    +0.000 C 
ATOM     15  H   UNL     1      48.906   7.908  16.449  0.00  0.00    +0.000 HD
ENDBRANCH  10  11
ENDBRANCH   8  10
ENDBRANCH   1   4
BRANCH   1  16
ATOM     16  C   UNL     1      43.397   4.117  11.049  0.00  0.00    +0.000 C 
BRANCH  16  21
ATOM     17  C   UNL     1      46.723   2.819   7.396  0.00  0.00    +0.000 A 
ATOM     18  C   UNL     1      45.877   2.016   8.150  0.00  0.00    +0.000 A 
ATOM     19  C   UNL     1      44.957   2.620   9.002  0.00  0.00    +0.000 A 
ATOM     20  C   UNL     1      44.893   4.013   9.077  0.00  0.00    +0.000 A 
ATOM     21  N   UNL     1      43.920   4.671   9.795  0.00  0.00    +0.000 N 
ATOM     22  N   UNL     1      45.733   4.798   8.376  0.00  0.00    +0.000 NA
ATOM     23  C   UNL     1      46.639   4.189   7.562  0.00  0.00    +0.000 A 
ATOM     24  H   UNL     1      44.051   5.680   9.757  0.00  0.00    +0.000 HD
BRANCH  17  26
ATOM     25  N   UNL     1      47.867   2.967   5.262  0.00  0.00    +0.000 N 
ATOM     26  C   UNL     1      47.690   2.264   6.433  0.00  0.00    +0.000 C 
ATOM     27  O   UNL     1      48.332   1.261   6.671  0.00  0.00    +0.000 OA
ATOM     28  H   UNL     1      48.617   2.652   4.666  0.00  0.00    +0.000 HD
ATOM     29  H   UNL     1      47.561   3.924   5.164  0.00  0.00    +0.000 HD
ENDBRANCH  17  26
ENDBRANCH  16  21
ENDBRANCH   1  16
TORSDOF 6
ENDMDL
MODEL 5
REMARK VINA RESULT:    -8.162      3.167      7.975
REMARK INTER + INTRA:         -11.922
REMARK INTER:                 -11.188
REMARK INTRA:                  -0.734
REMARK UNBOUND:                -0.898
REMARK  Name = 
REMARK  6 active torsions:
REMARK  status: ('A' for Active; 'I' for Inactive)
REMARK    1  A    between atoms: C_2  and  C_4
REMARK    2  A    between atoms: N_8  and  C_9
REMARK    3  A    between atoms: C_9  and  C_10
REMARK    4  A    between atoms: C_10  and  C_13
REMARK    5  A    between atoms: C_17  and  C_18
REMARK    6  A    between atoms: C_18  and  C_19
REMARK                            x       y       z     vdW  Elec       q    Type
REMARK                         _______ _______ _______ _____ _____    ______ ____
ROOT
ATOM      1  C   UNL     1      45.744   6.172  11.293  0.00  0.00    +0.000 C 
ATOM      2  F   UNL     1      44.882   7.202  11.048  0.00  0.00    +0.000 F 
ATOM      3  F   UNL     1      46.969   6.621  10.873  0.00  0.00    +0.000 F 
ENDROOT
BRANCH   1   4
ATOM      4  C   UNL     1      45.347   4.892  10.583  0.00  0.00    +0.000 A 
ATOM      5  C   UNL     1      44.588   3.947  11.286  0.00  0.00    +0.000 A 
ATOM      6  C   UNL     1      44.144   2.794  10.650  0.00  0.00    +0.000 A 
ATOM      7  C   UNL     1      44.432   2.581   9.294  0.00  0.00    +0.000 A 
ATOM      8  C   UNL     1      45.195   3.507   8.563  0.00  0.00    +0.000 A 
ATOM      9  C   UNL     1      45.669   4.650   9.233  0.00  0.00    +0.000 A 
BRANCH   8  10
ATOM     10  C   UNL     1      45.534   3.292   7.093  0.00  0.00    +0.000 C 
BRANCH  10  11
ATOM     11  C   UNL     1      47.035   3.119   6.844  0.00  0.00    +0.000 C 
ATOM     12  C   UNL     1      47.549   2.914   5.408  0.00  0.00    +0.000 C 
ATOM     13  N   UNL     1      48.272   1.704   5.819  0.00  0.00    +0.000 NA
ATOM     14  C   UNL     1      47.645   1.724   7.144  0.00  0.00    +0.000 C 
ATOM     15  H   UNL     1      49.286   1.811   5.834  0.00  0.00    +0.000 HD
ENDBRANCH  10  11
ENDBRANCH   8  10
ENDBRANCH   1   4
BRANCH   1  16
ATOM     16  C   UNL     1      45.818   5.940  12.825  0.00  0.00    +0.000 C 
BRANCH  16  21
ATOM     17  C   UNL     1      48.473   4.360  16.893  0.00  0.00    +0.000 A 
ATOM     18  C   UNL     1      47.444   3.729  16.206  0.00  0.00    +0.000 A 
ATOM     19  C   UNL     1      46.961   4.306  15.035  0.00  0.00    +0.000 A 
ATOM     20  C   UNL     1      47.522   5.495  14.568  0.00  0.00    +0.000 A 
ATOM     21  N   UNL     1      47.184   6.044  13.351  0.00  0.00    +0.000 N 
ATOM     22  N   UNL     1      48.496   6.132  15.245  0.00  0.00    +0.000 NA
ATOM     23  C   UNL     1      48.943   5.563  16.398  0.00  0.00    +0.000 A 
ATOM     24  H   UNL     1      47.671   6.924  13.193  0.00  0.00    +0.000 HD
BRANCH  17  26
ATOM     25  N   UNL     1      48.237   3.092  18.948  0.00  0.00    +0.000 N 
ATOM     26  C   UNL     1      49.077   3.792  18.110  0.00  0.00    +0.000 C 
ATOM     27  O   UNL     1      50.264   3.897  18.348  0.00  0.00    +0.000 OA
ATOM     28  H   UNL     1      48.680   2.603  19.710  0.00  0.00    +0.000 HD
ATOM     29  H   UNL     1      47.333   2.763  18.641  0.00  0.00    +0.000 HD
ENDBRANCH  17  26
ENDBRANCH  16  21
ENDBRANCH   1  16
TORSDOF 6
ENDMDL
MODEL 6
REMARK VINA RESULT:    -7.540      3.579      7.380
REMARK INTER + INTRA:         -11.082
REMARK INTER:                 -10.380
REMARK INTRA:                  -0.702
REMARK UNBOUND:                -0.898
REMARK  Name = 
REMARK  6 active torsions:
REMARK  status: ('A' for Active; 'I' for Inactive)
REMARK    1  A    between atoms: C_2  and  C_4
REMARK    2  A    between atoms: N_8  and  C_9
REMARK    3  A    between atoms: C_9  and  C_10
REMARK    4  A    between atoms: C_10  and  C_13
REMARK    5  A    between atoms: C_17  and  C_18
REMARK    6  A    between atoms: C_18  and  C_19
REMARK                            x       y       z     vdW  Elec       q    Type
REMARK                         _______ _______ _______ _____ _____    ______ ____
ROOT
ATOM      1  C   UNL     1      43.721   5.768  11.484  0.00  0.00    +0.000 C 
ATOM      2  F   UNL     1      43.372   5.395  12.750  0.00  0.00    +0.000 F 
ATOM      3  F   UNL     1      42.583   6.306  10.941  0.00  0.00    +0.000 F 
ENDROOT
BRANCH   1   4
ATOM      4  C   UNL     1      44.239   4.610  10.653  0.00  0.00    +0.000 A 
ATOM      5  C   UNL     1      43.804   3.316  10.966  0.00  0.00    +0.000 A 
ATOM      6  C   UNL     1      44.200   2.236  10.184  0.00  0.00    +0.000 A 
ATOM      7  C   UNL     1      45.017   2.439   9.063  0.00  0.00    +0.000 A 
ATOM      8  C   UNL     1      45.474   3.724   8.725  0.00  0.00    +0.000 A 
ATOM      9  C   UNL     1      45.095   4.801   9.550  0.00  0.00    +0.000 A 
BRANCH   8  10
ATOM     10  C   UNL     1      46.374   3.970   7.520  0.00  0.00    +0.000 C 
BRANCH  10  11
ATOM     11  C   UNL     1      46.639   2.703   6.703  0.00  0.00    +0.000 C 
ATOM     12  C   UNL     1      47.899   1.865   6.986  0.00  0.00    +0.000 C 
ATOM     13  N   UNL     1      48.277   1.918   5.569  0.00  0.00    +0.000 NA
ATOM     14  C   UNL     1      47.220   2.891   5.275  0.00  0.00    +0.000 C 
ATOM     15  H   UNL     1      48.175   1.030   5.078  0.00  0.00    +0.000 HD
ENDBRANCH  10  11
ENDBRANCH   8  10
ENDBRANCH   1   4
BRANCH   1  16
ATOM     16  C   UNL     1      44.787   6.890  11.571  0.00  0.00    +0.000 C 
BRANCH  16  21
ATOM     17  C   UNL     1      49.556   8.039  12.996  0.00  0.00    +0.000 A 
ATOM     18  C   UNL     1      48.707   8.706  12.122  0.00  0.00    +0.000 A 
ATOM     19  C   UNL     1      47.392   8.268  11.993  0.00  0.00    +0.000 A 
ATOM     20  C   UNL     1      46.948   7.180  12.746  0.00  0.00    +0.000 A 
ATOM     21  N   UNL     1      45.630   6.783  12.767  0.00  0.00    +0.000 N 
ATOM     22  N   UNL     1      47.774   6.506  13.570  0.00  0.00    +0.000 NA
ATOM     23  C   UNL     1      49.061   6.938  13.669  0.00  0.00    +0.000 A 
ATOM     24  H   UNL     1      45.501   5.956  13.347  0.00  0.00    +0.000 HD
BRANCH  17  26
ATOM     25  N   UNL     1      51.889   8.026  12.330  0.00  0.00    +0.000 N 
ATOM     26  C   UNL     1      50.946   8.468  13.231  0.00  0.00    +0.000 C 
ATOM     27  O   UNL     1      51.244   9.209  14.146  0.00  0.00    +0.000 OA
ATOM     28  H   UNL     1      52.811   8.423  12.424  0.00  0.00    +0.000 HD
ATOM     29  H   UNL     1      51.630   7.650  11.430  0.00  0.00    +0.000 HD
ENDBRANCH  17  26
ENDBRANCH  16  21
ENDBRANCH   1  16
TORSDOF 6
ENDMDL
MODEL 7
REMARK VINA RESULT:    -7.415      3.370      8.137
REMARK INTER + INTRA:         -10.913
REMARK INTER:                 -10.305
REMARK INTRA:                  -0.608
REMARK UNBOUND:                -0.898
REMARK  Name = 
REMARK  6 active torsions:
REMARK  status: ('A' for Active; 'I' for Inactive)
REMARK    1  A    between atoms: C_2  and  C_4
REMARK    2  A    between atoms: N_8  and  C_9
REMARK    3  A    between atoms: C_9  and  C_10
REMARK    4  A    between atoms: C_10  and  C_13
REMARK    5  A    between atoms: C_17  and  C_18
REMARK    6  A    between atoms: C_18  and  C_19
REMARK                            x       y       z     vdW  Elec       q    Type
REMARK                         _______ _______ _______ _____ _____    ______ ____
ROOT
ATOM      1  C   UNL     1      45.036   6.077  11.638  0.00  0.00    +0.000 C 
ATOM      2  F   UNL     1      44.067   5.966  12.593  0.00  0.00    +0.000 F 
ATOM      3  F   UNL     1      44.794   7.274  11.017  0.00  0.00    +0.000 F 
ENDROOT
BRANCH   1   4
ATOM      4  C   UNL     1      45.022   4.926  10.651  0.00  0.00    +0.000 A 
ATOM      5  C   UNL     1      44.232   3.806  10.943  0.00  0.00    +0.000 A 
ATOM      6  C   UNL     1      44.136   2.761  10.031  0.00  0.00    +0.000 A 
ATOM      7  C   UNL     1      44.808   2.832   8.803  0.00  0.00    +0.000 A 
ATOM      8  C   UNL     1      45.612   3.940   8.482  0.00  0.00    +0.000 A 
ATOM      9  C   UNL     1      45.729   4.971   9.433  0.00  0.00    +0.000 A 
BRANCH   8  10
ATOM     10  C   UNL     1      46.364   4.036   7.161  0.00  0.00    +0.000 C 
BRANCH  10  11
ATOM     11  C   UNL     1      46.668   2.667   6.544  0.00  0.00    +0.000 C 
ATOM     12  C   UNL     1      47.907   1.882   7.008  0.00  0.00    +0.000 C 
ATOM     13  N   UNL     1      48.359   1.737   5.619  0.00  0.00    +0.000 NA
ATOM     14  C   UNL     1      47.324   2.656   5.137  0.00  0.00    +0.000 C 
ATOM     15  H   UNL     1      48.280   0.788   5.252  0.00  0.00    +0.000 HD
ENDBRANCH  10  11
ENDBRANCH   8  10
ENDBRANCH   1   4
BRANCH   1  16
ATOM     16  C   UNL     1      46.417   6.170  12.339  0.00  0.00    +0.000 C 
BRANCH  16  21
ATOM     17  C   UNL     1      49.520   6.077  16.395  0.00  0.00    +0.000 A 
ATOM     18  C   UNL     1      49.438   7.003  15.363  0.00  0.00    +0.000 A 
ATOM     19  C   UNL     1      48.412   6.883  14.430  0.00  0.00    +0.000 A 
ATOM     20  C   UNL     1      47.483   5.849  14.551  0.00  0.00    +0.000 A 
ATOM     21  N   UNL     1      46.371   5.755  13.745  0.00  0.00    +0.000 N 
ATOM     22  N   UNL     1      47.575   4.927  15.529  0.00  0.00    +0.000 NA
ATOM     23  C   UNL     1      48.596   5.049  16.421  0.00  0.00    +0.000 A 
ATOM     24  H   UNL     1      45.827   4.921  13.960  0.00  0.00    +0.000 HD
BRANCH  17  26
ATOM     25  N   UNL     1      51.827   5.815  17.098  0.00  0.00    +0.000 N 
ATOM     26  C   UNL     1      50.542   6.160  17.452  0.00  0.00    +0.000 C 
ATOM     27  O   UNL     1      50.279   6.552  18.572  0.00  0.00    +0.000 OA
ATOM     28  H   UNL     1      52.540   5.993  17.788  0.00  0.00    +0.000 HD
ATOM     29  H   UNL     1      52.115   5.755  16.132  0.00  0.00    +0.000 HD
ENDBRANCH  17  26
ENDBRANCH  16  21
ENDBRANCH   1  16
TORSDOF 6
ENDMDL
MODEL 8
REMARK VINA RESULT:    -6.874      4.102      7.458
REMARK INTER + INTRA:         -10.183
REMARK INTER:                  -9.017
REMARK INTRA:                  -1.166
REMARK UNBOUND:                -0.898
REMARK  Name = 
REMARK  6 active torsions:
REMARK  status: ('A' for Active; 'I' for Inactive)
REMARK    1  A    between atoms: C_2  and  C_4
REMARK    2  A    between atoms: N_8  and  C_9
REMARK    3  A    between atoms: C_9  and  C_10
REMARK    4  A    between atoms: C_10  and  C_13
REMARK    5  A    between atoms: C_17  and  C_18
REMARK    6  A    between atoms: C_18  and  C_19
REMARK                            x       y       z     vdW  Elec       q    Type
REMARK                         _______ _______ _______ _____ _____    ______ ____
ROOT
ATOM      1  C   UNL     1      49.023   8.017  12.275  0.00  0.00    +0.000 C 
ATOM      2  F   UNL     1      49.503   8.987  11.444  0.00  0.00    +0.000 F 
ATOM      3  F   UNL     1      49.749   6.894  11.974  0.00  0.00    +0.000 F 
ENDROOT
BRANCH   1   4
ATOM      4  C   UNL     1      47.535   7.779  12.103  0.00  0.00    +0.000 A 
ATOM      5  C   UNL     1      46.647   8.783  12.512  0.00  0.00    +0.000 A 
ATOM      6  C   UNL     1      45.280   8.634  12.307  0.00  0.00    +0.000 A 
ATOM      7  C   UNL     1      44.784   7.489  11.667  0.00  0.00    +0.000 A 
ATOM      8  C   UNL     1      45.648   6.463  11.249  0.00  0.00    +0.000 A 
ATOM      9  C   UNL     1      47.025   6.612  11.500  0.00  0.00    +0.000 A 
BRANCH   8  10
ATOM     10  C   UNL     1      45.133   5.203  10.564  0.00  0.00    +0.000 C 
BRANCH  10  11
ATOM     11  C   UNL     1      44.032   4.496  11.360  0.00  0.00    +0.000 C 
ATOM     12  C   UNL     1      44.322   4.008  12.791  0.00  0.00    +0.000 C 
ATOM     13  N   UNL     1      43.856   2.659  12.446  0.00  0.00    +0.000 NA
ATOM     14  C   UNL     1      43.763   3.004  11.024  0.00  0.00    +0.000 C 
ATOM     15  H   UNL     1      42.965   2.405  12.873  0.00  0.00    +0.000 HD
ENDBRANCH  10  11
ENDBRANCH   8  10
ENDBRANCH   1   4
BRANCH   1  16
ATOM     16  C   UNL     1      49.341   8.414  13.740  0.00  0.00    +0.000 C 
BRANCH  16  21
ATOM     17  C   UNL     1      48.179   4.540  16.860  0.00  0.00    +0.000 A 
ATOM     18  C   UNL     1      47.471   5.051  15.780  0.00  0.00    +0.000 A 
ATOM     19  C   UNL     1      48.060   6.037  14.993  0.00  0.00    +0.000 A 
ATOM     20  C   UNL     1      49.348   6.485  15.293  0.00  0.00    +0.000 A 
ATOM     21  N   UNL     1      50.037   7.355  14.479  0.00  0.00    +0.000 N 
ATOM     22  N   UNL     1      50.027   6.019  16.359  0.00  0.00    +0.000 NA
ATOM     23  C   UNL     1      49.428   5.070  17.128  0.00  0.00    +0.000 A 
ATOM     24  H   UNL     1      50.945   7.591  14.874  0.00  0.00    +0.000 HD
BRANCH  17  26
ATOM     25  N   UNL     1      48.412   3.109  18.805  0.00  0.00    +0.000 N 
ATOM     26  C   UNL     1      47.652   3.461  17.712  0.00  0.00    +0.000 C 
ATOM     27  O   UNL     1      46.580   2.932  17.492  0.00  0.00    +0.000 OA
ATOM     28  H   UNL     1      47.988   2.461  19.450  0.00  0.00    +0.000 HD
ATOM     29  H   UNL     1      49.147   3.706  19.156  0.00  0.00    +0.000 HD
ENDBRANCH  17  26
ENDBRANCH  16  21
ENDBRANCH   1  16
TORSDOF 6
ENDMDL
MODEL 9
REMARK VINA RESULT:    -6.670      3.652      8.271
REMARK INTER + INTRA:          -9.907
REMARK INTER:                  -9.101
REMARK INTRA:                  -0.806
REMARK UNBOUND:                -0.898
REMARK  Name = 
REMARK  6 active torsions:
REMARK  status: ('A' for Active; 'I' for Inactive)
REMARK    1  A    between atoms: C_2  and  C_4
REMARK    2  A    between atoms: N_8  and  C_9
REMARK    3  A    between atoms: C_9  and  C_10
REMARK    4  A    between atoms: C_10  and  C_13
REMARK    5  A    between atoms: C_17  and  C_18
REMARK    6  A    between atoms: C_18  and  C_19
REMARK                            x       y       z     vdW  Elec       q    Type
REMARK                         _______ _______ _______ _____ _____    ______ ____
ROOT
ATOM      1  C   UNL     1      46.773   4.480  13.546  0.00  0.00    +0.000 C 
ATOM      2  F   UNL     1      47.728   5.388  13.192  0.00  0.00    +0.000 F 
ATOM      3  F   UNL     1      47.374   3.255  13.413  0.00  0.00    +0.000 F 
ENDROOT
BRANCH   1   4
ATOM      4  C   UNL     1      45.522   4.580  12.696  0.00  0.00    +0.000 A 
ATOM      5  C   UNL     1      44.383   5.179  13.251  0.00  0.00    +0.000 A 
ATOM      6  C   UNL     1      43.239   5.354  12.481  0.00  0.00    +0.000 A 
ATOM      7  C   UNL     1      43.226   4.957  11.136  0.00  0.00    +0.000 A 
ATOM      8  C   UNL     1      44.350   4.349  10.551  0.00  0.00    +0.000 A 
ATOM      9  C   UNL     1      45.486   4.143  11.356  0.00  0.00    +0.000 A 
BRANCH   8  10
ATOM     10  C   UNL     1      44.356   3.894   9.097  0.00  0.00    +0.000 C 
BRANCH  10  11
ATOM     11  C   UNL     1      45.734   3.423   8.623  0.00  0.00    +0.000 C 
ATOM     12  C   UNL     1      46.122   3.576   7.142  0.00  0.00    +0.000 C 
ATOM     13  N   UNL     1      46.475   2.154   7.067  0.00  0.00    +0.000 NA
ATOM     14  C   UNL     1      45.922   1.899   8.401  0.00  0.00    +0.000 C 
ATOM     15  H   UNL     1      47.477   1.977   6.989  0.00  0.00    +0.000 HD
ENDBRANCH  10  11
ENDBRANCH   8  10
ENDBRANCH   1   4
BRANCH   1  16
ATOM     16  C   UNL     1      46.425   4.682  15.045  0.00  0.00    +0.000 C 
BRANCH  16  21
ATOM     17  C   UNL     1      50.643   3.580  17.706  0.00  0.00    +0.000 A 
ATOM     18  C   UNL     1      50.037   4.808  17.474  0.00  0.00    +0.000 A 
ATOM     19  C   UNL     1      48.808   4.841  16.821  0.00  0.00    +0.000 A 
ATOM     20  C   UNL     1      48.203   3.648  16.423  0.00  0.00    +0.000 A 
ATOM     21  N   UNL     1      46.931   3.602  15.898  0.00  0.00    +0.000 N 
ATOM     22  N   UNL     1      48.800   2.455  16.614  0.00  0.00    +0.000 NA
ATOM     23  C   UNL     1      50.010   2.444  17.236  0.00  0.00    +0.000 A 
ATOM     24  H   UNL     1      46.671   2.652  15.639  0.00  0.00    +0.000 HD
BRANCH  17  26
ATOM     25  N   UNL     1      52.455   2.187  18.517  0.00  0.00    +0.000 N 
ATOM     26  C   UNL     1      51.917   3.451  18.434  0.00  0.00    +0.000 C 
ATOM     27  O   UNL     1      52.490   4.415  18.903  0.00  0.00    +0.000 OA
ATOM     28  H   UNL     1      53.384   2.126  18.905  0.00  0.00    +0.000 HD
ATOM     29  H   UNL     1      52.149   1.437  17.914  0.00  0.00    +0.000 HD
ENDBRANCH  17  26
ENDBRANCH  16  21
ENDBRANCH   1  16
TORSDOF 6
ENDMDL
