MODEL 1
REMARK VINA RESULT:    -7.527      0.000      0.000
REMARK INTER + INTRA:         -10.114
REMARK INTER:                  -9.508
REMARK INTRA:                  -0.607
REMARK UNBOUND:                -0.607
REMARK  Name = 
REMARK  5 active torsions:
REMARK  status: ('A' for Active; 'I' for Inactive)
REMARK    1  A    between atoms: N_1  and  C_2
REMARK    2  A    between atoms: C_2  and  C_3
REMARK    3  A    between atoms: C_3  and  C_4
REMARK    4  A    between atoms: C_7  and  C_8
REMARK    5  A    between atoms: C_8  and  N_9
REMARK                            x       y       z     vdW  Elec       q    Type
REMARK                         _______ _______ _______ _____ _____    ______ ____
ROOT
ATOM      1  C   UNL     1      45.968   2.629   7.920  0.00  0.00    +0.000 A 
ATOM      2  C   UNL     1      45.264   2.115   9.017  0.00  0.00    +0.000 A 
ATOM      3  C   UNL     1      44.797   2.964  10.024  0.00  0.00    +0.000 A 
ATOM      4  C   UNL     1      45.015   4.347   9.954  0.00  0.00    +0.000 A 
ATOM      5  C   UNL     1      45.695   4.861   8.840  0.00  0.00    +0.000 A 
ATOM      6  C   UNL     1      46.161   4.012   7.832  0.00  0.00    +0.000 A 
ENDROOT
BRANCH   1   7
ATOM      7  C   UNL     1      46.535   1.704   6.871  0.00  0.00    +0.000 C 
BRANCH   7   8
ATOM      8  C   UNL     1      47.327   2.437   5.783  0.00  0.00    +0.000 C 
BRANCH   8   9
ATOM      9  N   UNL     1      48.599   1.760   5.526  0.00  0.00    +0.000 NA
ATOM     10  H   UNL     1      48.968   2.065   4.625  0.00  0.00    +0.000 HD
ATOM     11  H   UNL     1      48.444   0.756   5.445  0.00  0.00    +0.000 HD
ENDBRANCH   8   9
ENDBRANCH   7   8
ENDBRANCH   1   7
BRANCH   4  12
ATOM     12  C   UNL     1      44.530   5.263  11.049  0.00  0.00    +0.000 C 
BRANCH  12  13
ATOM     13  N   UNL     1      45.430   5.288  12.200  0.00  0.00    +0.000 N 
ATOM     14  C   UNL     1      45.302   4.468  13.298  0.00  0.00    +0.000 A 
ATOM     15  C   UNL     1      46.397   4.664  14.111  0.00  0.00    +0.000 A 
ATOM     16  C   UNL     1      47.219   5.627  13.487  0.00  0.00    +0.000 A 
ATOM     17  N   UNL     1      48.412   6.117  13.905  0.00  0.00    +0.000 NA
ATOM     18  C   UNL     1      48.970   7.027  13.082  0.00  0.00    +0.000 A 
ATOM     19  C   UNL     1      48.422   7.480  11.892  0.00  0.00    +0.000 A 
ATOM     20  C   UNL     1      47.198   6.971  11.468  0.00  0.00    +0.000 A 
ATOM     21  C   UNL     1      46.600   6.018  12.300  0.00  0.00    +0.000 A 
ENDBRANCH  12  13
ENDBRANCH   4  12
TORSDOF 5
ENDMDL
MODEL 2
REMARK VINA RESULT:    -7.507      1.420      2.042
REMARK INTER + INTRA:         -10.089
REMARK INTER:                  -9.564
REMARK INTRA:                  -0.525
REMARK UNBOUND:                -0.607
REMARK  Name = 
REMARK  5 active torsions:
REMARK  status: ('A' for Active; 'I' for Inactive)
REMARK    1  A    between atoms: N_1  and  C_2
REMARK    2  A    between atoms: C_2  and  C_3
REMARK    3  A    between atoms: C_3  and  C_4
REMARK    4  A    between atoms: C_7  and  C_8
REMARK    5  A    between atoms: C_8  and  N_9
REMARK                            x       y       z     vdW  Elec       q    Type
REMARK                         _______ _______ _______ _____ _____    ______ ____
ROOT
ATOM      1  C   UNL     1      46.100   2.222   7.864  0.00  0.00    +0.000 A 
ATOM      2  C   UNL     1      45.245   1.646   8.813  0.00  0.00    +0.000 A 
ATOM      3  C   UNL     1      44.478   2.452   9.660  0.00  0.00    +0.000 A 
ATOM      4  C   UNL     1      44.541   3.849   9.571  0.00  0.00    +0.000 A 
ATOM      5  C   UNL     1      45.377   4.421   8.601  0.00  0.00    +0.000 A 
ATOM      6  C   UNL     1      46.143   3.616   7.753  0.00  0.00    +0.000 A 
ENDROOT
BRANCH   1   7
ATOM      7  C   UNL     1      46.982   1.353   7.000  0.00  0.00    +0.000 C 
BRANCH   7   8
ATOM      8  C   UNL     1      48.294   2.035   6.598  0.00  0.00    +0.000 C 
BRANCH   8   9
ATOM      9  N   UNL     1      48.361   2.211   5.147  0.00  0.00    +0.000 NA
ATOM     10  H   UNL     1      48.333   3.206   4.924  0.00  0.00    +0.000 HD
ATOM     11  H   UNL     1      47.536   1.799   4.711  0.00  0.00    +0.000 HD
ENDBRANCH   8   9
ENDBRANCH   7   8
ENDBRANCH   1   7
BRANCH   4  12
ATOM     12  C   UNL     1      43.730   4.720  10.498  0.00  0.00    +0.000 C 
BRANCH  12  13
ATOM     13  N   UNL     1      44.565   5.536  11.376  0.00  0.00    +0.000 N 
ATOM     14  C   UNL     1      44.482   6.908  11.464  0.00  0.00    +0.000 A 
ATOM     15  C   UNL     1      45.308   7.324  12.485  0.00  0.00    +0.000 A 
ATOM     16  C   UNL     1      45.906   6.172  13.041  0.00  0.00    +0.000 A 
ATOM     17  N   UNL     1      46.770   6.088  14.081  0.00  0.00    +0.000 NA
ATOM     18  C   UNL     1      47.163   4.836  14.392  0.00  0.00    +0.000 A 
ATOM     19  C   UNL     1      46.764   3.681  13.737  0.00  0.00    +0.000 A 
ATOM     20  C   UNL     1      45.875   3.775  12.670  0.00  0.00    +0.000 A 
ATOM     21  C   UNL     1      45.443   5.063  12.333  0.00  0.00    +0.000 A 
ENDBRANCH  12  13
ENDBRANCH   4  12
TORSDOF 5
ENDMDL
MODEL 3
REMARK VINA RESULT:    -7.386      1.490      1.775
REMARK INTER + INTRA:          -9.935
REMARK INTER:                  -9.381
REMARK INTRA:                  -0.554
REMARK UNBOUND:                -0.607
REMARK  Name = 
REMARK  5 active torsions:
REMARK  status: ('A' for Active; 'I' for Inactive)
REMARK    1  A    between atoms: N_1  and  C_2
REMARK    2  A    between atoms: C_2  and  C_3
REMARK    3  A    between atoms: C_3  and  C_4
REMARK    4  A    between atoms: C_7  and  C_8
REMARK    5  A    between atoms: C_8  and  N_9
REMARK                            x       y       z     vdW  Elec       q    Type
REMARK                         _______ _______ _______ _____ _____    ______ ____
ROOT
ATOM      1  C   UNL     1      46.098   2.271   7.824  0.00  0.00    +0.000 A 
ATOM      2  C   UNL     1      45.283   1.641   8.774  0.00  0.00    +0.000 A 
ATOM      3  C   UNL     1      44.521   2.396   9.670  0.00  0.00    +0.000 A 
ATOM      4  C   UNL     1      44.549   3.797   9.632  0.00  0.00    +0.000 A 
ATOM      5  C   UNL     1      45.345   4.424   8.662  0.00  0.00    +0.000 A 
ATOM      6  C   UNL     1      46.106   3.669   7.764  0.00  0.00    +0.000 A 
ENDROOT
BRANCH   1   7
ATOM      7  C   UNL     1      46.976   1.456   6.906  0.00  0.00    +0.000 C 
BRANCH   7   8
ATOM      8  C   UNL     1      48.270   2.176   6.511  0.00  0.00    +0.000 C 
BRANCH   8   9
ATOM      9  N   UNL     1      48.279   2.472   5.078  0.00  0.00    +0.000 NA
ATOM     10  H   UNL     1      49.137   2.970   4.841  0.00  0.00    +0.000 HD
ATOM     11  H   UNL     1      47.511   3.105   4.853  0.00  0.00    +0.000 HD
ENDBRANCH   8   9
ENDBRANCH   7   8
ENDBRANCH   1   7
BRANCH   4  12
ATOM     12  C   UNL     1      43.744   4.614  10.611  0.00  0.00    +0.000 C 
BRANCH  12  13
ATOM     13  N   UNL     1      44.567   5.193  11.670  0.00  0.00    +0.000 N 
ATOM     14  C   UNL     1      45.309   4.452  12.563  0.00  0.00    +0.000 A 
ATOM     15  C   UNL     1      46.065   5.322  13.319  0.00  0.00    +0.000 A 
ATOM     16  C   UNL     1      45.780   6.630  12.868  0.00  0.00    +0.000 A 
ATOM     17  N   UNL     1      46.304   7.803  13.299  0.00  0.00    +0.000 NA
ATOM     18  C   UNL     1      45.840   8.898  12.662  0.00  0.00    +0.000 A 
ATOM     19  C   UNL     1      44.897   8.900  11.647  0.00  0.00    +0.000 A 
ATOM     20  C   UNL     1      44.364   7.690  11.210  0.00  0.00    +0.000 A 
ATOM     21  C   UNL     1      44.835   6.537  11.847  0.00  0.00    +0.000 A 
ENDBRANCH  12  13
ENDBRANCH   4  12
TORSDOF 5
ENDMDL
MODEL 4
REMARK VINA RESULT:    -5.861      2.016      6.032
REMARK INTER + INTRA:          -8.010
REMARK INTER:                  -7.435
REMARK INTRA:                  -0.575
REMARK UNBOUND:                -0.607
REMARK  Name = 
REMARK  5 active torsions:
REMARK  status: ('A' for Active; 'I' for Inactive)
REMARK    1  A    between atoms: N_1  and  C_2
REMARK    2  A    between atoms: C_2  and  C_3
REMARK    3  A    between atoms: C_3  and  C_4
REMARK    4  A    between atoms: C_7  and  C_8
REMARK    5  A    between atoms: C_8  and  N_9
REMARK                            x       y       z     vdW  Elec       q    Type
REMARK                         _______ _______ _______ _____ _____    ______ ____
ROOT
ATOM      1  C   UNL     1      47.951   7.173  13.701  0.00  0.00    +0.000 A 
ATOM      2  C   UNL     1      47.560   5.830  13.782  0.00  0.00    +0.000 A 
ATOM      3  C   UNL     1      46.300   5.428  13.330  0.00  0.00    +0.000 A 
ATOM      4  C   UNL     1      45.406   6.357  12.778  0.00  0.00    +0.000 A 
ATOM      5  C   UNL     1      45.813   7.695  12.673  0.00  0.00    +0.000 A 
ATOM      6  C   UNL     1      47.073   8.097  13.124  0.00  0.00    +0.000 A 
ENDROOT
BRANCH   1   7
ATOM      7  C   UNL     1      49.282   7.619  14.257  0.00  0.00    +0.000 C 
BRANCH   7   8
ATOM      8  C   UNL     1      50.175   8.299  13.215  0.00  0.00    +0.000 C 
BRANCH   8   9
ATOM      9  N   UNL     1      50.532   7.362  12.149  0.00  0.00    +0.000 NA
ATOM     10  H   UNL     1      50.831   7.883  11.325  0.00  0.00    +0.000 HD
ATOM     11  H   UNL     1      49.708   6.831  11.867  0.00  0.00    +0.000 HD
ENDBRANCH   8   9
ENDBRANCH   7   8
ENDBRANCH   1   7
BRANCH   4  12
ATOM     12  C   UNL     1      44.039   5.929  12.308  0.00  0.00    +0.000 C 
BRANCH  12  13
ATOM     13  N   UNL     1      44.036   4.584  11.737  0.00  0.00    +0.000 N 
ATOM     14  C   UNL     1      43.380   3.509  12.296  0.00  0.00    +0.000 A 
ATOM     15  C   UNL     1      43.473   2.448  11.423  0.00  0.00    +0.000 A 
ATOM     16  C   UNL     1      44.199   2.891  10.296  0.00  0.00    +0.000 A 
ATOM     17  N   UNL     1      44.516   2.202   9.172  0.00  0.00    +0.000 NA
ATOM     18  C   UNL     1      45.215   2.903   8.256  0.00  0.00    +0.000 A 
ATOM     19  C   UNL     1      45.619   4.222   8.388  0.00  0.00    +0.000 A 
ATOM     20  C   UNL     1      45.288   4.923   9.545  0.00  0.00    +0.000 A 
ATOM     21  C   UNL     1      44.555   4.223  10.508  0.00  0.00    +0.000 A 
ENDBRANCH  12  13
ENDBRANCH   4  12
TORSDOF 5
ENDMDL
MODEL 5
REMARK VINA RESULT:    -5.830      2.087      6.670
REMARK INTER + INTRA:          -7.970
REMARK INTER:                  -7.540
REMARK INTRA:                  -0.430
REMARK UNBOUND:                -0.607
REMARK  Name = 
REMARK  5 active torsions:
REMARK  status: ('A' for Active; 'I' for Inactive)
REMARK    1  A    between atoms: N_1  and  C_2
REMARK    2  A    between atoms: C_2  and  C_3
REMARK    3  A    between atoms: C_3  and  C_4
REMARK    4  A    between atoms: C_7  and  C_8
REMARK    5  A    between atoms: C_8  and  N_9
REMARK                            x       y       z     vdW  Elec       q    Type
REMARK                         _______ _______ _______ _____ _____    ______ ____
ROOT
ATOM      1  C   UNL     1      47.914   7.365  13.949  0.00  0.00    +0.000 A 
ATOM      2  C   UNL     1      47.013   8.382  13.609  0.00  0.00    +0.000 A 
ATOM      3  C   UNL     1      45.858   8.092  12.877  0.00  0.00    +0.000 A 
ATOM      4  C   UNL     1      45.573   6.779  12.476  0.00  0.00    +0.000 A 
ATOM      5  C   UNL     1      46.464   5.760  12.842  0.00  0.00    +0.000 A 
ATOM      6  C   UNL     1      47.618   6.048  13.576  0.00  0.00    +0.000 A 
ENDROOT
BRANCH   1   7
ATOM      7  C   UNL     1      49.197   7.689  14.676  0.00  0.00    +0.000 C 
BRANCH   7   8
ATOM      8  C   UNL     1      49.358   6.919  15.991  0.00  0.00    +0.000 C 
BRANCH   8   9
ATOM      9  N   UNL     1      48.319   7.305  16.946  0.00  0.00    +0.000 NA
ATOM     10  H   UNL     1      48.746   7.497  17.852  0.00  0.00    +0.000 HD
ATOM     11  H   UNL     1      47.679   6.524  17.093  0.00  0.00    +0.000 HD
ENDBRANCH   8   9
ENDBRANCH   7   8
ENDBRANCH   1   7
BRANCH   4  12
ATOM     12  C   UNL     1      44.338   6.468  11.668  0.00  0.00    +0.000 C 
BRANCH  12  13
ATOM     13  N   UNL     1      44.187   5.041  11.400  0.00  0.00    +0.000 N 
ATOM     14  C   UNL     1      43.433   4.186  12.173  0.00  0.00    +0.000 A 
ATOM     15  C   UNL     1      43.401   2.958  11.549  0.00  0.00    +0.000 A 
ATOM     16  C   UNL     1      44.150   3.070  10.358  0.00  0.00    +0.000 A 
ATOM     17  N   UNL     1      44.376   2.127   9.411  0.00  0.00    +0.000 NA
ATOM     18  C   UNL     1      45.127   2.537   8.369  0.00  0.00    +0.000 A 
ATOM     19  C   UNL     1      45.668   3.805   8.217  0.00  0.00    +0.000 A 
ATOM     20  C   UNL     1      45.431   4.768   9.193  0.00  0.00    +0.000 A 
ATOM     21  C   UNL     1      44.645   4.371  10.281  0.00  0.00    +0.000 A 
ENDBRANCH  12  13
ENDBRANCH   4  12
TORSDOF 5
ENDMDL
MODEL 6
REMARK VINA RESULT:    -5.654      1.791      3.105
REMARK INTER + INTRA:          -7.748
REMARK INTER:                  -7.643
REMARK INTRA:                  -0.105
REMARK UNBOUND:                -0.607
REMARK  Name = 
REMARK  5 active torsions:
REMARK  status: ('A' for Active; 'I' for Inactive)
REMARK    1  A    between atoms: N_1  and  C_2
REMARK    2  A    between atoms: C_2  and  C_3
REMARK    3  A    between atoms: C_3  and  C_4
REMARK    4  A    between atoms: C_7  and  C_8
REMARK    5  A    between atoms: C_8  and  N_9
REMARK                            x       y       z     vdW  Elec       q    Type
REMARK                         _______ _______ _______ _____ _____    ______ ____
ROOT
ATOM      1  C   UNL     1      45.095   3.779   9.186  0.00  0.00    +0.000 A 
ATOM      2  C   UNL     1      45.342   5.129   9.462  0.00  0.00    +0.000 A 
ATOM      3  C   UNL     1      45.377   5.591  10.781  0.00  0.00    +0.000 A 
ATOM      4  C   UNL     1      45.172   4.712  11.854  0.00  0.00    +0.000 A 
ATOM      5  C   UNL     1      44.952   3.356  11.574  0.00  0.00    +0.000 A 
ATOM      6  C   UNL     1      44.920   2.893  10.256  0.00  0.00    +0.000 A 
ENDROOT
BRANCH   1   7
ATOM      7  C   UNL     1      44.986   3.295   7.760  0.00  0.00    +0.000 C 
BRANCH   7   8
ATOM      8  C   UNL     1      46.342   2.964   7.129  0.00  0.00    +0.000 C 
BRANCH   8   9
ATOM      9  N   UNL     1      46.863   4.115   6.390  0.00  0.00    +0.000 NA
ATOM     10  H   UNL     1      47.818   4.305   6.690  0.00  0.00    +0.000 HD
ATOM     11  H   UNL     1      46.320   4.947   6.622  0.00  0.00    +0.000 HD
ENDBRANCH   8   9
ENDBRANCH   7   8
ENDBRANCH   1   7
BRANCH   4  12
ATOM     12  C   UNL     1      45.188   5.212  13.276  0.00  0.00    +0.000 C 
BRANCH  12  13
ATOM     13  N   UNL     1      46.509   5.673  13.696  0.00  0.00    +0.000 N 
ATOM     14  C   UNL     1      47.177   6.729  13.117  0.00  0.00    +0.000 A 
ATOM     15  C   UNL     1      48.317   6.971  13.852  0.00  0.00    +0.000 A 
ATOM     16  C   UNL     1      48.340   6.040  14.914  0.00  0.00    +0.000 A 
ATOM     17  N   UNL     1      49.256   5.913  15.905  0.00  0.00    +0.000 NA
ATOM     18  C   UNL     1      49.000   4.929  16.790  0.00  0.00    +0.000 A 
ATOM     19  C   UNL     1      47.913   4.070  16.747  0.00  0.00    +0.000 A 
ATOM     20  C   UNL     1      46.976   4.207  15.726  0.00  0.00    +0.000 A 
ATOM     21  C   UNL     1      47.212   5.228  14.799  0.00  0.00    +0.000 A 
ENDBRANCH  12  13
ENDBRANCH   4  12
TORSDOF 5
ENDMDL
MODEL 7
REMARK VINA RESULT:    -5.400      2.157      3.345
REMARK INTER + INTRA:          -7.428
REMARK INTER:                  -6.917
REMARK INTRA:                  -0.510
REMARK UNBOUND:                -0.607
REMARK  Name = 
REMARK  5 active torsions:
REMARK  status: ('A' for Active; 'I' for Inactive)
REMARK    1  A    between atoms: N_1  and  C_2
REMARK    2  A    between atoms: C_2  and  C_3
REMARK    3  A    between atoms: C_3  and  C_4
REMARK    4  A    between atoms: C_7  and  C_8
REMARK    5  A    between atoms: C_8  and  N_9
REMARK                            x       y       z     vdW  Elec       q    Type
REMARK                         _______ _______ _______ _____ _____    ______ ____
ROOT
ATOM      1  C   UNL     1      44.907   3.767  10.088  0.00  0.00    +0.000 A 
ATOM      2  C   UNL     1      44.927   3.385  11.436  0.00  0.00    +0.000 A 
ATOM      3  C   UNL     1      45.345   4.283  12.422  0.00  0.00    +0.000 A 
ATOM      4  C   UNL     1      45.744   5.584  12.086  0.00  0.00    +0.000 A 
ATOM      5  C   UNL     1      45.697   5.970  10.739  0.00  0.00    +0.000 A 
ATOM      6  C   UNL     1      45.277   5.074   9.751  0.00  0.00    +0.000 A 
ENDROOT
BRANCH   1   7
ATOM      7  C   UNL     1      44.525   2.775   9.016  0.00  0.00    +0.000 C 
BRANCH   7   8
ATOM      8  C   UNL     1      45.701   2.369   8.122  0.00  0.00    +0.000 C 
BRANCH   8   9
ATOM      9  N   UNL     1      46.070   0.972   8.355  0.00  0.00    +0.000 NA
ATOM     10  H   UNL     1      45.257   0.460   8.695  0.00  0.00    +0.000 HD
ATOM     11  H   UNL     1      46.770   0.920   9.094  0.00  0.00    +0.000 HD
ENDBRANCH   8   9
ENDBRANCH   7   8
ENDBRANCH   1   7
BRANCH   4  12
ATOM     12  C   UNL     1      46.216   6.546  13.146  0.00  0.00    +0.000 C 
BRANCH  12  13
ATOM     13  N   UNL     1      47.427   7.263  12.757  0.00  0.00    +0.000 N 
ATOM     14  C   UNL     1      48.674   6.683  12.672  0.00  0.00    +0.000 A 
ATOM     15  C   UNL     1      49.544   7.609  12.141  0.00  0.00    +0.000 A 
ATOM     16  C   UNL     1      48.805   8.786  11.888  0.00  0.00    +0.000 A 
ATOM     17  N   UNL     1      49.234   9.952  11.346  0.00  0.00    +0.000 NA
ATOM     18  C   UNL     1      48.284  10.900  11.217  0.00  0.00    +0.000 A 
ATOM     19  C   UNL     1      46.957  10.767  11.595  0.00  0.00    +0.000 A 
ATOM     20  C   UNL     1      46.524   9.567  12.150  0.00  0.00    +0.000 A 
ATOM     21  C   UNL     1      47.488   8.561  12.287  0.00  0.00    +0.000 A 
ENDBRANCH  12  13
ENDBRANCH   4  12
TORSDOF 5
ENDMDL
MODEL 8
REMARK VINA RESULT:    -5.304      1.668      6.360
REMARK INTER + INTRA:          -7.306
REMARK INTER:                  -6.813
REMARK INTRA:                  -0.493
REMARK UNBOUND:                -0.607
REMARK  Name = 
REMARK  5 active torsions:
REMARK  status: ('A' for Active; 'I' for Inactive)
REMARK    1  A    between atoms: N_1  and  C_2
REMARK    2  A    between atoms: C_2  and  C_3
REMARK    3  A    between atoms: C_3  and  C_4
REMARK    4  A    between atoms: C_7  and  C_8
REMARK    5  A    between atoms: C_8  and  N_9
REMARK                            x       y       z     vdW  Elec       q    Type
REMARK                         _______ _______ _______ _____ _____    ______ ____
ROOT
ATOM      1  C   UNL     1      46.407   6.217  12.507  0.00  0.00    +0.000 A 
ATOM      2  C   UNL     1      45.553   5.142  12.787  0.00  0.00    +0.000 A 
ATOM      3  C   UNL     1      44.884   4.478  11.754  0.00  0.00    +0.000 A 
ATOM      4  C   UNL     1      45.060   4.869  10.419  0.00  0.00    +0.000 A 
ATOM      5  C   UNL     1      45.936   5.927  10.142  0.00  0.00    +0.000 A 
ATOM      6  C   UNL     1      46.607   6.590  11.173  0.00  0.00    +0.000 A 
ENDROOT
BRANCH   1   7
ATOM      7  C   UNL     1      47.072   6.979  13.628  0.00  0.00    +0.000 C 
BRANCH   7   8
ATOM      8  C   UNL     1      47.043   8.498  13.427  0.00  0.00    +0.000 C 
BRANCH   8   9
ATOM      9  N   UNL     1      48.304   8.967  12.853  0.00  0.00    +0.000 NA
ATOM     10  H   UNL     1      48.115   9.706  12.176  0.00  0.00    +0.000 HD
ATOM     11  H   UNL     1      48.748   8.211  12.332  0.00  0.00    +0.000 HD
ENDBRANCH   8   9
ENDBRANCH   7   8
ENDBRANCH   1   7
BRANCH   4  12
ATOM     12  C   UNL     1      44.322   4.168   9.306  0.00  0.00    +0.000 C 
BRANCH  12  13
ATOM     13  N   UNL     1      45.018   2.973   8.836  0.00  0.00    +0.000 N 
ATOM     14  C   UNL     1      44.715   1.693   9.245  0.00  0.00    +0.000 A 
ATOM     15  C   UNL     1      45.467   0.813   8.497  0.00  0.00    +0.000 A 
ATOM     16  C   UNL     1      46.245   1.579   7.602  0.00  0.00    +0.000 A 
ATOM     17  N   UNL     1      47.116   1.146   6.658  0.00  0.00    +0.000 NA
ATOM     18  C   UNL     1      47.707   2.124   5.941  0.00  0.00    +0.000 A 
ATOM     19  C   UNL     1      47.497   3.484   6.107  0.00  0.00    +0.000 A 
ATOM     20  C   UNL     1      46.600   3.920   7.078  0.00  0.00    +0.000 A 
ATOM     21  C   UNL     1      45.965   2.926   7.830  0.00  0.00    +0.000 A 
ENDBRANCH  12  13
ENDBRANCH   4  12
TORSDOF 5
ENDMDL
MODEL 9
REMARK VINA RESULT:    -5.115      3.577      7.770
REMARK INTER + INTRA:          -7.068
REMARK INTER:                  -6.526
REMARK INTRA:                  -0.542
REMARK UNBOUND:                -0.607
REMARK  Name = 
REMARK  5 active torsions:
REMARK  status: ('A' for Active; 'I' for Inactive)
REMARK    1  A    between atoms: N_1  and  C_2
REMARK    2  A    between atoms: C_2  and  C_3
REMARK    3  A    between atoms: C_3  and  C_4
REMARK    4  A    between atoms: C_7  and  C_8
REMARK    5  A    between atoms: C_8  and  N_9
REMARK                            x       y       z     vdW  Elec       q    Type
REMARK                         _______ _______ _______ _____ _____    ______ ____
ROOT
ATOM      1  C   UNL     1      48.246   5.556  17.323  0.00  0.00    +0.000 A 
ATOM      2  C   UNL     1      47.531   4.537  16.681  0.00  0.00    +0.000 A 
ATOM      3  C   UNL     1      47.354   4.558  15.294  0.00  0.00    +0.000 A 
ATOM      4  C   UNL     1      47.894   5.593  14.518  0.00  0.00    +0.000 A 
ATOM      5  C   UNL     1      48.632   6.596  15.162  0.00  0.00    +0.000 A 
ATOM      6  C   UNL     1      48.811   6.575  16.549  0.00  0.00    +0.000 A 
ENDROOT
BRANCH   1   7
ATOM      7  C   UNL     1      48.374   5.571  18.827  0.00  0.00    +0.000 C 
BRANCH   7   8
ATOM      8  C   UNL     1      49.109   4.347  19.384  0.00  0.00    +0.000 C 
BRANCH   8   9
ATOM      9  N   UNL     1      48.314   3.697  20.427  0.00  0.00    +0.000 NA
ATOM     10  H   UNL     1      48.667   3.973  21.343  0.00  0.00    +0.000 HD
ATOM     11  H   UNL     1      48.431   2.686  20.369  0.00  0.00    +0.000 HD
ENDBRANCH   8   9
ENDBRANCH   7   8
ENDBRANCH   1   7
BRANCH   4  12
ATOM     12  C   UNL     1      47.687   5.629  13.025  0.00  0.00    +0.000 C 
BRANCH  12  13
ATOM     13  N   UNL     1      46.309   5.946  12.657  0.00  0.00    +0.000 N 
ATOM     14  C   UNL     1      45.821   7.227  12.523  0.00  0.00    +0.000 A 
ATOM     15  C   UNL     1      44.537   7.148  12.030  0.00  0.00    +0.000 A 
ATOM     16  C   UNL     1      44.236   5.780  11.851  0.00  0.00    +0.000 A 
ATOM     17  N   UNL     1      43.101   5.222  11.366  0.00  0.00    +0.000 NA
ATOM     18  C   UNL     1      43.114   3.876  11.302  0.00  0.00    +0.000 A 
ATOM     19  C   UNL     1      44.165   3.061  11.691  0.00  0.00    +0.000 A 
ATOM     20  C   UNL     1      45.329   3.642  12.188  0.00  0.00    +0.000 A 
ATOM     21  C   UNL     1      45.346   5.039  12.256  0.00  0.00    +0.000 A 
ENDBRANCH  12  13
ENDBRANCH   4  12
TORSDOF 5
ENDMDL
