MODEL 1
REMARK VINA RESULT:    -8.274      0.000      0.000
REMARK INTER + INTRA:         -11.923
REMARK INTER:                 -11.177
REMARK INTRA:                  -0.746
REMARK UNBOUND:                -0.746
REMARK  Name = 
REMARK  6 active torsions:
REMARK  status: ('A' for Active; 'I' for Inactive)
REMARK    1  A    between atoms: C_2  and  C_3
REMARK    2  A    between atoms: C_6  and  N_7
REMARK    3  A    between atoms: N_7  and  C_8
REMARK    4  A    between atoms: C_8  and  C_9
REMARK    5  A    between atoms: C_13  and  C_14
REMARK    6  A    between atoms: C_18  and  C_19
REMARK                            x       y       z     vdW  Elec       q    Type
REMARK                         _______ _______ _______ _____ _____    ______ ____
ROOT
ATOM      1  C   UNL     1      44.777   5.069  12.018  0.00  0.00    +0.000 A 
ATOM      2  C   UNL     1      44.844   6.316  11.380  0.00  0.00    +0.000 A 
ATOM      3  C   UNL     1      45.715   7.306  11.847  0.00  0.00    +0.000 A 
ATOM      4  C   UNL     1      46.540   7.058  12.946  0.00  0.00    +0.000 A 
ATOM      5  C   UNL     1      46.509   5.822  13.612  0.00  0.00    +0.000 A 
ATOM      6  C   UNL     1      45.596   4.856  13.143  0.00  0.00    +0.000 A 
ENDROOT
BRANCH   5   7
ATOM      7  C   UNL     1      47.436   5.523  14.722  0.00  0.00    +0.000 A 
ATOM      8  C   UNL     1      48.477   6.382  15.080  0.00  0.00    +0.000 A 
ATOM      9  N   UNL     1      49.322   6.195  16.121  0.00  0.00    +0.000 NA
ATOM     10  C   UNL     1      49.141   5.081  16.862  0.00  0.00    +0.000 A 
ATOM     11  C   UNL     1      48.158   4.141  16.607  0.00  0.00    +0.000 A 
ATOM     12  C   UNL     1      47.304   4.373  15.518  0.00  0.00    +0.000 A 
BRANCH  11  13
ATOM     13  C   UNL     1      48.006   2.937  17.483  0.00  0.00    +0.000 C 
ATOM     14  F   UNL     1      46.713   2.547  17.656  0.00  0.00    +0.000 F 
ATOM     15  F   UNL     1      48.659   1.849  16.989  0.00  0.00    +0.000 F 
ATOM     16  F   UNL     1      48.506   3.133  18.734  0.00  0.00    +0.000 F 
ENDBRANCH  11  13
ENDBRANCH   5   7
BRANCH   1  17
ATOM     17  C   UNL     1      43.923   3.926  11.488  0.00  0.00    +0.000 C 
BRANCH  17  18
ATOM     18  N   UNL     1      43.780   3.975  10.043  0.00  0.00    +0.000 N 
ATOM     19  H   UNL     1      43.474   4.865   9.662  0.00  0.00    +0.000 HD
BRANCH  18  23
ATOM     20  C   UNL     1      46.642   2.468   7.478  0.00  0.00    +0.000 A 
ATOM     21  C   UNL     1      46.288   3.807   7.503  0.00  0.00    +0.000 A 
ATOM     22  N   UNL     1      45.363   4.315   8.367  0.00  0.00    +0.000 NA
ATOM     23  C   UNL     1      44.774   3.449   9.225  0.00  0.00    +0.000 A 
ATOM     24  C   UNL     1      45.137   2.100   9.173  0.00  0.00    +0.000 A 
ATOM     25  N   UNL     1      46.071   1.579   8.322  0.00  0.00    +0.000 NA
BRANCH  20  27
ATOM     26  N   UNL     1      48.421   1.600   5.794  0.00  0.00    +0.000 NA
ATOM     27  C   UNL     1      47.636   1.973   6.571  0.00  0.00    +0.000 C 
ENDBRANCH  20  27
ENDBRANCH  18  23
ENDBRANCH  17  18
ENDBRANCH   1  17
TORSDOF 6
ENDMDL
MODEL 2
REMARK VINA RESULT:    -7.800      4.007      4.991
REMARK INTER + INTRA:         -11.283
REMARK INTER:                 -10.533
REMARK INTRA:                  -0.749
REMARK UNBOUND:                -0.746
REMARK  Name = 
REMARK  6 active torsions:
REMARK  status: ('A' for Active; 'I' for Inactive)
REMARK    1  A    between atoms: C_2  and  C_3
REMARK    2  A    between atoms: C_6  and  N_7
REMARK    3  A    between atoms: N_7  and  C_8
REMARK    4  A    between atoms: C_8  and  C_9
REMARK    5  A    between atoms: C_13  and  C_14
REMARK    6  A    between atoms: C_18  and  C_19
REMARK                            x       y       z     vdW  Elec       q    Type
REMARK                         _______ _______ _______ _____ _____    ______ ____
ROOT
ATOM      1  C   UNL     1      44.949   4.926  12.000  0.00  0.00    +0.000 A 
ATOM      2  C   UNL     1      45.501   4.081  12.973  0.00  0.00    +0.000 A 
ATOM      3  C   UNL     1      46.681   4.435  13.633  0.00  0.00    +0.000 A 
ATOM      4  C   UNL     1      47.317   5.644  13.341  0.00  0.00    +0.000 A 
ATOM      5  C   UNL     1      46.797   6.522  12.377  0.00  0.00    +0.000 A 
ATOM      6  C   UNL     1      45.627   6.122  11.701  0.00  0.00    +0.000 A 
ENDROOT
BRANCH   5   7
ATOM      7  C   UNL     1      47.416   7.838  12.122  0.00  0.00    +0.000 A 
ATOM      8  C   UNL     1      46.713   9.036  12.262  0.00  0.00    +0.000 A 
ATOM      9  N   UNL     1      47.236  10.274  12.101  0.00  0.00    +0.000 NA
ATOM     10  C   UNL     1      48.543  10.346  11.770  0.00  0.00    +0.000 A 
ATOM     11  C   UNL     1      49.351   9.237  11.586  0.00  0.00    +0.000 A 
ATOM     12  C   UNL     1      48.768   7.973  11.762  0.00  0.00    +0.000 A 
BRANCH  11  13
ATOM     13  C   UNL     1      50.797   9.394  11.237  0.00  0.00    +0.000 C 
ATOM     14  F   UNL     1      51.029  10.335  10.281  0.00  0.00    +0.000 F 
ATOM     15  F   UNL     1      51.554   9.760  12.309  0.00  0.00    +0.000 F 
ATOM     16  F   UNL     1      51.350   8.242  10.768  0.00  0.00    +0.000 F 
ENDBRANCH  11  13
ENDBRANCH   5   7
BRANCH   1  17
ATOM     17  C   UNL     1      43.614   4.635  11.328  0.00  0.00    +0.000 C 
BRANCH  17  18
ATOM     18  N   UNL     1      43.696   4.733   9.881  0.00  0.00    +0.000 N 
ATOM     19  H   UNL     1      43.652   5.674   9.502  0.00  0.00    +0.000 HD
BRANCH  18  23
ATOM     20  C   UNL     1      46.490   2.646   7.672  0.00  0.00    +0.000 A 
ATOM     21  C   UNL     1      46.371   4.025   7.619  0.00  0.00    +0.000 A 
ATOM     22  N   UNL     1      45.468   4.722   8.368  0.00  0.00    +0.000 NA
ATOM     23  C   UNL     1      44.659   4.009   9.186  0.00  0.00    +0.000 A 
ATOM     24  C   UNL     1      44.788   2.617   9.213  0.00  0.00    +0.000 A 
ATOM     25  N   UNL     1      45.696   1.907   8.479  0.00  0.00    +0.000 NA
BRANCH  20  27
ATOM     26  N   UNL     1      48.298   1.413   6.271  0.00  0.00    +0.000 NA
ATOM     27  C   UNL     1      47.467   1.948   6.887  0.00  0.00    +0.000 C 
ENDBRANCH  20  27
ENDBRANCH  18  23
ENDBRANCH  17  18
ENDBRANCH   1  17
TORSDOF 6
ENDMDL
MODEL 3
REMARK VINA RESULT:    -7.614      1.501      2.047
REMARK INTER + INTRA:         -11.031
REMARK INTER:                 -10.400
REMARK INTRA:                  -0.631
REMARK UNBOUND:                -0.746
REMARK  Name = 
REMARK  6 active torsions:
REMARK  status: ('A' for Active; 'I' for Inactive)
REMARK    1  A    between atoms: C_2  and  C_3
REMARK    2  A    between atoms: C_6  and  N_7
REMARK    3  A    between atoms: N_7  and  C_8
REMARK    4  A    between atoms: C_8  and  C_9
REMARK    5  A    between atoms: C_13  and  C_14
REMARK    6  A    between atoms: C_18  and  C_19
REMARK                            x       y       z     vdW  Elec       q    Type
REMARK                         _______ _______ _______ _____ _____    ______ ____
ROOT
ATOM      1  C   UNL     1      44.984   5.654  11.572  0.00  0.00    +0.000 A 
ATOM      2  C   UNL     1      45.784   6.686  11.060  0.00  0.00    +0.000 A 
ATOM      3  C   UNL     1      46.963   7.059  11.712  0.00  0.00    +0.000 A 
ATOM      4  C   UNL     1      47.367   6.397  12.873  0.00  0.00    +0.000 A 
ATOM      5  C   UNL     1      46.599   5.355  13.418  0.00  0.00    +0.000 A 
ATOM      6  C   UNL     1      45.397   5.025  12.761  0.00  0.00    +0.000 A 
ENDROOT
BRANCH   5   7
ATOM      7  C   UNL     1      47.060   4.596  14.597  0.00  0.00    +0.000 A 
ATOM      8  C   UNL     1      47.477   3.265  14.515  0.00  0.00    +0.000 A 
ATOM      9  N   UNL     1      47.965   2.533  15.543  0.00  0.00    +0.000 NA
ATOM     10  C   UNL     1      48.043   3.144  16.745  0.00  0.00    +0.000 A 
ATOM     11  C   UNL     1      47.650   4.452  16.967  0.00  0.00    +0.000 A 
ATOM     12  C   UNL     1      47.150   5.176  15.874  0.00  0.00    +0.000 A 
BRANCH  11  13
ATOM     13  C   UNL     1      47.782   5.070  18.324  0.00  0.00    +0.000 C 
ATOM     14  F   UNL     1      48.646   6.121  18.364  0.00  0.00    +0.000 F 
ATOM     15  F   UNL     1      46.596   5.546  18.796  0.00  0.00    +0.000 F 
ATOM     16  F   UNL     1      48.226   4.187  19.261  0.00  0.00    +0.000 F 
ENDBRANCH  11  13
ENDBRANCH   5   7
BRANCH   1  17
ATOM     17  C   UNL     1      43.748   5.143  10.845  0.00  0.00    +0.000 C 
BRANCH  17  18
ATOM     18  N   UNL     1      43.876   3.747  10.461  0.00  0.00    +0.000 N 
ATOM     19  H   UNL     1      43.004   3.237  10.365  0.00  0.00    +0.000 HD
BRANCH  18  23
ATOM     20  C   UNL     1      46.523   2.617   7.501  0.00  0.00    +0.000 A 
ATOM     21  C   UNL     1      46.014   1.726   8.432  0.00  0.00    +0.000 A 
ATOM     22  N   UNL     1      45.118   2.088   9.395  0.00  0.00    +0.000 NA
ATOM     23  C   UNL     1      44.730   3.385   9.425  0.00  0.00    +0.000 A 
ATOM     24  C   UNL     1      45.267   4.269   8.484  0.00  0.00    +0.000 A 
ATOM     25  N   UNL     1      46.155   3.918   7.506  0.00  0.00    +0.000 NA
BRANCH  20  27
ATOM     26  N   UNL     1      48.188   1.802   5.680  0.00  0.00    +0.000 NA
ATOM     27  C   UNL     1      47.446   2.195   6.488  0.00  0.00    +0.000 C 
ENDBRANCH  20  27
ENDBRANCH  18  23
ENDBRANCH  17  18
ENDBRANCH   1  17
TORSDOF 6
ENDMDL
MODEL 4
REMARK VINA RESULT:    -7.497      4.408      8.330
REMARK INTER + INTRA:         -10.872
REMARK INTER:                 -10.135
REMARK INTRA:                  -0.737
REMARK UNBOUND:                -0.746
REMARK  Name = 
REMARK  6 active torsions:
REMARK  status: ('A' for Active; 'I' for Inactive)
REMARK    1  A    between atoms: C_2  and  C_3
REMARK    2  A    between atoms: C_6  and  N_7
REMARK    3  A    between atoms: N_7  and  C_8
REMARK    4  A    between atoms: C_8  and  C_9
REMARK    5  A    between atoms: C_13  and  C_14
REMARK    6  A    between atoms: C_18  and  C_19
REMARK                            x       y       z     vdW  Elec       q    Type
REMARK                         _______ _______ _______ _____ _____    ______ ____
ROOT
ATOM      1  C   UNL     1      45.235   6.449  11.645  0.00  0.00    +0.000 A 
ATOM      2  C   UNL     1      43.856   6.557  11.876  0.00  0.00    +0.000 A 
ATOM      3  C   UNL     1      42.957   5.712  11.217  0.00  0.00    +0.000 A 
ATOM      4  C   UNL     1      43.425   4.738  10.332  0.00  0.00    +0.000 A 
ATOM      5  C   UNL     1      44.797   4.592  10.074  0.00  0.00    +0.000 A 
ATOM      6  C   UNL     1      45.677   5.482  10.724  0.00  0.00    +0.000 A 
ENDROOT
BRANCH   5   7
ATOM      7  C   UNL     1      45.305   3.513   9.204  0.00  0.00    +0.000 A 
ATOM      8  C   UNL     1      45.178   2.162   9.535  0.00  0.00    +0.000 A 
ATOM      9  N   UNL     1      45.568   1.126   8.756  0.00  0.00    +0.000 NA
ATOM     10  C   UNL     1      46.133   1.433   7.568  0.00  0.00    +0.000 A 
ATOM     11  C   UNL     1      46.332   2.729   7.125  0.00  0.00    +0.000 A 
ATOM     12  C   UNL     1      45.913   3.774   7.964  0.00  0.00    +0.000 A 
BRANCH  11  13
ATOM     13  C   UNL     1      46.949   2.994   5.788  0.00  0.00    +0.000 C 
ATOM     14  F   UNL     1      46.274   2.425   4.752  0.00  0.00    +0.000 F 
ATOM     15  F   UNL     1      47.017   4.324   5.502  0.00  0.00    +0.000 F 
ATOM     16  F   UNL     1      48.226   2.530   5.700  0.00  0.00    +0.000 F 
ENDBRANCH  11  13
ENDBRANCH   5   7
BRANCH   1  17
ATOM     17  C   UNL     1      46.258   7.274  12.412  0.00  0.00    +0.000 C 
BRANCH  17  18
ATOM     18  N   UNL     1      47.444   6.504  12.745  0.00  0.00    +0.000 N 
ATOM     19  H   UNL     1      48.330   6.977  12.597  0.00  0.00    +0.000 HD
BRANCH  18  23
ATOM     20  C   UNL     1      47.787   4.381  16.269  0.00  0.00    +0.000 A 
ATOM     21  C   UNL     1      48.462   5.569  16.041  0.00  0.00    +0.000 A 
ATOM     22  N   UNL     1      48.331   6.289  14.889  0.00  0.00    +0.000 NA
ATOM     23  C   UNL     1      47.503   5.794  13.939  0.00  0.00    +0.000 A 
ATOM     24  C   UNL     1      46.842   4.586  14.186  0.00  0.00    +0.000 A 
ATOM     25  N   UNL     1      46.954   3.861  15.339  0.00  0.00    +0.000 NA
BRANCH  20  27
ATOM     26  N   UNL     1      48.103   3.081  18.496  0.00  0.00    +0.000 NA
ATOM     27  C   UNL     1      47.932   3.662  17.501  0.00  0.00    +0.000 C 
ENDBRANCH  20  27
ENDBRANCH  18  23
ENDBRANCH  17  18
ENDBRANCH   1  17
TORSDOF 6
ENDMDL
MODEL 5
REMARK VINA RESULT:    -7.195      4.107      7.924
REMARK INTER + INTRA:         -10.465
REMARK INTER:                  -9.717
REMARK INTRA:                  -0.747
REMARK UNBOUND:                -0.746
REMARK  Name = 
REMARK  6 active torsions:
REMARK  status: ('A' for Active; 'I' for Inactive)
REMARK    1  A    between atoms: C_2  and  C_3
REMARK    2  A    between atoms: C_6  and  N_7
REMARK    3  A    between atoms: N_7  and  C_8
REMARK    4  A    between atoms: C_8  and  C_9
REMARK    5  A    between atoms: C_13  and  C_14
REMARK    6  A    between atoms: C_18  and  C_19
REMARK                            x       y       z     vdW  Elec       q    Type
REMARK                         _______ _______ _______ _____ _____    ______ ____
ROOT
ATOM      1  C   UNL     1      47.949   6.468  14.334  0.00  0.00    +0.000 A 
ATOM      2  C   UNL     1      48.274   7.564  13.522  0.00  0.00    +0.000 A 
ATOM      3  C   UNL     1      47.724   7.688  12.242  0.00  0.00    +0.000 A 
ATOM      4  C   UNL     1      46.831   6.726  11.763  0.00  0.00    +0.000 A 
ATOM      5  C   UNL     1      46.475   5.615  12.543  0.00  0.00    +0.000 A 
ATOM      6  C   UNL     1      47.073   5.497  13.814  0.00  0.00    +0.000 A 
ENDROOT
BRANCH   5   7
ATOM      7  C   UNL     1      45.470   4.639  12.077  0.00  0.00    +0.000 A 
ATOM      8  C   UNL     1      44.285   4.393  12.775  0.00  0.00    +0.000 A 
ATOM      9  N   UNL     1      43.300   3.558  12.373  0.00  0.00    +0.000 NA
ATOM     10  C   UNL     1      43.489   2.907  11.205  0.00  0.00    +0.000 A 
ATOM     11  C   UNL     1      44.621   3.048  10.423  0.00  0.00    +0.000 A 
ATOM     12  C   UNL     1      45.620   3.924  10.877  0.00  0.00    +0.000 A 
BRANCH  11  13
ATOM     13  C   UNL     1      44.755   2.307   9.129  0.00  0.00    +0.000 C 
ATOM     14  F   UNL     1      46.039   1.977   8.819  0.00  0.00    +0.000 F 
ATOM     15  F   UNL     1      44.060   1.136   9.128  0.00  0.00    +0.000 F 
ATOM     16  F   UNL     1      44.286   3.019   8.068  0.00  0.00    +0.000 F 
ENDBRANCH  11  13
ENDBRANCH   5   7
BRANCH   1  17
ATOM     17  C   UNL     1      48.439   6.342  15.769  0.00  0.00    +0.000 C 
BRANCH  17  18
ATOM     18  N   UNL     1      47.976   5.118  16.400  0.00  0.00    +0.000 N 
ATOM     19  H   UNL     1      47.154   4.693  15.982  0.00  0.00    +0.000 HD
BRANCH  18  23
ATOM     20  C   UNL     1      50.789   2.232  17.295  0.00  0.00    +0.000 A 
ATOM     21  C   UNL     1      50.964   3.571  17.604  0.00  0.00    +0.000 A 
ATOM     22  N   UNL     1      50.026   4.524  17.336  0.00  0.00    +0.000 NA
ATOM     23  C   UNL     1      48.884   4.118  16.733  0.00  0.00    +0.000 A 
ATOM     24  C   UNL     1      48.734   2.764  16.419  0.00  0.00    +0.000 A 
ATOM     25  N   UNL     1      49.659   1.796  16.693  0.00  0.00    +0.000 NA
BRANCH  20  27
ATOM     26  N   UNL     1      52.623   0.494  17.903  0.00  0.00    +0.000 NA
ATOM     27  C   UNL     1      51.788   1.253  17.613  0.00  0.00    +0.000 C 
ENDBRANCH  20  27
ENDBRANCH  18  23
ENDBRANCH  17  18
ENDBRANCH   1  17
TORSDOF 6
ENDMDL
MODEL 6
REMARK VINA RESULT:    -7.120      3.126      4.024
REMARK INTER + INTRA:         -10.363
REMARK INTER:                  -9.538
REMARK INTRA:                  -0.825
REMARK UNBOUND:                -0.746
REMARK  Name = 
REMARK  6 active torsions:
REMARK  status: ('A' for Active; 'I' for Inactive)
REMARK    1  A    between atoms: C_2  and  C_3
REMARK    2  A    between atoms: C_6  and  N_7
REMARK    3  A    between atoms: N_7  and  C_8
REMARK    4  A    between atoms: C_8  and  C_9
REMARK    5  A    between atoms: C_13  and  C_14
REMARK    6  A    between atoms: C_18  and  C_19
REMARK                            x       y       z     vdW  Elec       q    Type
REMARK                         _______ _______ _______ _____ _____    ______ ____
ROOT
ATOM      1  C   UNL     1      45.168   5.052  11.884  0.00  0.00    +0.000 A 
ATOM      2  C   UNL     1      45.244   4.068  12.880  0.00  0.00    +0.000 A 
ATOM      3  C   UNL     1      46.312   4.054  13.783  0.00  0.00    +0.000 A 
ATOM      4  C   UNL     1      47.309   5.030  13.712  0.00  0.00    +0.000 A 
ATOM      5  C   UNL     1      47.270   6.036  12.733  0.00  0.00    +0.000 A 
ATOM      6  C   UNL     1      46.202   6.004  11.814  0.00  0.00    +0.000 A 
ENDROOT
BRANCH   5   7
ATOM      7  C   UNL     1      48.273   7.118  12.702  0.00  0.00    +0.000 A 
ATOM      8  C   UNL     1      48.321   8.066  11.677  0.00  0.00    +0.000 A 
ATOM      9  N   UNL     1      49.174   9.114  11.621  0.00  0.00    +0.000 NA
ATOM     10  C   UNL     1      50.053   9.242  12.638  0.00  0.00    +0.000 A 
ATOM     11  C   UNL     1      50.122   8.367  13.707  0.00  0.00    +0.000 A 
ATOM     12  C   UNL     1      49.219   7.292  13.727  0.00  0.00    +0.000 A 
BRANCH  11  13
ATOM     13  C   UNL     1      51.112   8.581  14.809  0.00  0.00    +0.000 C 
ATOM     14  F   UNL     1      51.659   9.828  14.817  0.00  0.00    +0.000 F 
ATOM     15  F   UNL     1      50.561   8.409  16.043  0.00  0.00    +0.000 F 
ATOM     16  F   UNL     1      52.160   7.714  14.747  0.00  0.00    +0.000 F 
ENDBRANCH  11  13
ENDBRANCH   5   7
BRANCH   1  17
ATOM     17  C   UNL     1      43.976   5.171  10.945  0.00  0.00    +0.000 C 
BRANCH  17  18
ATOM     18  N   UNL     1      43.730   3.940  10.213  0.00  0.00    +0.000 N 
ATOM     19  H   UNL     1      42.793   3.834   9.837  0.00  0.00    +0.000 HD
BRANCH  18  23
ATOM     20  C   UNL     1      46.559   2.551   7.548  0.00  0.00    +0.000 A 
ATOM     21  C   UNL     1      45.906   1.723   8.446  0.00  0.00    +0.000 A 
ATOM     22  N   UNL     1      44.950   2.172   9.310  0.00  0.00    +0.000 NA
ATOM     23  C   UNL     1      44.650   3.492   9.272  0.00  0.00    +0.000 A 
ATOM     24  C   UNL     1      45.332   4.311   8.366  0.00  0.00    +0.000 A 
ATOM     25  N   UNL     1      46.282   3.873   7.487  0.00  0.00    +0.000 NA
BRANCH  20  27
ATOM     26  N   UNL     1      48.302   1.606   5.868  0.00  0.00    +0.000 NA
ATOM     27  C   UNL     1      47.543   2.040   6.638  0.00  0.00    +0.000 C 
ENDBRANCH  20  27
ENDBRANCH  18  23
ENDBRANCH  17  18
ENDBRANCH   1  17
TORSDOF 6
ENDMDL
MODEL 7
REMARK VINA RESULT:    -6.949      3.991      8.464
REMARK INTER + INTRA:         -10.133
REMARK INTER:                  -9.405
REMARK INTRA:                  -0.727
REMARK UNBOUND:                -0.746
REMARK  Name = 
REMARK  6 active torsions:
REMARK  status: ('A' for Active; 'I' for Inactive)
REMARK    1  A    between atoms: C_2  and  C_3
REMARK    2  A    between atoms: C_6  and  N_7
REMARK    3  A    between atoms: N_7  and  C_8
REMARK    4  A    between atoms: C_8  and  C_9
REMARK    5  A    between atoms: C_13  and  C_14
REMARK    6  A    between atoms: C_18  and  C_19
REMARK                            x       y       z     vdW  Elec       q    Type
REMARK                         _______ _______ _______ _____ _____    ______ ____
ROOT
ATOM      1  C   UNL     1      46.910   8.075  12.947  0.00  0.00    +0.000 A 
ATOM      2  C   UNL     1      46.045   9.174  12.848  0.00  0.00    +0.000 A 
ATOM      3  C   UNL     1      44.895   9.103  12.055  0.00  0.00    +0.000 A 
ATOM      4  C   UNL     1      44.587   7.930  11.363  0.00  0.00    +0.000 A 
ATOM      5  C   UNL     1      45.422   6.804  11.436  0.00  0.00    +0.000 A 
ATOM      6  C   UNL     1      46.593   6.916  12.214  0.00  0.00    +0.000 A 
ENDROOT
BRANCH   5   7
ATOM      7  C   UNL     1      45.062   5.534  10.775  0.00  0.00    +0.000 A 
ATOM      8  C   UNL     1      43.997   4.741  11.208  0.00  0.00    +0.000 A 
ATOM      9  N   UNL     1      43.579   3.601  10.611  0.00  0.00    +0.000 NA
ATOM     10  C   UNL     1      44.258   3.200   9.516  0.00  0.00    +0.000 A 
ATOM     11  C   UNL     1      45.341   3.883   8.991  0.00  0.00    +0.000 A 
ATOM     12  C   UNL     1      45.742   5.061   9.640  0.00  0.00    +0.000 A 
BRANCH  11  13
ATOM     13  C   UNL     1      46.036   3.388   7.762  0.00  0.00    +0.000 C 
ATOM     14  F   UNL     1      45.219   3.283   6.678  0.00  0.00    +0.000 F 
ATOM     15  F   UNL     1      47.058   4.203   7.379  0.00  0.00    +0.000 F 
ATOM     16  F   UNL     1      46.588   2.156   7.933  0.00  0.00    +0.000 F 
ENDBRANCH  11  13
ENDBRANCH   5   7
BRANCH   1  17
ATOM     17  C   UNL     1      48.116   8.067  13.875  0.00  0.00    +0.000 C 
BRANCH  17  18
ATOM     18  N   UNL     1      48.565   6.718  14.178  0.00  0.00    +0.000 N 
ATOM     19  H   UNL     1      49.396   6.412  13.683  0.00  0.00    +0.000 HD
BRANCH  18  23
ATOM     20  C   UNL     1      48.616   5.404  18.091  0.00  0.00    +0.000 A 
ATOM     21  C   UNL     1      48.232   4.595  17.033  0.00  0.00    +0.000 A 
ATOM     22  N   UNL     1      48.240   5.016  15.736  0.00  0.00    +0.000 NA
ATOM     23  C   UNL     1      48.638   6.288  15.498  0.00  0.00    +0.000 A 
ATOM     24  C   UNL     1      49.008   7.090  16.582  0.00  0.00    +0.000 A 
ATOM     25  N   UNL     1      49.018   6.678  17.885  0.00  0.00    +0.000 NA
BRANCH  20  27
ATOM     26  N   UNL     1      48.621   4.478  20.519  0.00  0.00    +0.000 NA
ATOM     27  C   UNL     1      48.617   4.921  19.441  0.00  0.00    +0.000 C 
ENDBRANCH  20  27
ENDBRANCH  18  23
ENDBRANCH  17  18
ENDBRANCH   1  17
TORSDOF 6
ENDMDL
MODEL 8
REMARK VINA RESULT:    -6.417      4.269      7.809
REMARK INTER + INTRA:          -9.413
REMARK INTER:                  -8.905
REMARK INTRA:                  -0.508
REMARK UNBOUND:                -0.746
REMARK  Name = 
REMARK  6 active torsions:
REMARK  status: ('A' for Active; 'I' for Inactive)
REMARK    1  A    between atoms: C_2  and  C_3
REMARK    2  A    between atoms: C_6  and  N_7
REMARK    3  A    between atoms: N_7  and  C_8
REMARK    4  A    between atoms: C_8  and  C_9
REMARK    5  A    between atoms: C_13  and  C_14
REMARK    6  A    between atoms: C_18  and  C_19
REMARK                            x       y       z     vdW  Elec       q    Type
REMARK                         _______ _______ _______ _____ _____    ______ ____
ROOT
ATOM      1  C   UNL     1      48.697   8.013  14.802  0.00  0.00    +0.000 A 
ATOM      2  C   UNL     1      48.900   9.041  13.869  0.00  0.00    +0.000 A 
ATOM      3  C   UNL     1      48.435   8.910  12.557  0.00  0.00    +0.000 A 
ATOM      4  C   UNL     1      47.748   7.758  12.164  0.00  0.00    +0.000 A 
ATOM      5  C   UNL     1      47.519   6.707  13.066  0.00  0.00    +0.000 A 
ATOM      6  C   UNL     1      48.032   6.851  14.372  0.00  0.00    +0.000 A 
ENDROOT
BRANCH   5   7
ATOM      7  C   UNL     1      46.724   5.524  12.683  0.00  0.00    +0.000 A 
ATOM      8  C   UNL     1      46.685   4.364  13.460  0.00  0.00    +0.000 A 
ATOM      9  N   UNL     1      45.932   3.271  13.196  0.00  0.00    +0.000 NA
ATOM     10  C   UNL     1      45.166   3.311  12.085  0.00  0.00    +0.000 A 
ATOM     11  C   UNL     1      45.121   4.391  11.222  0.00  0.00    +0.000 A 
ATOM     12  C   UNL     1      45.918   5.504  11.532  0.00  0.00    +0.000 A 
BRANCH  11  13
ATOM     13  C   UNL     1      44.233   4.372  10.017  0.00  0.00    +0.000 C 
ATOM     14  F   UNL     1      43.133   5.164  10.136  0.00  0.00    +0.000 F 
ATOM     15  F   UNL     1      44.875   4.794   8.892  0.00  0.00    +0.000 F 
ATOM     16  F   UNL     1      43.766   3.125   9.731  0.00  0.00    +0.000 F 
ENDBRANCH  11  13
ENDBRANCH   5   7
BRANCH   1  17
ATOM     17  C   UNL     1      49.093   8.151  16.265  0.00  0.00    +0.000 C 
BRANCH  17  18
ATOM     18  N   UNL     1      48.455   7.148  17.101  0.00  0.00    +0.000 N 
ATOM     19  H   UNL     1      47.449   7.062  16.993  0.00  0.00    +0.000 HD
BRANCH  18  23
ATOM     20  C   UNL     1      50.208   3.416  17.301  0.00  0.00    +0.000 A 
ATOM     21  C   UNL     1      50.926   4.590  17.457  0.00  0.00    +0.000 A 
ATOM     22  N   UNL     1      50.347   5.825  17.420  0.00  0.00    +0.000 NA
ATOM     23  C   UNL     1      49.010   5.878  17.212  0.00  0.00    +0.000 A 
ATOM     24  C   UNL     1      48.308   4.680  17.044  0.00  0.00    +0.000 A 
ATOM     25  N   UNL     1      48.872   3.436  17.092  0.00  0.00    +0.000 NA
BRANCH  20  27
ATOM     26  N   UNL     1      51.323   1.071  17.396  0.00  0.00    +0.000 NA
ATOM     27  C   UNL     1      50.846   2.133  17.369  0.00  0.00    +0.000 C 
ENDBRANCH  20  27
ENDBRANCH  18  23
ENDBRANCH  17  18
ENDBRANCH   1  17
TORSDOF 6
ENDMDL
