MODEL 1
REMARK VINA RESULT:    -8.063      0.000      0.000
REMARK INTER + INTRA:         -12.145
REMARK INTER:                 -11.127
REMARK INTRA:                  -1.018
REMARK UNBOUND:                -1.018
REMARK  Name = 
REMARK  7 active torsions:
REMARK  status: ('A' for Active; 'I' for Inactive)
REMARK    1  A    between atoms: N_1  and  C_2
REMARK    2  A    between atoms: C_2  and  C_3
REMARK    3  A    between atoms: C_3  and  N_4
REMARK    4  A    between atoms: C_3  and  C_17
REMARK    5  A    between atoms: C_5  and  C_7
REMARK    6  A    between atoms: C_20  and  O_21
REMARK    7  A    between atoms: O_21  and  C_22
REMARK                            x       y       z     vdW  Elec       q    Type
REMARK                         _______ _______ _______ _____ _____    ______ ____
ROOT
ATOM      1  C   UNL     1      45.994   8.062  12.379  0.00  0.00    +0.000 C 
ENDROOT
BRANCH   1   2
ATOM      2  C   UNL     1      45.514   6.871  11.547  0.00  0.00    +0.000 A 
ATOM      3  C   UNL     1      44.236   6.334  11.760  0.00  0.00    +0.000 A 
ATOM      4  C   UNL     1      43.783   5.245  11.007  0.00  0.00    +0.000 A 
ATOM      5  C   UNL     1      44.577   4.718   9.986  0.00  0.00    +0.000 A 
ATOM      6  C   UNL     1      45.861   5.224   9.787  0.00  0.00    +0.000 A 
ATOM      7  C   UNL     1      46.327   6.294  10.557  0.00  0.00    +0.000 A 
BRANCH   5   8
ATOM      8  O   UNL     1      44.214   3.661   9.182  0.00  0.00    +0.000 OA
BRANCH   8   9
ATOM      9  C   UNL     1      45.142   3.049   8.370  0.00  0.00    +0.000 A 
ATOM     10  C   UNL     1      45.749   3.645   7.261  0.00  0.00    +0.000 A 
ATOM     11  C   UNL     1      46.658   2.923   6.484  0.00  0.00    +0.000 A 
ATOM     12  C   UNL     1      47.008   1.623   6.846  0.00  0.00    +0.000 A 
ATOM     13  C   UNL     1      46.458   1.048   7.991  0.00  0.00    +0.000 A 
ATOM     14  C   UNL     1      45.527   1.760   8.749  0.00  0.00    +0.000 A 
ENDBRANCH   8   9
ENDBRANCH   5   8
ENDBRANCH   1   2
BRANCH   1  15
ATOM     15  N   UNL     1      46.606   7.556  13.602  0.00  0.00    +0.000 N 
ATOM     16  C   UNL     1      47.961   7.398  13.744  0.00  0.00    +0.000 C 
ATOM     17  O   UNL     1      48.770   7.796  12.913  0.00  0.00    +0.000 OA
ATOM     18  H   UNL     1      46.002   6.984  14.185  0.00  0.00    +0.000 HD
BRANCH  16  19
ATOM     19  C   UNL     1      48.407   6.770  14.987  0.00  0.00    +0.000 A 
ATOM     20  C   UNL     1      49.337   7.405  15.798  0.00  0.00    +0.000 A 
ATOM     21  S   UNL     1      49.741   6.518  17.199  0.00  0.00    +0.000 S 
ATOM     22  C   UNL     1      48.727   5.230  16.742  0.00  0.00    +0.000 A 
ATOM     23  N   UNL     1      48.642   4.098  17.491  0.00  0.00    +0.000 NA
ATOM     24  C   UNL     1      47.865   3.190  17.001  0.00  0.00    +0.000 A 
ATOM     25  N   UNL     1      47.153   3.314  15.839  0.00  0.00    +0.000 N 
ATOM     26  C   UNL     1      47.160   4.461  15.079  0.00  0.00    +0.000 A 
ATOM     27  O   UNL     1      46.432   4.583  14.098  0.00  0.00    +0.000 OA
ATOM     28  C   UNL     1      48.054   5.494  15.562  0.00  0.00    +0.000 A 
ATOM     29  H   UNL     1      46.537   2.579  15.525  0.00  0.00    +0.000 HD
ENDBRANCH  16  19
ENDBRANCH   1  15
BRANCH   1  30
ATOM     30  C   UNL     1      44.839   9.071  12.665  0.00  0.00    +0.000 C 
BRANCH  30  31
ATOM     31  N   UNL     1      45.133  10.461  12.291  0.00  0.00    +0.000 NA
ATOM     32  H   UNL     1      45.428  10.480  11.315  0.00  0.00    +0.000 HD
ATOM     33  H   UNL     1      45.926  10.799  12.836  0.00  0.00    +0.000 HD
ENDBRANCH  30  31
ENDBRANCH   1  30
TORSDOF 7
ENDMDL
MODEL 2
REMARK VINA RESULT:    -7.820      2.544      3.939
REMARK INTER + INTRA:         -11.810
REMARK INTER:                 -10.448
REMARK INTRA:                  -1.362
REMARK UNBOUND:                -1.018
REMARK  Name = 
REMARK  7 active torsions:
REMARK  status: ('A' for Active; 'I' for Inactive)
REMARK    1  A    between atoms: N_1  and  C_2
REMARK    2  A    between atoms: C_2  and  C_3
REMARK    3  A    between atoms: C_3  and  N_4
REMARK    4  A    between atoms: C_3  and  C_17
REMARK    5  A    between atoms: C_5  and  C_7
REMARK    6  A    between atoms: C_20  and  O_21
REMARK    7  A    between atoms: O_21  and  C_22
REMARK                            x       y       z     vdW  Elec       q    Type
REMARK                         _______ _______ _______ _____ _____    ______ ____
ROOT
ATOM      1  C   UNL     1      45.829   5.808  13.243  0.00  0.00    +0.000 C 
ENDROOT
BRANCH   1   2
ATOM      2  C   UNL     1      45.539   5.134  11.900  0.00  0.00    +0.000 A 
ATOM      3  C   UNL     1      44.899   3.886  11.863  0.00  0.00    +0.000 A 
ATOM      4  C   UNL     1      44.627   3.257  10.643  0.00  0.00    +0.000 A 
ATOM      5  C   UNL     1      44.934   3.895   9.440  0.00  0.00    +0.000 A 
ATOM      6  C   UNL     1      45.599   5.121   9.465  0.00  0.00    +0.000 A 
ATOM      7  C   UNL     1      45.897   5.740  10.684  0.00  0.00    +0.000 A 
BRANCH   5   8
ATOM      8  O   UNL     1      44.691   3.367   8.192  0.00  0.00    +0.000 OA
BRANCH   8   9
ATOM      9  C   UNL     1      45.724   2.862   7.434  0.00  0.00    +0.000 A 
ATOM     10  C   UNL     1      46.214   3.445   6.262  0.00  0.00    +0.000 A 
ATOM     11  C   UNL     1      47.248   2.831   5.551  0.00  0.00    +0.000 A 
ATOM     12  C   UNL     1      47.835   1.665   6.038  0.00  0.00    +0.000 A 
ATOM     13  C   UNL     1      47.397   1.117   7.243  0.00  0.00    +0.000 A 
ATOM     14  C   UNL     1      46.343   1.715   7.938  0.00  0.00    +0.000 A 
ENDBRANCH   8   9
ENDBRANCH   5   8
ENDBRANCH   1   2
BRANCH   1  15
ATOM     15  N   UNL     1      46.938   6.737  13.064  0.00  0.00    +0.000 N 
ATOM     16  C   UNL     1      46.772   8.098  13.049  0.00  0.00    +0.000 C 
ATOM     17  O   UNL     1      45.708   8.643  13.319  0.00  0.00    +0.000 OA
ATOM     18  H   UNL     1      47.749   6.357  12.586  0.00  0.00    +0.000 HD
BRANCH  16  19
ATOM     19  C   UNL     1      47.965   8.886  12.743  0.00  0.00    +0.000 A 
ATOM     20  C   UNL     1      47.877  10.000  11.919  0.00  0.00    +0.000 A 
ATOM     21  S   UNL     1      49.370  10.786  11.670  0.00  0.00    +0.000 S 
ATOM     22  C   UNL     1      50.196   9.634  12.612  0.00  0.00    +0.000 A 
ATOM     23  N   UNL     1      51.545   9.688  12.771  0.00  0.00    +0.000 NA
ATOM     24  C   UNL     1      52.039   8.726  13.477  0.00  0.00    +0.000 A 
ATOM     25  N   UNL     1      51.308   7.722  14.051  0.00  0.00    +0.000 N 
ATOM     26  C   UNL     1      49.936   7.658  13.969  0.00  0.00    +0.000 A 
ATOM     27  O   UNL     1      49.297   6.807  14.579  0.00  0.00    +0.000 OA
ATOM     28  C   UNL     1      49.337   8.690  13.146  0.00  0.00    +0.000 A 
ATOM     29  H   UNL     1      51.750   7.015  14.620  0.00  0.00    +0.000 HD
ENDBRANCH  16  19
ENDBRANCH   1  15
BRANCH   1  30
ATOM     30  C   UNL     1      46.102   4.762  14.367  0.00  0.00    +0.000 C 
BRANCH  30  31
ATOM     31  N   UNL     1      47.491   4.284  14.434  0.00  0.00    +0.000 NA
ATOM     32  H   UNL     1      47.623   3.792  15.317  0.00  0.00    +0.000 HD
ATOM     33  H   UNL     1      48.125   5.082  14.453  0.00  0.00    +0.000 HD
ENDBRANCH  30  31
ENDBRANCH   1  30
TORSDOF 7
ENDMDL
MODEL 3
REMARK VINA RESULT:    -7.787      1.567      2.352
REMARK INTER + INTRA:         -11.764
REMARK INTER:                 -11.018
REMARK INTRA:                  -0.747
REMARK UNBOUND:                -1.018
REMARK  Name = 
REMARK  7 active torsions:
REMARK  status: ('A' for Active; 'I' for Inactive)
REMARK    1  A    between atoms: N_1  and  C_2
REMARK    2  A    between atoms: C_2  and  C_3
REMARK    3  A    between atoms: C_3  and  N_4
REMARK    4  A    between atoms: C_3  and  C_17
REMARK    5  A    between atoms: C_5  and  C_7
REMARK    6  A    between atoms: C_20  and  O_21
REMARK    7  A    between atoms: O_21  and  C_22
REMARK                            x       y       z     vdW  Elec       q    Type
REMARK                         _______ _______ _______ _____ _____    ______ ____
ROOT
ATOM      1  C   UNL     1      46.344   7.235  12.666  0.00  0.00    +0.000 C 
ENDROOT
BRANCH   1   2
ATOM      2  C   UNL     1      45.873   6.203  11.640  0.00  0.00    +0.000 A 
ATOM      3  C   UNL     1      44.972   5.196  12.016  0.00  0.00    +0.000 A 
ATOM      4  C   UNL     1      44.532   4.246  11.088  0.00  0.00    +0.000 A 
ATOM      5  C   UNL     1      44.937   4.326   9.754  0.00  0.00    +0.000 A 
ATOM      6  C   UNL     1      45.857   5.303   9.376  0.00  0.00    +0.000 A 
ATOM      7  C   UNL     1      46.320   6.238  10.308  0.00  0.00    +0.000 A 
BRANCH   5   8
ATOM      8  O   UNL     1      44.547   3.450   8.767  0.00  0.00    +0.000 OA
BRANCH   8   9
ATOM      9  C   UNL     1      45.486   2.749   8.043  0.00  0.00    +0.000 A 
ATOM     10  C   UNL     1      45.965   1.478   8.376  0.00  0.00    +0.000 A 
ATOM     11  C   UNL     1      46.942   0.868   7.586  0.00  0.00    +0.000 A 
ATOM     12  C   UNL     1      47.402   1.497   6.431  0.00  0.00    +0.000 A 
ATOM     13  C   UNL     1      46.877   2.734   6.057  0.00  0.00    +0.000 A 
ATOM     14  C   UNL     1      45.921   3.357   6.862  0.00  0.00    +0.000 A 
ENDBRANCH   8   9
ENDBRANCH   5   8
ENDBRANCH   1   2
BRANCH   1  15
ATOM     15  N   UNL     1      46.602   6.548  13.926  0.00  0.00    +0.000 N 
ATOM     16  C   UNL     1      47.833   6.042  14.258  0.00  0.00    +0.000 C 
ATOM     17  O   UNL     1      48.840   6.244  13.588  0.00  0.00    +0.000 OA
ATOM     18  H   UNL     1      45.788   6.133  14.369  0.00  0.00    +0.000 HD
BRANCH  16  19
ATOM     19  C   UNL     1      47.899   5.280  15.505  0.00  0.00    +0.000 A 
ATOM     20  C   UNL     1      47.349   4.008  15.578  0.00  0.00    +0.000 A 
ATOM     21  S   UNL     1      47.514   3.280  17.113  0.00  0.00    +0.000 S 
ATOM     22  C   UNL     1      48.278   4.662  17.747  0.00  0.00    +0.000 A 
ATOM     23  N   UNL     1      48.646   4.728  19.054  0.00  0.00    +0.000 NA
ATOM     24  C   UNL     1      49.177   5.852  19.404  0.00  0.00    +0.000 A 
ATOM     25  N   UNL     1      49.390   6.912  18.564  0.00  0.00    +0.000 N 
ATOM     26  C   UNL     1      49.090   6.870  17.222  0.00  0.00    +0.000 A 
ATOM     27  O   UNL     1      49.386   7.795  16.471  0.00  0.00    +0.000 OA
ATOM     28  C   UNL     1      48.447   5.646  16.789  0.00  0.00    +0.000 A 
ATOM     29  H   UNL     1      49.840   7.753  18.890  0.00  0.00    +0.000 HD
ENDBRANCH  16  19
ENDBRANCH   1  15
BRANCH   1  30
ATOM     30  C   UNL     1      45.322   8.402  12.823  0.00  0.00    +0.000 C 
BRANCH  30  31
ATOM     31  N   UNL     1      44.523   8.682  11.621  0.00  0.00    +0.000 NA
ATOM     32  H   UNL     1      43.948   9.506  11.797  0.00  0.00    +0.000 HD
ATOM     33  H   UNL     1      43.876   7.912  11.456  0.00  0.00    +0.000 HD
ENDBRANCH  30  31
ENDBRANCH   1  30
TORSDOF 7
ENDMDL
MODEL 4
REMARK VINA RESULT:    -7.489      2.465      3.325
REMARK INTER + INTRA:         -11.353
REMARK INTER:                  -9.794
REMARK INTRA:                  -1.559
REMARK UNBOUND:                -1.018
REMARK  Name = 
REMARK  7 active torsions:
REMARK  status: ('A' for Active; 'I' for Inactive)
REMARK    1  A    between atoms: N_1  and  C_2
REMARK    2  A    between atoms: C_2  and  C_3
REMARK    3  A    between atoms: C_3  and  N_4
REMARK    4  A    between atoms: C_3  and  C_17
REMARK    5  A    between atoms: C_5  and  C_7
REMARK    6  A    between atoms: C_20  and  O_21
REMARK    7  A    between atoms: O_21  and  C_22
REMARK                            x       y       z     vdW  Elec       q    Type
REMARK                         _______ _______ _______ _____ _____    ______ ____
ROOT
ATOM      1  C   UNL     1      48.044   7.663  13.984  0.00  0.00    +0.000 C 
ENDROOT
BRANCH   1   2
ATOM      2  C   UNL     1      47.057   6.913  13.088  0.00  0.00    +0.000 A 
ATOM      3  C   UNL     1      46.287   7.615  12.148  0.00  0.00    +0.000 A 
ATOM      4  C   UNL     1      45.381   6.943  11.321  0.00  0.00    +0.000 A 
ATOM      5  C   UNL     1      45.275   5.552  11.377  0.00  0.00    +0.000 A 
ATOM      6  C   UNL     1      46.012   4.848  12.329  0.00  0.00    +0.000 A 
ATOM      7  C   UNL     1      46.899   5.520  13.176  0.00  0.00    +0.000 A 
BRANCH   5   8
ATOM      8  O   UNL     1      44.426   4.802  10.596  0.00  0.00    +0.000 OA
BRANCH   8   9
ATOM      9  C   UNL     1      44.928   3.912   9.672  0.00  0.00    +0.000 A 
ATOM     10  C   UNL     1      44.756   2.526   9.723  0.00  0.00    +0.000 A 
ATOM     11  C   UNL     1      45.335   1.710   8.748  0.00  0.00    +0.000 A 
ATOM     12  C   UNL     1      46.038   2.279   7.687  0.00  0.00    +0.000 A 
ATOM     13  C   UNL     1      46.153   3.666   7.594  0.00  0.00    +0.000 A 
ATOM     14  C   UNL     1      45.600   4.478   8.585  0.00  0.00    +0.000 A 
ENDBRANCH   8   9
ENDBRANCH   5   8
ENDBRANCH   1   2
BRANCH   1  15
ATOM     15  N   UNL     1      47.994   7.077  15.318  0.00  0.00    +0.000 N 
ATOM     16  C   UNL     1      49.089   6.516  15.925  0.00  0.00    +0.000 C 
ATOM     17  O   UNL     1      50.220   6.584  15.456  0.00  0.00    +0.000 OA
ATOM     18  H   UNL     1      47.077   6.763  15.620  0.00  0.00    +0.000 HD
BRANCH  16  19
ATOM     19  C   UNL     1      48.847   5.867  17.214  0.00  0.00    +0.000 A 
ATOM     20  C   UNL     1      49.018   4.497  17.351  0.00  0.00    +0.000 A 
ATOM     21  S   UNL     1      48.682   3.921  18.922  0.00  0.00    +0.000 S 
ATOM     22  C   UNL     1      48.242   5.475  19.457  0.00  0.00    +0.000 A 
ATOM     23  N   UNL     1      47.792   5.685  20.723  0.00  0.00    +0.000 NA
ATOM     24  C   UNL     1      47.458   6.906  20.975  0.00  0.00    +0.000 A 
ATOM     25  N   UNL     1      47.545   7.942  20.085  0.00  0.00    +0.000 N 
ATOM     26  C   UNL     1      48.050   7.791  18.814  0.00  0.00    +0.000 A 
ATOM     27  O   UNL     1      48.214   8.754  18.071  0.00  0.00    +0.000 OA
ATOM     28  C   UNL     1      48.396   6.427  18.465  0.00  0.00    +0.000 A 
ATOM     29  H   UNL     1      47.298   8.882  20.353  0.00  0.00    +0.000 HD
ENDBRANCH  16  19
ENDBRANCH   1  15
BRANCH   1  30
ATOM     30  C   UNL     1      47.764   9.197  13.997  0.00  0.00    +0.000 C 
BRANCH  30  31
ATOM     31  N   UNL     1      48.247   9.898  15.195  0.00  0.00    +0.000 NA
ATOM     32  H   UNL     1      48.947   9.315  15.653  0.00  0.00    +0.000 HD
ATOM     33  H   UNL     1      47.481  10.000  15.861  0.00  0.00    +0.000 HD
ENDBRANCH  30  31
ENDBRANCH   1  30
TORSDOF 7
ENDMDL
MODEL 5
REMARK VINA RESULT:    -7.453      2.741      4.169
REMARK INTER + INTRA:         -11.303
REMARK INTER:                 -10.238
REMARK INTRA:                  -1.065
REMARK UNBOUND:                -1.018
REMARK  Name = 
REMARK  7 active torsions:
REMARK  status: ('A' for Active; 'I' for Inactive)
REMARK    1  A    between atoms: N_1  and  C_2
REMARK    2  A    between atoms: C_2  and  C_3
REMARK    3  A    between atoms: C_3  and  N_4
REMARK    4  A    between atoms: C_3  and  C_17
REMARK    5  A    between atoms: C_5  and  C_7
REMARK    6  A    between atoms: C_20  and  O_21
REMARK    7  A    between atoms: O_21  and  C_22
REMARK                            x       y       z     vdW  Elec       q    Type
REMARK                         _______ _______ _______ _____ _____    ______ ____
ROOT
ATOM      1  C   UNL     1      46.681   5.666  14.007  0.00  0.00    +0.000 C 
ENDROOT
BRANCH   1   2
ATOM      2  C   UNL     1      46.115   5.048  12.727  0.00  0.00    +0.000 A 
ATOM      3  C   UNL     1      46.006   5.821  11.561  0.00  0.00    +0.000 A 
ATOM      4  C   UNL     1      45.491   5.269  10.383  0.00  0.00    +0.000 A 
ATOM      5  C   UNL     1      45.135   3.920  10.334  0.00  0.00    +0.000 A 
ATOM      6  C   UNL     1      45.209   3.151  11.496  0.00  0.00    +0.000 A 
ATOM      7  C   UNL     1      45.698   3.707  12.683  0.00  0.00    +0.000 A 
BRANCH   5   8
ATOM      8  O   UNL     1      44.635   3.284   9.221  0.00  0.00    +0.000 OA
BRANCH   8   9
ATOM      9  C   UNL     1      45.486   2.715   8.299  0.00  0.00    +0.000 A 
ATOM     10  C   UNL     1      45.978   1.409   8.366  0.00  0.00    +0.000 A 
ATOM     11  C   UNL     1      46.862   0.941   7.390  0.00  0.00    +0.000 A 
ATOM     12  C   UNL     1      47.210   1.755   6.314  0.00  0.00    +0.000 A 
ATOM     13  C   UNL     1      46.667   3.035   6.206  0.00  0.00    +0.000 A 
ATOM     14  C   UNL     1      45.808   3.512   7.197  0.00  0.00    +0.000 A 
ENDBRANCH   8   9
ENDBRANCH   5   8
ENDBRANCH   1   2
BRANCH   1  15
ATOM     15  N   UNL     1      47.814   6.512  13.650  0.00  0.00    +0.000 N 
ATOM     16  C   UNL     1      47.706   7.869  13.489  0.00  0.00    +0.000 C 
ATOM     17  O   UNL     1      46.688   8.495  13.763  0.00  0.00    +0.000 OA
ATOM     18  H   UNL     1      48.573   6.040  13.168  0.00  0.00    +0.000 HD
BRANCH  16  19
ATOM     19  C   UNL     1      48.908   8.557  13.017  0.00  0.00    +0.000 A 
ATOM     20  C   UNL     1      48.834   9.447  11.954  0.00  0.00    +0.000 A 
ATOM     21  S   UNL     1      50.335  10.144  11.542  0.00  0.00    +0.000 S 
ATOM     22  C   UNL     1      51.146   9.240  12.734  0.00  0.00    +0.000 A 
ATOM     23  N   UNL     1      52.494   9.321  12.888  0.00  0.00    +0.000 NA
ATOM     24  C   UNL     1      52.975   8.549  13.804  0.00  0.00    +0.000 A 
ATOM     25  N   UNL     1      52.232   7.712  14.592  0.00  0.00    +0.000 N 
ATOM     26  C   UNL     1      50.860   7.639  14.514  0.00  0.00    +0.000 A 
ATOM     27  O   UNL     1      50.209   6.958  15.302  0.00  0.00    +0.000 OA
ATOM     28  C   UNL     1      50.275   8.453  13.467  0.00  0.00    +0.000 A 
ATOM     29  H   UNL     1      52.664   7.155  15.314  0.00  0.00    +0.000 HD
ENDBRANCH  16  19
ENDBRANCH   1  15
BRANCH   1  30
ATOM     30  C   UNL     1      47.058   4.576  15.056  0.00  0.00    +0.000 C 
BRANCH  30  31
ATOM     31  N   UNL     1      47.256   5.083  16.422  0.00  0.00    +0.000 NA
ATOM     32  H   UNL     1      47.851   5.910  16.379  0.00  0.00    +0.000 HD
ATOM     33  H   UNL     1      47.766   4.392  16.971  0.00  0.00    +0.000 HD
ENDBRANCH  30  31
ENDBRANCH   1  30
TORSDOF 7
ENDMDL
MODEL 6
REMARK VINA RESULT:    -7.320      2.426      4.085
REMARK INTER + INTRA:         -11.119
REMARK INTER:                 -10.624
REMARK INTRA:                  -0.495
REMARK UNBOUND:                -1.018
REMARK  Name = 
REMARK  7 active torsions:
REMARK  status: ('A' for Active; 'I' for Inactive)
REMARK    1  A    between atoms: N_1  and  C_2
REMARK    2  A    between atoms: C_2  and  C_3
REMARK    3  A    between atoms: C_3  and  N_4
REMARK    4  A    between atoms: C_3  and  C_17
REMARK    5  A    between atoms: C_5  and  C_7
REMARK    6  A    between atoms: C_20  and  O_21
REMARK    7  A    between atoms: O_21  and  C_22
REMARK                            x       y       z     vdW  Elec       q    Type
REMARK                         _______ _______ _______ _____ _____    ______ ____
ROOT
ATOM      1  C   UNL     1      45.881   5.332  13.758  0.00  0.00    +0.000 C 
ENDROOT
BRANCH   1   2
ATOM      2  C   UNL     1      45.549   4.785  12.369  0.00  0.00    +0.000 A 
ATOM      3  C   UNL     1      45.614   5.625  11.247  0.00  0.00    +0.000 A 
ATOM      4  C   UNL     1      45.313   5.138   9.971  0.00  0.00    +0.000 A 
ATOM      5  C   UNL     1      45.005   3.789   9.787  0.00  0.00    +0.000 A 
ATOM      6  C   UNL     1      44.907   2.952  10.898  0.00  0.00    +0.000 A 
ATOM      7  C   UNL     1      45.180   3.442  12.180  0.00  0.00    +0.000 A 
BRANCH   5   8
ATOM      8  O   UNL     1      44.711   3.214   8.571  0.00  0.00    +0.000 OA
BRANCH   8   9
ATOM      9  C   UNL     1      45.712   2.686   7.787  0.00  0.00    +0.000 A 
ATOM     10  C   UNL     1      46.348   1.463   8.019  0.00  0.00    +0.000 A 
ATOM     11  C   UNL     1      47.375   1.034   7.175  0.00  0.00    +0.000 A 
ATOM     12  C   UNL     1      47.732   1.796   6.064  0.00  0.00    +0.000 A 
ATOM     13  C   UNL     1      47.053   2.983   5.789  0.00  0.00    +0.000 A 
ATOM     14  C   UNL     1      46.047   3.425   6.649  0.00  0.00    +0.000 A 
ENDBRANCH   8   9
ENDBRANCH   5   8
ENDBRANCH   1   2
BRANCH   1  15
ATOM     15  N   UNL     1      46.449   6.667  13.606  0.00  0.00    +0.000 N 
ATOM     16  C   UNL     1      47.783   6.885  13.378  0.00  0.00    +0.000 C 
ATOM     17  O   UNL     1      48.578   5.980  13.148  0.00  0.00    +0.000 OA
ATOM     18  H   UNL     1      45.917   7.416  14.038  0.00  0.00    +0.000 HD
BRANCH  16  19
ATOM     19  C   UNL     1      48.211   8.284  13.365  0.00  0.00    +0.000 A 
ATOM     20  C   UNL     1      48.174   9.017  12.187  0.00  0.00    +0.000 A 
ATOM     21  S   UNL     1      48.719  10.624  12.366  0.00  0.00    +0.000 S 
ATOM     22  C   UNL     1      49.074  10.379  14.012  0.00  0.00    +0.000 A 
ATOM     23  N   UNL     1      49.632  11.362  14.768  0.00  0.00    +0.000 NA
ATOM     24  C   UNL     1      49.883  11.021  15.987  0.00  0.00    +0.000 A 
ATOM     25  N   UNL     1      49.616   9.792  16.527  0.00  0.00    +0.000 N 
ATOM     26  C   UNL     1      48.998   8.786  15.819  0.00  0.00    +0.000 A 
ATOM     27  O   UNL     1      48.676   7.730  16.356  0.00  0.00    +0.000 OA
ATOM     28  C   UNL     1      48.738   9.104  14.430  0.00  0.00    +0.000 A 
ATOM     29  H   UNL     1      49.806   9.596  17.498  0.00  0.00    +0.000 HD
ENDBRANCH  16  19
ENDBRANCH   1  15
BRANCH   1  30
ATOM     30  C   UNL     1      46.822   4.372  14.548  0.00  0.00    +0.000 C 
BRANCH  30  31
ATOM     31  N   UNL     1      47.222   4.861  15.876  0.00  0.00    +0.000 NA
ATOM     32  H   UNL     1      47.463   5.849  15.799  0.00  0.00    +0.000 HD
ATOM     33  H   UNL     1      48.072   4.382  16.172  0.00  0.00    +0.000 HD
ENDBRANCH  30  31
ENDBRANCH   1  30
TORSDOF 7
ENDMDL
MODEL 7
REMARK VINA RESULT:    -7.156      3.430      7.687
REMARK INTER + INTRA:         -10.894
REMARK INTER:                  -9.620
REMARK INTRA:                  -1.273
REMARK UNBOUND:                -1.018
REMARK  Name = 
REMARK  7 active torsions:
REMARK  status: ('A' for Active; 'I' for Inactive)
REMARK    1  A    between atoms: N_1  and  C_2
REMARK    2  A    between atoms: C_2  and  C_3
REMARK    3  A    between atoms: C_3  and  N_4
REMARK    4  A    between atoms: C_3  and  C_17
REMARK    5  A    between atoms: C_5  and  C_7
REMARK    6  A    between atoms: C_20  and  O_21
REMARK    7  A    between atoms: O_21  and  C_22
REMARK                            x       y       z     vdW  Elec       q    Type
REMARK                         _______ _______ _______ _____ _____    ______ ____
ROOT
ATOM      1  C   UNL     1      48.169   7.427  13.494  0.00  0.00    +0.000 C 
ENDROOT
BRANCH   1   2
ATOM      2  C   UNL     1      48.599   6.676  14.755  0.00  0.00    +0.000 A 
ATOM      3  C   UNL     1      47.810   5.630  15.255  0.00  0.00    +0.000 A 
ATOM      4  C   UNL     1      48.191   4.934  16.407  0.00  0.00    +0.000 A 
ATOM      5  C   UNL     1      49.398   5.232  17.042  0.00  0.00    +0.000 A 
ATOM      6  C   UNL     1      50.175   6.291  16.573  0.00  0.00    +0.000 A 
ATOM      7  C   UNL     1      49.783   7.007  15.437  0.00  0.00    +0.000 A 
BRANCH   5   8
ATOM      8  O   UNL     1      49.866   4.595  18.169  0.00  0.00    +0.000 OA
BRANCH   8   9
ATOM      9  C   UNL     1      50.841   3.627  18.072  0.00  0.00    +0.000 A 
ATOM     10  C   UNL     1      52.141   3.751  18.572  0.00  0.00    +0.000 A 
ATOM     11  C   UNL     1      53.063   2.718  18.392  0.00  0.00    +0.000 A 
ATOM     12  C   UNL     1      52.676   1.535  17.765  0.00  0.00    +0.000 A 
ATOM     13  C   UNL     1      51.361   1.379  17.327  0.00  0.00    +0.000 A 
ATOM     14  C   UNL     1      50.448   2.424  17.480  0.00  0.00    +0.000 A 
ENDBRANCH   8   9
ENDBRANCH   5   8
ENDBRANCH   1   2
BRANCH   1  15
ATOM     15  N   UNL     1      47.503   6.487  12.600  0.00  0.00    +0.000 N 
ATOM     16  C   UNL     1      46.390   6.816  11.870  0.00  0.00    +0.000 C 
ATOM     17  O   UNL     1      45.950   7.959  11.804  0.00  0.00    +0.000 OA
ATOM     18  H   UNL     1      47.650   5.505  12.815  0.00  0.00    +0.000 HD
BRANCH  16  19
ATOM     19  C   UNL     1      45.774   5.727  11.113  0.00  0.00    +0.000 A 
ATOM     20  C   UNL     1      45.886   5.686   9.729  0.00  0.00    +0.000 A 
ATOM     21  S   UNL     1      45.097   4.349   9.021  0.00  0.00    +0.000 S 
ATOM     22  C   UNL     1      44.533   3.809  10.533  0.00  0.00    +0.000 A 
ATOM     23  N   UNL     1      43.733   2.716  10.639  0.00  0.00    +0.000 NA
ATOM     24  C   UNL     1      43.349   2.449  11.843  0.00  0.00    +0.000 A 
ATOM     25  N   UNL     1      43.703   3.165  12.954  0.00  0.00    +0.000 N 
ATOM     26  C   UNL     1      44.559   4.242  12.905  0.00  0.00    +0.000 A 
ATOM     27  O   UNL     1      44.942   4.803  13.927  0.00  0.00    +0.000 OA
ATOM     28  C   UNL     1      44.980   4.611  11.568  0.00  0.00    +0.000 A 
ATOM     29  H   UNL     1      43.396   2.886  13.874  0.00  0.00    +0.000 HD
ENDBRANCH  16  19
ENDBRANCH   1  15
BRANCH   1  30
ATOM     30  C   UNL     1      49.372   8.147  12.811  0.00  0.00    +0.000 C 
BRANCH  30  31
ATOM     31  N   UNL     1      50.144   7.306  11.884  0.00  0.00    +0.000 NA
ATOM     32  H   UNL     1      51.136   7.481  12.036  0.00  0.00    +0.000 HD
ATOM     33  H   UNL     1      49.947   7.590  10.925  0.00  0.00    +0.000 HD
ENDBRANCH  30  31
ENDBRANCH   1  30
TORSDOF 7
ENDMDL
MODEL 8
REMARK VINA RESULT:    -7.135      2.242      4.222
REMARK INTER + INTRA:         -10.864
REMARK INTER:                 -10.618
REMARK INTRA:                  -0.246
REMARK UNBOUND:                -1.018
REMARK  Name = 
REMARK  7 active torsions:
REMARK  status: ('A' for Active; 'I' for Inactive)
REMARK    1  A    between atoms: N_1  and  C_2
REMARK    2  A    between atoms: C_2  and  C_3
REMARK    3  A    between atoms: C_3  and  N_4
REMARK    4  A    between atoms: C_3  and  C_17
REMARK    5  A    between atoms: C_5  and  C_7
REMARK    6  A    between atoms: C_20  and  O_21
REMARK    7  A    between atoms: O_21  and  C_22
REMARK                            x       y       z     vdW  Elec       q    Type
REMARK                         _______ _______ _______ _____ _____    ______ ____
ROOT
ATOM      1  C   UNL     1      46.237   5.421  14.032  0.00  0.00    +0.000 C 
ENDROOT
BRANCH   1   2
ATOM      2  C   UNL     1      45.850   4.964  12.624  0.00  0.00    +0.000 A 
ATOM      3  C   UNL     1      45.283   3.696  12.427  0.00  0.00    +0.000 A 
ATOM      4  C   UNL     1      44.924   3.264  11.146  0.00  0.00    +0.000 A 
ATOM      5  C   UNL     1      45.067   4.117  10.050  0.00  0.00    +0.000 A 
ATOM      6  C   UNL     1      45.659   5.368  10.229  0.00  0.00    +0.000 A 
ATOM      7  C   UNL     1      46.045   5.792  11.505  0.00  0.00    +0.000 A 
BRANCH   5   8
ATOM      8  O   UNL     1      44.729   3.791   8.757  0.00  0.00    +0.000 OA
BRANCH   8   9
ATOM      9  C   UNL     1      45.610   3.097   7.957  0.00  0.00    +0.000 A 
ATOM     10  C   UNL     1      46.266   3.630   6.843  0.00  0.00    +0.000 A 
ATOM     11  C   UNL     1      47.119   2.828   6.081  0.00  0.00    +0.000 A 
ATOM     12  C   UNL     1      47.364   1.509   6.461  0.00  0.00    +0.000 A 
ATOM     13  C   UNL     1      46.766   0.995   7.611  0.00  0.00    +0.000 A 
ATOM     14  C   UNL     1      45.891   1.788   8.355  0.00  0.00    +0.000 A 
ENDBRANCH   8   9
ENDBRANCH   5   8
ENDBRANCH   1   2
BRANCH   1  15
ATOM     15  N   UNL     1      46.889   6.721  13.933  0.00  0.00    +0.000 N 
ATOM     16  C   UNL     1      48.128   6.974  14.464  0.00  0.00    +0.000 C 
ATOM     17  O   UNL     1      48.840   6.097  14.941  0.00  0.00    +0.000 OA
ATOM     18  H   UNL     1      46.265   7.511  13.801  0.00  0.00    +0.000 HD
BRANCH  16  19
ATOM     19  C   UNL     1      48.592   8.358  14.382  0.00  0.00    +0.000 A 
ATOM     20  C   UNL     1      48.703   9.129  15.531  0.00  0.00    +0.000 A 
ATOM     21  S   UNL     1      49.250  10.718  15.237  0.00  0.00    +0.000 S 
ATOM     22  C   UNL     1      49.306  10.448  13.558  0.00  0.00    +0.000 A 
ATOM     23  N   UNL     1      49.652  11.438  12.694  0.00  0.00    +0.000 NA
ATOM     24  C   UNL     1      49.611  11.100  11.448  0.00  0.00    +0.000 A 
ATOM     25  N   UNL     1      49.270   9.858  10.986  0.00  0.00    +0.000 N 
ATOM     26  C   UNL     1      48.971   8.807  11.823  0.00  0.00    +0.000 A 
ATOM     27  O   UNL     1      48.771   7.678  11.386  0.00  0.00    +0.000 OA
ATOM     28  C   UNL     1      48.957   9.149  13.231  0.00  0.00    +0.000 A 
ATOM     29  H   UNL     1      49.288   9.646  10.000  0.00  0.00    +0.000 HD
ENDBRANCH  16  19
ENDBRANCH   1  15
BRANCH   1  30
ATOM     30  C   UNL     1      47.123   4.364  14.760  0.00  0.00    +0.000 C 
BRANCH  30  31
ATOM     31  N   UNL     1      46.761   4.125  16.165  0.00  0.00    +0.000 NA
ATOM     32  H   UNL     1      46.093   3.356  16.202  0.00  0.00    +0.000 HD
ATOM     33  H   UNL     1      46.278   4.943  16.535  0.00  0.00    +0.000 HD
ENDBRANCH  30  31
ENDBRANCH   1  30
TORSDOF 7
ENDMDL
MODEL 9
REMARK VINA RESULT:    -6.546      3.518      8.208
REMARK INTER + INTRA:         -10.052
REMARK INTER:                  -8.677
REMARK INTRA:                  -1.375
REMARK UNBOUND:                -1.018
REMARK  Name = 
REMARK  7 active torsions:
REMARK  status: ('A' for Active; 'I' for Inactive)
REMARK    1  A    between atoms: N_1  and  C_2
REMARK    2  A    between atoms: C_2  and  C_3
REMARK    3  A    between atoms: C_3  and  N_4
REMARK    4  A    between atoms: C_3  and  C_17
REMARK    5  A    between atoms: C_5  and  C_7
REMARK    6  A    between atoms: C_20  and  O_21
REMARK    7  A    between atoms: O_21  and  C_22
REMARK                            x       y       z     vdW  Elec       q    Type
REMARK                         _______ _______ _______ _____ _____    ______ ____
ROOT
ATOM      1  C   UNL     1      45.020   6.205  12.062  0.00  0.00    +0.000 C 
ENDROOT
BRANCH   1   2
ATOM      2  C   UNL     1      46.171   6.226  13.070  0.00  0.00    +0.000 A 
ATOM      3  C   UNL     1      46.439   5.095  13.855  0.00  0.00    +0.000 A 
ATOM      4  C   UNL     1      47.488   5.099  14.780  0.00  0.00    +0.000 A 
ATOM      5  C   UNL     1      48.325   6.211  14.890  0.00  0.00    +0.000 A 
ATOM      6  C   UNL     1      48.048   7.353  14.138  0.00  0.00    +0.000 A 
ATOM      7  C   UNL     1      46.983   7.361  13.231  0.00  0.00    +0.000 A 
BRANCH   5   8
ATOM      8  O   UNL     1      49.390   6.305  15.757  0.00  0.00    +0.000 OA
BRANCH   8   9
ATOM      9  C   UNL     1      49.285   5.834  17.047  0.00  0.00    +0.000 A 
ATOM     10  C   UNL     1      48.326   6.252  17.975  0.00  0.00    +0.000 A 
ATOM     11  C   UNL     1      48.329   5.730  19.270  0.00  0.00    +0.000 A 
ATOM     12  C   UNL     1      49.251   4.748  19.627  0.00  0.00    +0.000 A 
ATOM     13  C   UNL     1      50.165   4.278  18.685  0.00  0.00    +0.000 A 
ATOM     14  C   UNL     1      50.181   4.821  17.399  0.00  0.00    +0.000 A 
ENDBRANCH   8   9
ENDBRANCH   5   8
ENDBRANCH   1   2
BRANCH   1  15
ATOM     15  N   UNL     1      45.282   5.156  11.083  0.00  0.00    +0.000 N 
ATOM     16  C   UNL     1      44.281   4.464  10.450  0.00  0.00    +0.000 C 
ATOM     17  O   UNL     1      43.096   4.762  10.552  0.00  0.00    +0.000 OA
ATOM     18  H   UNL     1      46.188   4.705  11.162  0.00  0.00    +0.000 HD
BRANCH  16  19
ATOM     19  C   UNL     1      44.709   3.365   9.585  0.00  0.00    +0.000 A 
ATOM     20  C   UNL     1      44.165   2.098   9.741  0.00  0.00    +0.000 A 
ATOM     21  S   UNL     1      44.792   0.946   8.649  0.00  0.00    +0.000 S 
ATOM     22  C   UNL     1      45.850   2.089   7.965  0.00  0.00    +0.000 A 
ATOM     23  N   UNL     1      46.728   1.742   6.987  0.00  0.00    +0.000 NA
ATOM     24  C   UNL     1      47.497   2.703   6.593  0.00  0.00    +0.000 A 
ATOM     25  N   UNL     1      47.459   3.983   7.075  0.00  0.00    +0.000 N 
ATOM     26  C   UNL     1      46.549   4.396   8.020  0.00  0.00    +0.000 A 
ATOM     27  O   UNL     1      46.468   5.573   8.360  0.00  0.00    +0.000 OA
ATOM     28  C   UNL     1      45.694   3.343   8.530  0.00  0.00    +0.000 A 
ATOM     29  H   UNL     1      48.065   4.698   6.702  0.00  0.00    +0.000 HD
ENDBRANCH  16  19
ENDBRANCH   1  15
BRANCH   1  30
ATOM     30  C   UNL     1      44.808   7.600  11.398  0.00  0.00    +0.000 C 
BRANCH  30  31
ATOM     31  N   UNL     1      43.417   7.895  11.024  0.00  0.00    +0.000 NA
ATOM     32  H   UNL     1      43.214   8.864  11.265  0.00  0.00    +0.000 HD
ATOM     33  H   UNL     1      42.786   7.323  11.585  0.00  0.00    +0.000 HD
ENDBRANCH  30  31
ENDBRANCH   1  30
TORSDOF 7
ENDMDL
