MODEL 1
REMARK VINA RESULT:    -8.737      0.000      0.000
REMARK INTER + INTRA:         -12.205
REMARK INTER:                 -11.291
REMARK INTRA:                  -0.915
REMARK UNBOUND:                -0.915
REMARK  Name = 
REMARK  5 active torsions:
REMARK  status: ('A' for Active; 'I' for Inactive)
REMARK    1  A    between atoms: C_2  and  C_4
REMARK    2  A    between atoms: C_7  and  N_8
REMARK    3  A    between atoms: N_8  and  C_9
REMARK    4  A    between atoms: C_9  and  C_10
REMARK    5  A    between atoms: C_15  and  C_16
REMARK                            x       y       z     vdW  Elec       q    Type
REMARK                         _______ _______ _______ _____ _____    ______ ____
ROOT
ATOM      1  C   UNL     1      43.522   4.698  11.237  0.00  0.00    +0.000 C 
ENDROOT
BRANCH   1   2
ATOM      2  C   UNL     1      44.792   5.015  11.995  0.00  0.00    +0.000 A 
ATOM      3  C   UNL     1      45.296   4.136  12.958  0.00  0.00    +0.000 A 
ATOM      4  C   UNL     1      46.449   4.470  13.663  0.00  0.00    +0.000 A 
ATOM      5  C   UNL     1      47.095   5.682  13.416  0.00  0.00    +0.000 A 
ATOM      6  F   UNL     1      48.189   5.954  14.145  0.00  0.00    +0.000 F 
ATOM      7  C   UNL     1      46.628   6.602  12.462  0.00  0.00    +0.000 A 
ATOM      8  C   UNL     1      45.462   6.235  11.762  0.00  0.00    +0.000 A 
BRANCH   7   9
ATOM      9  C   UNL     1      47.308   7.890  12.202  0.00  0.00    +0.000 A 
ATOM     10  C   UNL     1      46.684   9.127  12.417  0.00  0.00    +0.000 A 
ATOM     11  N   UNL     1      47.244  10.345  12.188  0.00  0.00    +0.000 NA
ATOM     12  C   UNL     1      48.509  10.344  11.718  0.00  0.00    +0.000 A 
ATOM     13  C   UNL     1      49.226   9.188  11.482  0.00  0.00    +0.000 A 
ATOM     14  F   UNL     1      50.482   9.246  11.023  0.00  0.00    +0.000 F 
ATOM     15  C   UNL     1      48.627   7.957  11.722  0.00  0.00    +0.000 A 
ENDBRANCH   7   9
ENDBRANCH   1   2
BRANCH   1  16
ATOM     16  N   UNL     1      43.769   4.863   9.809  0.00  0.00    +0.000 N 
ATOM     17  H   UNL     1      43.944   5.835   9.566  0.00  0.00    +0.000 HD
BRANCH  16  21
ATOM     18  C   UNL     1      46.209   2.051   7.956  0.00  0.00    +0.000 A 
ATOM     19  C   UNL     1      46.405   3.386   7.637  0.00  0.00    +0.000 A 
ATOM     20  C   UNL     1      45.569   4.337   8.222  0.00  0.00    +0.000 A 
ATOM     21  C   UNL     1      44.552   3.955   9.100  0.00  0.00    +0.000 A 
ATOM     22  C   UNL     1      44.467   2.581   9.362  0.00  0.00    +0.000 A 
ATOM     23  N   UNL     1      45.243   1.615   8.806  0.00  0.00    +0.000 NA
BRANCH  18  25
ATOM     24  N   UNL     1      46.808  -0.282   7.654  0.00  0.00    +0.000 N 
ATOM     25  C   UNL     1      47.113   1.019   7.363  0.00  0.00    +0.000 C 
ATOM     26  O   UNL     1      48.072   1.309   6.655  0.00  0.00    +0.000 OA
ATOM     27  H   UNL     1      47.380  -1.022   7.272  0.00  0.00    +0.000 HD
ATOM     28  H   UNL     1      45.996  -0.492   8.223  0.00  0.00    +0.000 HD
ENDBRANCH  18  25
ENDBRANCH  16  21
ENDBRANCH   1  16
TORSDOF 5
ENDMDL
MODEL 2
REMARK VINA RESULT:    -8.434      2.218      3.894
REMARK INTER + INTRA:         -11.814
REMARK INTER:                 -11.501
REMARK INTRA:                  -0.313
REMARK UNBOUND:                -0.915
REMARK  Name = 
REMARK  5 active torsions:
REMARK  status: ('A' for Active; 'I' for Inactive)
REMARK    1  A    between atoms: C_2  and  C_4
REMARK    2  A    between atoms: C_7  and  N_8
REMARK    3  A    between atoms: N_8  and  C_9
REMARK    4  A    between atoms: C_9  and  C_10
REMARK    5  A    between atoms: C_15  and  C_16
REMARK                            x       y       z     vdW  Elec       q    Type
REMARK                         _______ _______ _______ _____ _____    ______ ____
ROOT
ATOM      1  C   UNL     1      43.897   4.805  11.397  0.00  0.00    +0.000 C 
ENDROOT
BRANCH   1   2
ATOM      2  C   UNL     1      45.167   5.451  11.902  0.00  0.00    +0.000 A 
ATOM      3  C   UNL     1      45.842   6.409  11.140  0.00  0.00    +0.000 A 
ATOM      4  C   UNL     1      47.027   6.962  11.618  0.00  0.00    +0.000 A 
ATOM      5  C   UNL     1      47.545   6.556  12.848  0.00  0.00    +0.000 A 
ATOM      6  F   UNL     1      48.702   7.111  13.241  0.00  0.00    +0.000 F 
ATOM      7  C   UNL     1      46.908   5.594  13.650  0.00  0.00    +0.000 A 
ATOM      8  C   UNL     1      45.709   5.054  13.144  0.00  0.00    +0.000 A 
BRANCH   7   9
ATOM      9  C   UNL     1      47.458   5.158  14.953  0.00  0.00    +0.000 A 
ATOM     10  C   UNL     1      48.516   5.826  15.584  0.00  0.00    +0.000 A 
ATOM     11  N   UNL     1      49.077   5.474  16.772  0.00  0.00    +0.000 NA
ATOM     12  C   UNL     1      48.555   4.389  17.383  0.00  0.00    +0.000 A 
ATOM     13  C   UNL     1      47.504   3.662  16.862  0.00  0.00    +0.000 A 
ATOM     14  F   UNL     1      47.020   2.598  17.515  0.00  0.00    +0.000 F 
ATOM     15  C   UNL     1      46.953   4.043  15.644  0.00  0.00    +0.000 A 
ENDBRANCH   7   9
ENDBRANCH   1   2
BRANCH   1  16
ATOM     16  N   UNL     1      43.895   4.839   9.938  0.00  0.00    +0.000 N 
ATOM     17  H   UNL     1      43.942   5.791   9.584  0.00  0.00    +0.000 HD
BRANCH  16  21
ATOM     18  C   UNL     1      46.222   2.014   7.965  0.00  0.00    +0.000 A 
ATOM     19  C   UNL     1      46.350   3.339   7.578  0.00  0.00    +0.000 A 
ATOM     20  C   UNL     1      45.548   4.293   8.205  0.00  0.00    +0.000 A 
ATOM     21  C   UNL     1      44.631   3.922   9.191  0.00  0.00    +0.000 A 
ATOM     22  C   UNL     1      44.610   2.558   9.512  0.00  0.00    +0.000 A 
ATOM     23  N   UNL     1      45.356   1.589   8.921  0.00  0.00    +0.000 NA
BRANCH  18  25
ATOM     24  N   UNL     1      46.854  -0.314   7.694  0.00  0.00    +0.000 N 
ATOM     25  C   UNL     1      47.094   0.981   7.326  0.00  0.00    +0.000 C 
ATOM     26  O   UNL     1      47.972   1.265   6.518  0.00  0.00    +0.000 OA
ATOM     27  H   UNL     1      47.407  -1.055   7.287  0.00  0.00    +0.000 HD
ATOM     28  H   UNL     1      46.106  -0.520   8.346  0.00  0.00    +0.000 HD
ENDBRANCH  18  25
ENDBRANCH  16  21
ENDBRANCH   1  16
TORSDOF 5
ENDMDL
MODEL 3
REMARK VINA RESULT:    -8.137      1.767      2.056
REMARK INTER + INTRA:         -11.430
REMARK INTER:                 -10.725
REMARK INTRA:                  -0.705
REMARK UNBOUND:                -0.915
REMARK  Name = 
REMARK  5 active torsions:
REMARK  status: ('A' for Active; 'I' for Inactive)
REMARK    1  A    between atoms: C_2  and  C_4
REMARK    2  A    between atoms: C_7  and  N_8
REMARK    3  A    between atoms: N_8  and  C_9
REMARK    4  A    between atoms: C_9  and  C_10
REMARK    5  A    between atoms: C_15  and  C_16
REMARK                            x       y       z     vdW  Elec       q    Type
REMARK                         _______ _______ _______ _____ _____    ______ ____
ROOT
ATOM      1  C   UNL     1      43.967   3.246  11.789  0.00  0.00    +0.000 C 
ENDROOT
BRANCH   1   2
ATOM      2  C   UNL     1      45.124   4.015  12.387  0.00  0.00    +0.000 A 
ATOM      3  C   UNL     1      46.056   3.386  13.217  0.00  0.00    +0.000 A 
ATOM      4  C   UNL     1      47.092   4.127  13.779  0.00  0.00    +0.000 A 
ATOM      5  C   UNL     1      47.195   5.496  13.523  0.00  0.00    +0.000 A 
ATOM      6  F   UNL     1      48.203   6.156  14.113  0.00  0.00    +0.000 F 
ATOM      7  C   UNL     1      46.282   6.176  12.700  0.00  0.00    +0.000 A 
ATOM      8  C   UNL     1      45.247   5.400  12.142  0.00  0.00    +0.000 A 
BRANCH   7   9
ATOM      9  C   UNL     1      46.386   7.627  12.430  0.00  0.00    +0.000 A 
ATOM     10  C   UNL     1      47.614   8.263  12.201  0.00  0.00    +0.000 A 
ATOM     11  N   UNL     1      47.783   9.591  11.961  0.00  0.00    +0.000 NA
ATOM     12  C   UNL     1      46.664  10.344  11.939  0.00  0.00    +0.000 A 
ATOM     13  C   UNL     1      45.400   9.824  12.137  0.00  0.00    +0.000 A 
ATOM     14  F   UNL     1      44.322  10.616  12.096  0.00  0.00    +0.000 F 
ATOM     15  C   UNL     1      45.258   8.463  12.385  0.00  0.00    +0.000 A 
ENDBRANCH   7   9
ENDBRANCH   1   2
BRANCH   1  16
ATOM     16  N   UNL     1      43.734   3.722  10.429  0.00  0.00    +0.000 N 
ATOM     17  H   UNL     1      43.412   4.687  10.418  0.00  0.00    +0.000 HD
BRANCH  16  21
ATOM     18  C   UNL     1      46.527   2.660   7.537  0.00  0.00    +0.000 A 
ATOM     19  C   UNL     1      46.198   4.001   7.655  0.00  0.00    +0.000 A 
ATOM     20  C   UNL     1      45.235   4.368   8.595  0.00  0.00    +0.000 A 
ATOM     21  C   UNL     1      44.608   3.407   9.392  0.00  0.00    +0.000 A 
ATOM     22  C   UNL     1      45.040   2.088   9.197  0.00  0.00    +0.000 A 
ATOM     23  N   UNL     1      45.960   1.678   8.286  0.00  0.00    +0.000 NA
BRANCH  18  25
ATOM     24  N   UNL     1      47.542   2.879   5.343  0.00  0.00    +0.000 N 
ATOM     25  C   UNL     1      47.578   2.250   6.557  0.00  0.00    +0.000 C 
ATOM     26  O   UNL     1      48.428   1.404   6.815  0.00  0.00    +0.000 OA
ATOM     27  H   UNL     1      48.235   2.649   4.645  0.00  0.00    +0.000 HD
ATOM     28  H   UNL     1      46.842   3.591   5.168  0.00  0.00    +0.000 HD
ENDBRANCH  18  25
ENDBRANCH  16  21
ENDBRANCH   1  16
TORSDOF 5
ENDMDL
MODEL 4
REMARK VINA RESULT:    -7.890      2.002      2.524
REMARK INTER + INTRA:         -11.111
REMARK INTER:                 -10.467
REMARK INTRA:                  -0.644
REMARK UNBOUND:                -0.915
REMARK  Name = 
REMARK  5 active torsions:
REMARK  status: ('A' for Active; 'I' for Inactive)
REMARK    1  A    between atoms: C_2  and  C_4
REMARK    2  A    between atoms: C_7  and  N_8
REMARK    3  A    between atoms: N_8  and  C_9
REMARK    4  A    between atoms: C_9  and  C_10
REMARK    5  A    between atoms: C_15  and  C_16
REMARK                            x       y       z     vdW  Elec       q    Type
REMARK                         _______ _______ _______ _____ _____    ______ ____
ROOT
ATOM      1  C   UNL     1      44.148   3.521  11.839  0.00  0.00    +0.000 C 
ENDROOT
BRANCH   1   2
ATOM      2  C   UNL     1      44.533   4.983  11.850  0.00  0.00    +0.000 A 
ATOM      3  C   UNL     1      43.624   5.972  11.463  0.00  0.00    +0.000 A 
ATOM      4  C   UNL     1      44.017   7.307  11.453  0.00  0.00    +0.000 A 
ATOM      5  C   UNL     1      45.318   7.658  11.819  0.00  0.00    +0.000 A 
ATOM      6  F   UNL     1      45.640   8.959  11.766  0.00  0.00    +0.000 F 
ATOM      7  C   UNL     1      46.271   6.703  12.212  0.00  0.00    +0.000 A 
ATOM      8  C   UNL     1      45.843   5.360  12.217  0.00  0.00    +0.000 A 
BRANCH   7   9
ATOM      9  C   UNL     1      47.651   7.071  12.596  0.00  0.00    +0.000 A 
ATOM     10  C   UNL     1      48.213   6.701  13.826  0.00  0.00    +0.000 A 
ATOM     11  N   UNL     1      49.468   7.015  14.248  0.00  0.00    +0.000 NA
ATOM     12  C   UNL     1      50.222   7.741  13.397  0.00  0.00    +0.000 A 
ATOM     13  C   UNL     1      49.779   8.149  12.155  0.00  0.00    +0.000 A 
ATOM     14  F   UNL     1      50.573   8.861  11.346  0.00  0.00    +0.000 F 
ATOM     15  C   UNL     1      48.490   7.816  11.751  0.00  0.00    +0.000 A 
ENDBRANCH   7   9
ENDBRANCH   1   2
BRANCH   1  16
ATOM     16  N   UNL     1      43.778   3.138  10.480  0.00  0.00    +0.000 N 
ATOM     17  H   UNL     1      42.925   3.603  10.177  0.00  0.00    +0.000 HD
BRANCH  16  21
ATOM     18  C   UNL     1      46.432   2.849   7.292  0.00  0.00    +0.000 A 
ATOM     19  C   UNL     1      46.159   1.695   8.012  0.00  0.00    +0.000 A 
ATOM     20  C   UNL     1      45.300   1.785   9.107  0.00  0.00    +0.000 A 
ATOM     21  C   UNL     1      44.736   3.008   9.478  0.00  0.00    +0.000 A 
ATOM     22  C   UNL     1      45.068   4.097   8.661  0.00  0.00    +0.000 A 
ATOM     23  N   UNL     1      45.911   4.066   7.597  0.00  0.00    +0.000 NA
BRANCH  18  25
ATOM     24  N   UNL     1      48.644   2.509   6.353  0.00  0.00    +0.000 N 
ATOM     25  C   UNL     1      47.326   2.768   6.097  0.00  0.00    +0.000 C 
ATOM     26  O   UNL     1      46.914   2.921   4.952  0.00  0.00    +0.000 OA
ATOM     27  H   UNL     1      49.293   2.434   5.582  0.00  0.00    +0.000 HD
ATOM     28  H   UNL     1      48.951   2.364   7.308  0.00  0.00    +0.000 HD
ENDBRANCH  18  25
ENDBRANCH  16  21
ENDBRANCH   1  16
TORSDOF 5
ENDMDL
MODEL 5
REMARK VINA RESULT:    -7.528      3.965      7.428
REMARK INTER + INTRA:         -10.644
REMARK INTER:                 -10.304
REMARK INTRA:                  -0.339
REMARK UNBOUND:                -0.915
REMARK  Name = 
REMARK  5 active torsions:
REMARK  status: ('A' for Active; 'I' for Inactive)
REMARK    1  A    between atoms: C_2  and  C_4
REMARK    2  A    between atoms: C_7  and  N_8
REMARK    3  A    between atoms: N_8  and  C_9
REMARK    4  A    between atoms: C_9  and  C_10
REMARK    5  A    between atoms: C_15  and  C_16
REMARK                            x       y       z     vdW  Elec       q    Type
REMARK                         _______ _______ _______ _____ _____    ______ ____
ROOT
ATOM      1  C   UNL     1      45.217   6.612  11.222  0.00  0.00    +0.000 C 
ENDROOT
BRANCH   1   2
ATOM      2  C   UNL     1      44.818   5.222  10.780  0.00  0.00    +0.000 A 
ATOM      3  C   UNL     1      43.820   4.509  11.452  0.00  0.00    +0.000 A 
ATOM      4  C   UNL     1      43.497   3.219  11.042  0.00  0.00    +0.000 A 
ATOM      5  C   UNL     1      44.173   2.634   9.970  0.00  0.00    +0.000 A 
ATOM      6  F   UNL     1      43.830   1.379   9.639  0.00  0.00    +0.000 F 
ATOM      7  C   UNL     1      45.186   3.305   9.264  0.00  0.00    +0.000 A 
ATOM      8  C   UNL     1      45.488   4.611   9.699  0.00  0.00    +0.000 A 
BRANCH   7   9
ATOM      9  C   UNL     1      45.907   2.686   8.130  0.00  0.00    +0.000 A 
ATOM     10  C   UNL     1      46.403   1.375   8.181  0.00  0.00    +0.000 A 
ATOM     11  N   UNL     1      47.084   0.749   7.183  0.00  0.00    +0.000 NA
ATOM     12  C   UNL     1      47.287   1.463   6.056  0.00  0.00    +0.000 A 
ATOM     13  C   UNL     1      46.832   2.756   5.889  0.00  0.00    +0.000 A 
ATOM     14  F   UNL     1      47.055   3.415   4.746  0.00  0.00    +0.000 F 
ATOM     15  C   UNL     1      46.142   3.372   6.927  0.00  0.00    +0.000 A 
ENDBRANCH   7   9
ENDBRANCH   1   2
BRANCH   1  16
ATOM     16  N   UNL     1      46.599   6.583  11.689  0.00  0.00    +0.000 N 
ATOM     17  H   UNL     1      47.116   7.405  11.387  0.00  0.00    +0.000 HD
BRANCH  16  21
ATOM     18  C   UNL     1      47.844   5.273  15.434  0.00  0.00    +0.000 A 
ATOM     19  C   UNL     1      46.853   4.547  14.793  0.00  0.00    +0.000 A 
ATOM     20  C   UNL     1      46.398   4.996  13.553  0.00  0.00    +0.000 A 
ATOM     21  C   UNL     1      46.920   6.155  12.974  0.00  0.00    +0.000 A 
ATOM     22  C   UNL     1      47.934   6.790  13.707  0.00  0.00    +0.000 A 
ATOM     23  N   UNL     1      48.398   6.403  14.923  0.00  0.00    +0.000 NA
BRANCH  18  25
ATOM     24  N   UNL     1      47.738   5.287  17.859  0.00  0.00    +0.000 N 
ATOM     25  C   UNL     1      48.366   4.792  16.750  0.00  0.00    +0.000 C 
ATOM     26  O   UNL     1      49.298   4.000  16.841  0.00  0.00    +0.000 OA
ATOM     27  H   UNL     1      48.043   4.988  18.775  0.00  0.00    +0.000 HD
ATOM     28  H   UNL     1      46.955   5.922  17.752  0.00  0.00    +0.000 HD
ENDBRANCH  18  25
ENDBRANCH  16  21
ENDBRANCH   1  16
TORSDOF 5
ENDMDL
MODEL 6
REMARK VINA RESULT:    -7.326      3.920      7.422
REMARK INTER + INTRA:         -10.382
REMARK INTER:                  -9.996
REMARK INTRA:                  -0.386
REMARK UNBOUND:                -0.915
REMARK  Name = 
REMARK  5 active torsions:
REMARK  status: ('A' for Active; 'I' for Inactive)
REMARK    1  A    between atoms: C_2  and  C_4
REMARK    2  A    between atoms: C_7  and  N_8
REMARK    3  A    between atoms: N_8  and  C_9
REMARK    4  A    between atoms: C_9  and  C_10
REMARK    5  A    between atoms: C_15  and  C_16
REMARK                            x       y       z     vdW  Elec       q    Type
REMARK                         _______ _______ _______ _____ _____    ______ ____
ROOT
ATOM      1  C   UNL     1      44.830   7.194  11.361  0.00  0.00    +0.000 C 
ENDROOT
BRANCH   1   2
ATOM      2  C   UNL     1      44.494   5.754  11.045  0.00  0.00    +0.000 A 
ATOM      3  C   UNL     1      43.538   5.056  11.789  0.00  0.00    +0.000 A 
ATOM      4  C   UNL     1      43.273   3.721  11.496  0.00  0.00    +0.000 A 
ATOM      5  C   UNL     1      43.966   3.078  10.470  0.00  0.00    +0.000 A 
ATOM      6  F   UNL     1      43.680   1.784  10.253  0.00  0.00    +0.000 F 
ATOM      7  C   UNL     1      44.939   3.732   9.695  0.00  0.00    +0.000 A 
ATOM      8  C   UNL     1      45.183   5.083  10.012  0.00  0.00    +0.000 A 
BRANCH   7   9
ATOM      9  C   UNL     1      45.679   3.051   8.609  0.00  0.00    +0.000 A 
ATOM     10  C   UNL     1      46.174   3.738   7.492  0.00  0.00    +0.000 A 
ATOM     11  N   UNL     1      46.850   3.175   6.454  0.00  0.00    +0.000 NA
ATOM     12  C   UNL     1      47.055   1.843   6.525  0.00  0.00    +0.000 A 
ATOM     13  C   UNL     1      46.624   1.067   7.583  0.00  0.00    +0.000 A 
ATOM     14  F   UNL     1      46.862  -0.249   7.604  0.00  0.00    +0.000 F 
ATOM     15  C   UNL     1      45.933   1.670   8.628  0.00  0.00    +0.000 A 
ENDBRANCH   7   9
ENDBRANCH   1   2
BRANCH   1  16
ATOM     16  N   UNL     1      45.150   7.307  12.780  0.00  0.00    +0.000 N 
ATOM     17  H   UNL     1      44.565   6.698  13.347  0.00  0.00    +0.000 HD
BRANCH  16  21
ATOM     18  C   UNL     1      49.013   7.375  14.317  0.00  0.00    +0.000 A 
ATOM     19  C   UNL     1      48.329   8.579  14.236  0.00  0.00    +0.000 A 
ATOM     20  C   UNL     1      47.046   8.577  13.687  0.00  0.00    +0.000 A 
ATOM     21  C   UNL     1      46.468   7.394  13.221  0.00  0.00    +0.000 A 
ATOM     22  C   UNL     1      47.247   6.239  13.378  0.00  0.00    +0.000 A 
ATOM     23  N   UNL     1      48.504   6.191  13.889  0.00  0.00    +0.000 NA
BRANCH  18  25
ATOM     24  N   UNL     1      51.393   7.820  14.144  0.00  0.00    +0.000 N 
ATOM     25  C   UNL     1      50.376   7.351  14.930  0.00  0.00    +0.000 C 
ATOM     26  O   UNL     1      50.583   6.941  16.067  0.00  0.00    +0.000 OA
ATOM     27  H   UNL     1      52.334   7.837  14.510  0.00  0.00    +0.000 HD
ATOM     28  H   UNL     1      51.188   8.175  13.217  0.00  0.00    +0.000 HD
ENDBRANCH  18  25
ENDBRANCH  16  21
ENDBRANCH   1  16
TORSDOF 5
ENDMDL
MODEL 7
REMARK VINA RESULT:    -7.158      4.318      7.294
REMARK INTER + INTRA:         -10.165
REMARK INTER:                  -9.896
REMARK INTRA:                  -0.268
REMARK UNBOUND:                -0.915
REMARK  Name = 
REMARK  5 active torsions:
REMARK  status: ('A' for Active; 'I' for Inactive)
REMARK    1  A    between atoms: C_2  and  C_4
REMARK    2  A    between atoms: C_7  and  N_8
REMARK    3  A    between atoms: N_8  and  C_9
REMARK    4  A    between atoms: C_9  and  C_10
REMARK    5  A    between atoms: C_15  and  C_16
REMARK                            x       y       z     vdW  Elec       q    Type
REMARK                         _______ _______ _______ _____ _____    ______ ____
ROOT
ATOM      1  C   UNL     1      46.059   7.399  12.672  0.00  0.00    +0.000 C 
ENDROOT
BRANCH   1   2
ATOM      2  C   UNL     1      45.220   6.279  12.098  0.00  0.00    +0.000 A 
ATOM      3  C   UNL     1      44.008   5.911  12.688  0.00  0.00    +0.000 A 
ATOM      4  C   UNL     1      43.273   4.855  12.156  0.00  0.00    +0.000 A 
ATOM      5  C   UNL     1      43.749   4.160  11.043  0.00  0.00    +0.000 A 
ATOM      6  F   UNL     1      43.003   3.139  10.592  0.00  0.00    +0.000 F 
ATOM      7  C   UNL     1      44.962   4.489  10.415  0.00  0.00    +0.000 A 
ATOM      8  C   UNL     1      45.682   5.563  10.972  0.00  0.00    +0.000 A 
BRANCH   7   9
ATOM      9  C   UNL     1      45.471   3.751   9.237  0.00  0.00    +0.000 A 
ATOM     10  C   UNL     1      45.879   4.400   8.063  0.00  0.00    +0.000 A 
ATOM     11  N   UNL     1      46.343   3.785   6.942  0.00  0.00    +0.000 NA
ATOM     12  C   UNL     1      46.415   2.439   6.982  0.00  0.00    +0.000 A 
ATOM     13  C   UNL     1      46.053   1.696   8.088  0.00  0.00    +0.000 A 
ATOM     14  F   UNL     1      46.153   0.361   8.076  0.00  0.00    +0.000 F 
ATOM     15  C   UNL     1      45.579   2.351   9.219  0.00  0.00    +0.000 A 
ENDBRANCH   7   9
ENDBRANCH   1   2
BRANCH   1  16
ATOM     16  N   UNL     1      47.392   6.886  12.973  0.00  0.00    +0.000 N 
ATOM     17  H   UNL     1      48.112   7.582  12.797  0.00  0.00    +0.000 HD
BRANCH  16  21
ATOM     18  C   UNL     1      47.802   4.552  16.390  0.00  0.00    +0.000 A 
ATOM     19  C   UNL     1      48.488   5.756  16.345  0.00  0.00    +0.000 A 
ATOM     20  C   UNL     1      48.390   6.532  15.189  0.00  0.00    +0.000 A 
ATOM     21  C   UNL     1      47.629   6.102  14.100  0.00  0.00    +0.000 A 
ATOM     22  C   UNL     1      46.964   4.880  14.273  0.00  0.00    +0.000 A 
ATOM     23  N   UNL     1      47.040   4.081  15.369  0.00  0.00    +0.000 NA
BRANCH  18  25
ATOM     24  N   UNL     1      46.964   2.700  17.717  0.00  0.00    +0.000 N 
ATOM     25  C   UNL     1      47.870   3.720  17.630  0.00  0.00    +0.000 C 
ATOM     26  O   UNL     1      48.686   3.929  18.522  0.00  0.00    +0.000 OA
ATOM     27  H   UNL     1      46.970   2.099  18.528  0.00  0.00    +0.000 HD
ATOM     28  H   UNL     1      46.317   2.537  16.953  0.00  0.00    +0.000 HD
ENDBRANCH  18  25
ENDBRANCH  16  21
ENDBRANCH   1  16
TORSDOF 5
ENDMDL
MODEL 8
REMARK VINA RESULT:    -7.054      4.253      7.391
REMARK INTER + INTRA:         -10.030
REMARK INTER:                  -9.740
REMARK INTRA:                  -0.290
REMARK UNBOUND:                -0.915
REMARK  Name = 
REMARK  5 active torsions:
REMARK  status: ('A' for Active; 'I' for Inactive)
REMARK    1  A    between atoms: C_2  and  C_4
REMARK    2  A    between atoms: C_7  and  N_8
REMARK    3  A    between atoms: N_8  and  C_9
REMARK    4  A    between atoms: C_9  and  C_10
REMARK    5  A    between atoms: C_15  and  C_16
REMARK                            x       y       z     vdW  Elec       q    Type
REMARK                         _______ _______ _______ _____ _____    ______ ____
ROOT
ATOM      1  C   UNL     1      48.796   7.671  12.718  0.00  0.00    +0.000 C 
ENDROOT
BRANCH   1   2
ATOM      2  C   UNL     1      47.361   7.565  12.252  0.00  0.00    +0.000 A 
ATOM      3  C   UNL     1      46.423   8.550  12.574  0.00  0.00    +0.000 A 
ATOM      4  C   UNL     1      45.102   8.408  12.158  0.00  0.00    +0.000 A 
ATOM      5  C   UNL     1      44.712   7.283  11.431  0.00  0.00    +0.000 A 
ATOM      6  F   UNL     1      43.420   7.196  11.079  0.00  0.00    +0.000 F 
ATOM      7  C   UNL     1      45.615   6.263  11.084  0.00  0.00    +0.000 A 
ATOM      8  C   UNL     1      46.945   6.435  11.515  0.00  0.00    +0.000 A 
BRANCH   7   9
ATOM      9  C   UNL     1      45.204   5.067  10.316  0.00  0.00    +0.000 A 
ATOM     10  C   UNL     1      44.403   4.058  10.869  0.00  0.00    +0.000 A 
ATOM     11  N   UNL     1      43.999   2.929  10.227  0.00  0.00    +0.000 NA
ATOM     12  C   UNL     1      44.410   2.787   8.949  0.00  0.00    +0.000 A 
ATOM     13  C   UNL     1      45.190   3.722   8.298  0.00  0.00    +0.000 A 
ATOM     14  F   UNL     1      45.562   3.534   7.026  0.00  0.00    +0.000 F 
ATOM     15  C   UNL     1      45.590   4.865   8.981  0.00  0.00    +0.000 A 
ENDBRANCH   7   9
ENDBRANCH   1   2
BRANCH   1  16
ATOM     16  N   UNL     1      48.811   7.861  14.165  0.00  0.00    +0.000 N 
ATOM     17  H   UNL     1      48.330   8.715  14.438  0.00  0.00    +0.000 HD
BRANCH  16  21
ATOM     18  C   UNL     1      47.911   4.713  16.727  0.00  0.00    +0.000 A 
ATOM     19  C   UNL     1      48.629   5.780  17.244  0.00  0.00    +0.000 A 
ATOM     20  C   UNL     1      48.971   6.826  16.387  0.00  0.00    +0.000 A 
ATOM     21  C   UNL     1      48.609   6.796  15.038  0.00  0.00    +0.000 A 
ATOM     22  C   UNL     1      47.866   5.676  14.639  0.00  0.00    +0.000 A 
ATOM     23  N   UNL     1      47.523   4.625  15.429  0.00  0.00    +0.000 NA
BRANCH  18  25
ATOM     24  N   UNL     1      48.309   3.395  18.727  0.00  0.00    +0.000 N 
ATOM     25  C   UNL     1      47.509   3.596  17.636  0.00  0.00    +0.000 C 
ATOM     26  O   UNL     1      46.522   2.898  17.429  0.00  0.00    +0.000 OA
ATOM     27  H   UNL     1      48.080   2.660  19.381  0.00  0.00    +0.000 HD
ATOM     28  H   UNL     1      49.105   4.003  18.885  0.00  0.00    +0.000 HD
ENDBRANCH  18  25
ENDBRANCH  16  21
ENDBRANCH   1  16
TORSDOF 5
ENDMDL
MODEL 9
REMARK VINA RESULT:    -6.702      4.933      7.809
REMARK INTER + INTRA:          -9.575
REMARK INTER:                  -8.899
REMARK INTRA:                  -0.676
REMARK UNBOUND:                -0.915
REMARK  Name = 
REMARK  5 active torsions:
REMARK  status: ('A' for Active; 'I' for Inactive)
REMARK    1  A    between atoms: C_2  and  C_4
REMARK    2  A    between atoms: C_7  and  N_8
REMARK    3  A    between atoms: N_8  and  C_9
REMARK    4  A    between atoms: C_9  and  C_10
REMARK    5  A    between atoms: C_15  and  C_16
REMARK                            x       y       z     vdW  Elec       q    Type
REMARK                         _______ _______ _______ _____ _____    ______ ____
ROOT
ATOM      1  C   UNL     1      48.504   7.460  14.001  0.00  0.00    +0.000 C 
ENDROOT
BRANCH   1   2
ATOM      2  C   UNL     1      47.234   7.536  13.185  0.00  0.00    +0.000 A 
ATOM      3  C   UNL     1      46.411   8.665  13.234  0.00  0.00    +0.000 A 
ATOM      4  C   UNL     1      45.231   8.693  12.496  0.00  0.00    +0.000 A 
ATOM      5  C   UNL     1      44.866   7.594  11.716  0.00  0.00    +0.000 A 
ATOM      6  F   UNL     1      43.706   7.676  11.046  0.00  0.00    +0.000 F 
ATOM      7  C   UNL     1      45.656   6.435  11.635  0.00  0.00    +0.000 A 
ATOM      8  C   UNL     1      46.845   6.437  12.389  0.00  0.00    +0.000 A 
BRANCH   7   9
ATOM      9  C   UNL     1      45.269   5.268  10.812  0.00  0.00    +0.000 A 
ATOM     10  C   UNL     1      44.524   4.198  11.329  0.00  0.00    +0.000 A 
ATOM     11  N   UNL     1      44.146   3.091  10.635  0.00  0.00    +0.000 NA
ATOM     12  C   UNL     1      44.523   3.037   9.340  0.00  0.00    +0.000 A 
ATOM     13  C   UNL     1      45.246   4.037   8.722  0.00  0.00    +0.000 A 
ATOM     14  F   UNL     1      45.587   3.935   7.432  0.00  0.00    +0.000 F 
ATOM     15  C   UNL     1      45.622   5.156   9.457  0.00  0.00    +0.000 A 
ENDBRANCH   7   9
ENDBRANCH   1   2
BRANCH   1  16
ATOM     16  N   UNL     1      48.158   7.183  15.392  0.00  0.00    +0.000 N 
ATOM     17  H   UNL     1      47.151   7.148  15.529  0.00  0.00    +0.000 HD
BRANCH  16  21
ATOM     18  C   UNL     1      50.434   4.328  17.383  0.00  0.00    +0.000 A 
ATOM     19  C   UNL     1      49.069   4.108  17.280  0.00  0.00    +0.000 A 
ATOM     20  C   UNL     1      48.287   5.076  16.647  0.00  0.00    +0.000 A 
ATOM     21  C   UNL     1      48.862   6.243  16.140  0.00  0.00    +0.000 A 
ATOM     22  C   UNL     1      50.254   6.341  16.284  0.00  0.00    +0.000 A 
ATOM     23  N   UNL     1      51.055   5.437  16.905  0.00  0.00    +0.000 NA
BRANCH  18  25
ATOM     24  N   UNL     1      50.956   1.990  17.773  0.00  0.00    +0.000 N 
ATOM     25  C   UNL     1      51.293   3.290  18.030  0.00  0.00    +0.000 C 
ATOM     26  O   UNL     1      52.245   3.575  18.748  0.00  0.00    +0.000 OA
ATOM     27  H   UNL     1      51.507   1.246  18.176  0.00  0.00    +0.000 HD
ATOM     28  H   UNL     1      50.177   1.786  17.157  0.00  0.00    +0.000 HD
ENDBRANCH  18  25
ENDBRANCH  16  21
ENDBRANCH   1  16
TORSDOF 5
ENDMDL
